data_mof_unit_15898.cif
_audit_creation_date              2013-03-05T17:00:14-0500
_audit_creation_method            fapswitch 2.2
_symmetry_space_group_name_H-M    P1
_symmetry_Int_Tables_number       1
_space_group_crystal_system       triclinic
_cell_length_a                    10.616409
_cell_length_b                    16.132737
_cell_length_c                    16.62065
_cell_angle_alpha                 85.762207
_cell_angle_beta                  92.288601
_cell_angle_gamma                 92.886259
_cell_volume                      2833.38893031

loop_
_atom_site_label
_atom_site_type_symbol
_atom_site_description
_atom_site_fract_x
_atom_site_fract_y
_atom_site_fract_z
_atom_type_partial_charge
O1    O     O_R   0.494530 0.422540 0.612660 -0.574201
O2    O     O_R   0.504350 0.561840 0.618900 -0.660458
C1    C     C_R   0.487861 0.487877 0.654394 0.883081
O3    O     O_R   0.678320 0.430330 0.496880 -0.645109
O4    O     O_R   0.688140 0.569640 0.503120 -0.619003
C2    C     C_R   0.737436 0.502574 0.485333 0.902110
Zn1   Zn    Zn3+2 0.493440 0.406980 0.495830 0.952550
Zn2   Zn    Zn3+2 0.506560 0.593020 0.504170 0.927752
O5    O     O_R   0.495650 0.438160 0.381100 -0.635314
O6    O     O_R   0.505470 0.577460 0.387340 -0.619782
O7    O     O_R   0.311860 0.430360 0.496880 -0.595532
O8    O     O_R   0.321680 0.569670 0.503120 -0.665954
C3    C     C_R   0.504345 0.512349 0.346529 0.876165
C4    C     C_R   0.258416 0.498239 0.507625 0.904170
C5    C     C_R   0.873102 0.377567 0.400538 -0.170514
H1    H     H_    0.786461 0.391138 0.366582 0.146000
C6    C     C_R   0.929993 0.302443 0.391915 0.143988
C7    C     C_R   0.035483 0.282490 0.441539 -0.309462
H2    H     H_    0.070792 0.220487 0.442908 0.140598
C8    C     C_R   0.089637 0.340076 0.493750 -0.018408
C9    C     C_R   0.048857 0.423401 0.487246 0.065211
C10   C     C_R   0.929640 0.436237 0.451046 0.013210
C11   C     C_R   0.870159 0.508655 0.464917 -0.143835
C12   C     C_R   0.942132 0.580190 0.484445 -0.070647
C13   C     C_R   0.060500 0.569786 0.522284 0.013546
C14   C     C_R   0.120520 0.494405 0.514048 -0.117147
C15   C     C_R   0.457073 0.478438 0.742931 -0.162244
C16   C     C_R   0.407546 0.545218 0.783635 0.045096
C17   C     C_R   0.386450 0.533368 0.867426 0.100812
C18   C     C_R   0.440900 0.466658 0.912108 0.209000
C19   C     C_R   0.472705 0.396644 0.874293 -0.017063
C20   C     C_R   0.473120 0.400869 0.789098 -0.053294
C21   C     C_R   0.605783 0.467186 0.141885 -0.010472
C22   C     C_R   0.585900 0.460125 0.224461 -0.200362
C23   C     C_R   0.557837 0.535658 0.094530 0.212246
N1    N     N_2   0.465003 0.470340 0.995692 -0.215962
N2    N     N_2   0.537600 0.530961 0.010733 -0.157728
C24   C     C_R   0.525781 0.522338 0.260415 -0.064859
H3    H     H_    0.617726 0.406199 0.260967 0.184120
C25   C     C_R   0.493529 0.595104 0.214954 -0.290015
C26   C     C_R   0.509918 0.602791 0.131758 0.006118
H4    H     H_    0.452364 0.644817 0.243959 0.152062
N3    N     N_R   0.515300 0.716920 0.509720 -0.178847
C27   C     C_R   0.424488 0.761640 0.465682 0.053905
C28   C     C_R   0.425514 0.848938 0.464880 -0.192967
C29   C     C_R   0.525950 0.893504 0.500426 0.121625
C30   C     C_R   0.623650 0.848502 0.539795 -0.105376
C31   C     C_R   0.611390 0.759499 0.550093 0.111113
C32   C     C_R   0.520545 0.142455 0.546488 -0.137912
C33   C     C_R   0.549044 0.229837 0.544321 0.217831
C34   C     C_R   0.450595 0.109008 0.481205 0.193831
N4    N     N_2   0.534795 0.982939 0.496397 -0.196823
N5    N     N_2   0.436748 0.020273 0.474926 -0.109248
N6    N     N_R   0.484690 0.283070 0.490290 -0.105295
C35   C     C_R   0.406149 0.251514 0.432075 -0.185187
C36   C     C_R   0.389938 0.164994 0.424254 -0.125266
H5    H     H_    0.356248 0.294392 0.390600 0.158269
H6    H     H_    0.352097 0.882536 0.431445 0.236012
C37   C     C_2   0.896675 0.665253 0.462001 0.480525
H7    H     H_    0.932558 0.718665 0.493124 0.118211
O9    O     O_2   0.821154 0.677031 0.405410 -0.536492
C38   C     C_2   0.491096 0.322849 0.751513 0.416347
H8    H     H_    0.571691 0.286951 0.770435 0.024294
O10   O     O_2   0.410390 0.294427 0.705517 -0.528582
C39   C     C_3   0.297933 0.586694 0.909792 -0.364157
C40   C     C_3   0.159759 0.560820 0.889690 -0.403331
C41   C     C_3   0.069689 0.620701 0.921094 -0.832351
H9    H     H_    0.082580 0.622537 0.987606 0.267246
H10   H     H_    0.087011 0.684271 0.892001 0.264355
H11   H     H_    0.970739 0.599595 0.906634 0.256904
H12   H     H_    0.142890 0.558862 0.823577 0.226491
H13   H     H_    0.138275 0.497197 0.917705 0.233495
H14   H     H_    0.310629 0.578890 0.976403 0.229839
H15   H     H_    0.316762 0.654024 0.894499 0.228753
C42   C     C_2   0.471316 0.680132 0.085549 0.389997
H16   H     H_    0.417384 0.724305 0.114372 0.075925
O11   O     O_2   0.501978 0.696808 0.015983 -0.575404
C43   C     C_3   0.380838 0.630952 0.743661 -0.450929
C44   C     C_3   0.484504 0.695444 0.766909 -0.299170
C45   C     C_3   0.453980 0.782793 0.732403 -0.835765
H17   H     H_    0.432953 0.783550 0.666424 0.252282
H18   H     H_    0.370821 0.804159 0.762151 0.254376
H19   H     H_    0.535771 0.826638 0.743475 0.276644
H20   H     H_    0.497275 0.696262 0.833432 0.253377
H21   H     H_    0.575206 0.677763 0.744376 0.250168
H22   H     H_    0.369313 0.633257 0.678185 0.231113
H23   H     H_    0.288277 0.650439 0.761373 0.206391
C46   C     C_3   0.648744 0.262853 0.602694 -0.331094
C47   C     C_3   0.781760 0.240635 0.582592 -0.393132
C48   C     C_3   0.875893 0.257166 0.652039 -0.777174
H24   H     H_    0.887734 0.325046 0.659379 0.254606
H25   H     H_    0.843553 0.224630 0.709317 0.272911
H26   H     H_    0.968260 0.233001 0.639190 0.257601
H27   H     H_    0.784871 0.174466 0.569084 0.259341
H28   H     H_    0.810393 0.279235 0.528500 0.241681
H29   H     H_    0.649125 0.330324 0.604875 0.238202
H30   H     H_    0.628248 0.236373 0.663701 0.227523
C49   C     C_2   0.545307 0.086103 0.620514 0.390551
H31   H     H_    0.475633 0.036856 0.637085 0.094234
O12   O     O_2   0.642913 0.090741 0.661518 -0.599388
C50   C     C_2   0.739475 0.896181 0.566223 0.527650
H32   H     H_    0.732852 0.956780 0.589512 0.095517
O13   O     O_2   0.843875 0.870345 0.557699 -0.559739
C51   C     C_2   0.694659 0.713290 0.609771 0.373716
H33   H     H_    0.696497 0.646826 0.612985 0.121266
O14   O     O_2   0.756669 0.748677 0.661564 -0.593677
C52   C     C_2   0.307333 0.136554 0.356571 0.407361
H34   H     H_    0.261546 0.182074 0.315397 0.053102
O15   O     O_2   0.288969 0.062894 0.345538 -0.533807
C53   C     C_2   0.325770 0.721612 0.413993 0.405935
H35   H     H_    0.339749 0.664041 0.388047 0.131833
O16   O     O_2   0.226363 0.754891 0.396973 -0.593198
C54   C     C_3   0.872957 0.241776 0.334296 -0.407501
C55   C     C_3   0.747081 0.202167 0.363789 -0.367472
C56   C     C_3   0.687649 0.143520 0.303488 -0.771024
H36   H     H_    0.666301 0.178442 0.244806 0.283489
H37   H     H_    0.752446 0.093442 0.294025 0.266234
H38   H     H_    0.598325 0.114372 0.327060 0.260614
H39   H     H_    0.763196 0.166172 0.422556 0.224812
H40   H     H_    0.679932 0.251194 0.372293 0.231946
H41   H     H_    0.858442 0.275207 0.273984 0.245044
H42   H     H_    0.939101 0.191695 0.327176 0.209218
C57   C     C_2   0.169575 0.306799 0.562748 0.480740
H43   H     H_    0.211687 0.247089 0.560664 0.063480
O17   O     O_2   0.184645 0.344165 0.623943 -0.542602
C58   C     C_3   0.117010 0.636989 0.574367 -0.424027
C59   C     C_3   0.034532 0.649258 0.646185 -0.394272
C60   C     C_3   0.062557 0.734398 0.679096 -0.749206
H44   H     H_    0.164982 0.745297 0.692002 0.233523
H45   H     H_    0.030885 0.784115 0.634233 0.308540
H46   H     H_    0.011439 0.738205 0.735595 0.271248
H47   H     H_    0.932813 0.643594 0.629061 0.237679
H48   H     H_    0.052481 0.599741 0.694711 0.218435
H49   H     H_    0.208241 0.619584 0.601534 0.212340
H50   H     H_    0.133372 0.695977 0.536784 0.240734
C61   C     C_2   0.675715 0.403305 0.104830 0.373710
H51   H     H_    0.703579 0.413407 0.042626 0.079186
O18   O     O_2   0.704116 0.339096 0.143324 -0.606599
C62   C     C_3   0.499067 0.316510 0.925738 -0.419435
C63   C     C_3   0.381401 0.257267 0.929134 -0.326684
C64   C     C_3   0.406863 0.177723 0.981516 -0.822337
H52   H     H_    0.483729 0.144420 0.956357 0.268183
H53   H     H_    0.434142 0.192538 0.044265 0.269969
H54   H     H_    0.320197 0.136213 0.982946 0.255269
H55   H     H_    0.302923 0.288704 0.954824 0.229167
H56   H     H_    0.350878 0.240246 0.867614 0.251103
H57   H     H_    0.580333 0.285609 0.903210 0.189854
H58   H     H_    0.527934 0.329328 0.988475 0.228136

loop_
_geom_bond_atom_site_label_1
_geom_bond_atom_site_label_2
_geom_bond_distance
_ccdc_geom_bond_type
C43   H23   1.104089 S    
C35   C36   1.412676 A    
C46   H29   1.091571 S    
C58   C59   1.538358 S    
C30   C50   1.485987 S    
N6    C35   1.362440 A    
Zn2   N3    2.005092 S    
N3    C27   1.386132 A    
C60   H44   1.107711 S    
C51   O14   1.220590 D    
C55   C56   1.525547 S    
C6    C54   1.508037 S    
C57   H43   1.085614 S    
C28   C29   1.392182 A    
N4    N5    1.255116 D    
Zn1   O7    1.983832 S    
C62   H57   1.108946 S    
C17   C18   1.397918 A    
C16   C17   1.416849 A    
C23   N2    1.407741 S    
C34   C36   1.417735 A    
O1    C1    1.310231 A    
C45   H19   1.110317 S    
C13   C58   1.521982 S    
C44   H20   1.109523 S    
O7    C4    1.285529 A    
C57   O17   1.221215 D    
C56   H36   1.110872 S    
C31   C51   1.485973 S    
C29   N4    1.437922 S    
C39   H14   1.108570 S    
C5    C6    1.400178 A    
C7    H2    1.084109 S    
C47   H27   1.109322 S    
C32   C33   1.424955 A    
O5    C3    1.289436 A    
C59   H47   1.106738 S    
C8    C57   1.483480 S    
C38   O10   1.220131 D    
C32   C49   1.497433 S    
C53   H35   1.071833 S    
C5    C10   1.407417 A    
C40   H13   1.112026 S    
C54   H42   1.112551 S    
C19   C20   1.412769 A    
C32   C34   1.414844 A    
C52   H34   1.085817 S    
C16   C43   1.524302 S    
N3    C31   1.380472 A    
C46   H30   1.096453 S    
C33   C46   1.510931 S    
C43   H22   1.088336 S    
C25   H4    1.084377 S    
C40   C41   1.525588 S    
C37   H7    1.082719 S    
C50   O13   1.220673 D    
C22   C24   1.398372 A    
C9    C10   1.397831 A    
C52   O15   1.220582 D    
O3    Zn1   1.979500 S    
C51   H33   1.070753 S    
C9    C14   1.431784 A    
C21   C22   1.392403 A    
C28   H6    1.083300 S    
C62   H58   1.106324 S    
C37   O9    1.221601 D    
C41   H9    1.110863 S    
C50   H32   1.084225 S    
C12   C13   1.394772 A    
C61   O18   1.221201 D    
C64   H54   1.110365 S    
C63   H56   1.109956 S    
C43   C44   1.533999 S    
C61   H51   1.085197 S    
C56   H37   1.110874 S    
C13   C14   1.418893 A    
C4    C14   1.469954 S    
C39   H15   1.107165 S    
C22   H3    1.083694 S    
C34   N5    1.442735 S    
C47   H28   1.099318 S    
C42   H16   1.085643 S    
C36   C52   1.483929 S    
C38   H8    1.080687 S    
C26   C42   1.483028 S    
C48   H25   1.110769 S    
C30   C31   1.433378 A    
C18   C19   1.394678 A    
Zn2   O8    1.979499 S    
C56   H38   1.109698 S    
C8    C9    1.428132 A    
C6    C7    1.400506 A    
C33   N6    1.380894 A    
C63   C64   1.526048 S    
C42   O11   1.220851 D    
C3    C24   1.454135 S    
C40   H12   1.108770 S    
C17   C39   1.530625 S    
C45   H18   1.110582 S    
C25   C26   1.396208 A    
O8    C4    1.303070 A    
C58   H50   1.109129 S    
C39   C40   1.535407 S    
C49   O12   1.219486 D    
C35   H5    1.082408 S    
O3    C2    1.300767 A    
C19   C62   1.527966 S    
C59   C60   1.526836 S    
C60   H46   1.110251 S    
C44   H21   1.105042 S    
C27   C28   1.406936 A    
C48   H26   1.107571 S    
C54   C55   1.534438 S    
Zn1   O5    1.936600 S    
C29   C30   1.408004 A    
N1    N2    1.248110 D    
C15   C20   1.432809 A    
O1    Zn1   1.975765 S    
O2    Zn2   1.936602 S    
C59   H48   1.110322 S    
C45   H17   1.109633 S    
O6    C3    1.291133 A    
C60   H45   1.109560 S    
C63   H55   1.112045 S    
O4    Zn2   1.983831 S    
C62   C63   1.534452 S    
C18   N1    1.407548 S    
C41   H11   1.110468 S    
C64   H53   1.111058 S    
O2    C1    1.298323 A    
C20   C38   1.469992 S    
C64   H52   1.110890 S    
C24   C25   1.398207 A    
C21   C61   1.483228 S    
C48   H24   1.111112 S    
O4    C2    1.283965 A    
C55   H39   1.110557 S    
C12   C37   1.493949 S    
C2    C11   1.459285 S    
C1    C15   1.515160 S    
C21   C23   1.412431 A    
C7    C8    1.404342 A    
C23   C26   1.412197 A    
C53   O16   1.221792 D    
C11   C12   1.402780 A    
C44   C45   1.526902 S    
C54   H41   1.111576 S    
C46   C47   1.529910 S    
C58   H49   1.092939 S    
Zn2   O6    1.975764 S    
C49   H31   1.085792 S    
C15   C16   1.444998 A    
C10   C11   1.393756 A    
Zn1   N6    2.005233 S    
C41   H10   1.110955 S    
C47   C48   1.525992 S    
C55   H40   1.111354 S    
C5    H1    1.083080 S    
C27   C53   1.481675 S    
