data_mof_unit_31616.cif
_audit_creation_date              2013-03-05T15:43:30-0500
_audit_creation_method            fapswitch 2.2
_symmetry_space_group_name_H-M    P1
_symmetry_Int_Tables_number       1
_space_group_crystal_system       triclinic
_cell_length_a                    10.818522
_cell_length_b                    10.93891
_cell_length_c                    9.758512
_cell_angle_alpha                 90.554018
_cell_angle_beta                  90.096973
_cell_angle_gamma                 90.828926
_cell_volume                      1154.67323074

loop_
_atom_site_label
_atom_site_type_symbol
_atom_site_description
_atom_site_fract_x
_atom_site_fract_y
_atom_site_fract_z
_atom_type_partial_charge
O1    O     O_R   0.500020 0.321960 0.617040 -0.622434
O2    O     O_R   0.499980 0.321920 0.382900 -0.557184
C1    C     C_R   0.496419 0.265473 0.498939 0.820960
O3    O     O_R   0.317710 0.500000 0.617070 -0.540651
O4    O     O_R   0.317670 0.499960 0.382930 -0.621216
C2    C     C_R   0.260716 0.494532 0.500335 0.807642
Cu1   Cu    Cu3+1 0.500030 0.500020 0.638630 1.050453
Cu2   Cu    Cu3+1 0.499970 0.499980 0.361370 1.094171
O5    O     O_R   0.500020 0.678080 0.617100 -0.540870
O6    O     O_R   0.499980 0.678040 0.382960 -0.536360
O7    O     O_R   0.682330 0.500040 0.617070 -0.535339
O8    O     O_R   0.682290 0.500000 0.382930 -0.483767
C3    C     C_R   0.502565 0.734554 0.500930 0.819115
C4    C     C_R   0.740204 0.494680 0.500195 0.865654
C5    C     C_3   0.072493 0.444235 0.642937 0.150747
H1    H     H_    0.109581 0.350885 0.659114 0.115115
C6    C     C_3   0.929218 0.430766 0.635450 0.141739
H2    H     H_    0.906418 0.331451 0.624450 0.085731
H3    H     H_    0.124140 0.690478 0.539226 0.204756
H4    H     H_    0.919038 0.670419 0.595221 0.199095
C7    C     C_3   0.077171 0.620916 0.472800 -0.491283
C8    C     C_3   0.073768 0.403761 0.385480 0.155917
C9    C     C_3   0.123641 0.490841 0.501954 -0.156114
H5    H     H_    0.110293 0.438389 0.285893 0.168411
C10   C     C_3   0.879412 0.492885 0.500718 -0.232644
C11   C     C_3   0.935282 0.626655 0.493657 0.218946
C12   C     C_3   0.929864 0.408951 0.381604 0.062557
H6    H     H_    0.893317 0.314630 0.400216 0.139489
H7    H     H_    0.104664 0.643975 0.366417 0.237911
C13   C     C_2   0.479748 0.931022 0.397266 -0.404637
C14   C     C_2   0.524477 0.865929 0.502174 0.210640
H8    H     H_    0.423385 0.885501 0.319286 0.166516
C15   C     C_2   0.499048 0.064081 0.383869 0.500159
C16   C     C_2   0.482669 0.133369 0.497197 -0.313303
H9    H     H_    0.457144 0.091620 0.593889 0.139248
C17   C     C_2   0.493215 0.401593 0.921262 -0.042285
N1    N     N_2   0.498630 0.498660 0.846910 -0.231433
H10   H     H_    0.498394 0.312643 0.872150 0.134997
H11   H     H_    0.468652 0.578776 0.890227 0.270453
C18   C     C_2   0.476463 0.404368 0.074334 0.023418
N2    N     N_2   0.498590 0.498630 0.153040 -0.052476
H12   H     H_    0.443346 0.320723 0.121027 0.130352
N3    N     N_R   0.113333 0.520629 0.760845 0.168895
O9    O     O_R   0.076914 0.632688 0.776748 -0.319061
O10   O     O_R   0.180163 0.472534 0.856840 -0.379171
N4    N     N_R   0.885424 0.442402 0.245633 0.134094
O11   O     O_R   0.929958 0.537250 0.182182 -0.298436
O12   O     O_R   0.807482 0.369613 0.182655 -0.416887
N5    N     N_R   0.875567 0.705916 0.392323 0.175458
O13   O     O_R   0.763800 0.742438 0.415054 -0.356169
O14   O     O_R   0.940318 0.764851 0.301326 -0.331158
N6    N     N_R   0.606201 0.918286 0.604876 0.121878
O15   O     O_R   0.597881 0.883768 0.731787 -0.351163
O16   O     O_R   0.699032 0.987832 0.569056 -0.373400
O17   O     O_3   0.520114 0.120064 0.257406 -0.610972
C19   C     C_3   0.580184 0.044549 0.160130 0.080051
H13   H     H_    0.572754 0.089723 0.058991 0.155726
H14   H     H_    0.533520 0.954448 0.145573 0.190545
C20   C     C_3   0.718293 0.032034 0.192883 -0.395370
H15   H     H_    0.766079 0.120982 0.174810 0.235500
H16   H     H_    0.731880 0.007850 0.301917 0.283776
C21   C     C_3   0.777051 0.933209 0.103959 -0.663609
H17   H     H_    0.752507 0.944696 0.994543 0.255053
H18   H     H_    0.744444 0.841476 0.137046 0.334401
H19   H     H_    0.879218 0.938552 0.114468 0.262825
N7    N     N_R   0.570786 0.593240 0.099880 0.249051
O18   O     O_R   0.532809 0.705178 0.109486 -0.373547
O19   O     O_R   0.682278 0.572927 0.056461 -0.278071
O20   O     O_3   0.873045 0.477218 0.755982 -0.528161
C22   C     C_3   0.878781 0.391239 0.863547 0.230742
H20   H     H_    0.865474 0.443764 0.958753 0.261935
H21   H     H_    0.971671 0.349851 0.873781 0.138960
C23   C     C_3   0.776173 0.292322 0.852666 -0.433830
H22   H     H_    0.717962 0.295314 0.946058 0.235784
H23   H     H_    0.715492 0.308771 0.763264 0.259923
C24   C     C_3   0.828202 0.163803 0.840217 -0.841537
H24   H     H_    0.889676 0.155465 0.749851 0.270434
H25   H     H_    0.750590 0.097260 0.827770 0.298287
H26   H     H_    0.881099 0.141420 0.934052 0.251621
O21   O     O_3   0.110030 0.281435 0.411873 -0.645038
C25   C     C_3   0.178937 0.230070 0.302926 0.077783
H27   H     H_    0.229015 0.150577 0.344454 0.176345
H28   H     H_    0.251128 0.294176 0.263864 0.153962
C26   C     C_3   0.094073 0.184517 0.186577 -0.372838
H29   H     H_    0.023625 0.119984 0.228231 0.243518
H30   H     H_    0.045497 0.262690 0.140151 0.238021
C27   C     C_3   0.167843 0.119973 0.074839 -0.853668
H31   H     H_    0.236940 0.184016 0.029807 0.255244
H32   H     H_    0.104353 0.087367 0.992355 0.261444
H33   H     H_    0.216306 0.039987 0.117622 0.268631

loop_
_geom_bond_atom_site_label_1
_geom_bond_atom_site_label_2
_geom_bond_distance
_ccdc_geom_bond_type
C15   O17   1.400530 S    
N7    O19   1.300553 A    
C27   H31   1.111125 S    
C6    O20   1.418022 S    
C23   H22   1.109149 S    
C26   C27   1.526028 S    
C14   N6    1.444100 S    
O17   C19   1.417135 S    
C25   H27   1.110674 S    
Cu1   Cu2   2.705640 S    
Cu1   O7    1.983757 S    
C17   N1    1.292495 D    
H3    C7    1.111561 S    
C24   H25   1.108991 S    
O4    C2    1.303247 A    
O7    C4    1.303242 A    
C5    H1    1.115081 S    
C19   H13   1.111332 S    
C5    C6    1.556410 S    
C16   H9    1.086610 S    
O5    C3    1.296414 A    
C21   H18   1.109970 S    
N5    O14   1.301911 A    
C24   H26   1.110200 S    
C22   H20   1.098432 S    
C21   H19   1.110514 S    
C18   H12   1.082731 S    
N7    O18   1.299767 A    
C20   H15   1.110929 S    
C23   H23   1.108603 S    
O3    Cu1   1.983265 S    
C25   H28   1.112362 S    
C7    C11   1.550897 S    
N6    O16   1.301448 A    
C15   C16   1.348052 D    
C24   H24   1.109256 S    
N4    O12   1.300791 A    
C20   H16   1.108937 S    
C17   C18   1.505080 S    
C26   H29   1.111498 S    
O3    C2    1.294869 A    
C11   N5    1.475669 S    
C1    C16   1.450500 S    
C10   C11   1.577286 S    
C7    H7    1.110750 S    
O1    C1    1.302664 A    
N3    O9    1.300924 A    
C21   H17   1.108586 S    
Cu2   O8    1.983266 S    
C22   C23   1.541742 S    
C6    H2    1.114683 S    
Cu1   N1    2.032783 S    
Cu2   N2    2.032930 S    
N3    O10   1.302042 A    
C12   N4    1.462175 S    
C18   N2    1.298981 D    
O8    C4    1.305890 A    
C8    C12   1.559086 S    
C7    C9    1.544778 S    
C23   C24   1.525730 S    
C8    H5    1.117207 S    
C25   C26   1.533831 S    
N6    O15   1.301108 A    
Cu1   O5    1.961102 S    
N4    O11   1.300372 A    
C20   C21   1.526224 S    
C13   C15   1.474513 S    
O1    Cu1   1.957116 S    
C3    C14   1.453068 S    
O2    Cu2   1.961102 S    
C26   H30   1.110117 S    
O21   C25   1.415983 S    
O6    C3    1.301490 A    
O4    Cu2   1.983757 S    
N2    N7    1.392338 S    
C10   C12   1.577350 S    
C19   C20   1.535735 S    
C6    C10   1.583098 S    
C17   H10   1.082697 S    
O2    C1    1.295374 A    
C8    O21   1.425585 S    
N1    H11   1.026374 S    
C13   H8    1.086814 S    
C13   C14   1.345956 D    
H4    C11   1.111856 S    
C2    C9    1.483024 S    
C5    C9    1.570628 S    
C19   H14   1.108649 S    
C4    C10   1.506439 S    
O20   C22   1.418021 S    
C5    N3    1.478666 S    
Cu2   O6    1.957116 S    
N5    O13   1.297705 A    
C27   H33   1.111012 S    
C12   H6    1.116209 S    
C27   H32   1.110135 S    
C8    C9    1.566037 S    
C22   H21   1.112902 S    
