data_mof_unit_23132.cif
_audit_creation_date              2012-12-10T17:03:46-0500
_audit_creation_method            fapswitch 2.2
_symmetry_space_group_name_H-M    P1
_symmetry_Int_Tables_number       1
_space_group_crystal_system       triclinic
_cell_length_a                    10.059315
_cell_length_b                    10.697957
_cell_length_c                    13.046962
_cell_angle_alpha                 89.376006
_cell_angle_beta                  71.913163
_cell_angle_gamma                 91.348996
_cell_volume                      1334.04513308

loop_
_atom_site_label
_atom_site_type_symbol
_atom_type_description
_atom_site_fract_x
_atom_site_fract_y
_atom_site_fract_z
_atom_type_partial_charge
C1    C     C_R   0.502770 0.737411 0.497417 0.991818
C2    C     C_R   0.379878 0.434837 0.814694 -0.090897
C3    C     C_2   0.622367 0.071370 0.450812 -0.232602
C4    C     C_R   0.424165 0.482028 0.702278 0.891375
C5    C     C_2   0.502972 0.132480 0.474446 -0.264922
C6    C     C_2   0.620512 0.937699 0.435360 -0.008738
C7    C     C_2   0.508578 0.870149 0.496450 -0.312369
C8    C     C_2   0.107121 0.476797 0.416225 -0.086749
C9    C     C_2   0.956458 0.451920 0.425340 -0.052047
C10   C     C_R   0.500605 0.262932 0.494240 0.980507
C11   C     C_R   0.576835 0.500501 0.295477 0.924982
C12   C     C_R   0.440341 0.398952 0.978185 0.070206
C13   C     C_R   0.794350 0.459996 0.004076 -0.163606
C14   C     C_R   0.620802 0.483269 0.178450 -0.098999
C15   C     C_R   0.237437 0.429613 0.874219 -0.135230
C16   C     C_R   0.196243 0.397127 0.983183 -0.081330
C17   C     C_R   0.295969 0.388972 0.036746 -0.161607
C18   C     C_2   0.741140 0.886092 0.351172 0.496168
C19   C     C_2   0.868562 0.338068 0.792263 0.371022
C20   C     C_2   0.632348 0.269302 0.717224 0.492869
C21   C     C_R   0.479091 0.397073 0.865381 0.084510
C22   C     C_R   0.547767 0.416584 0.025817 0.053759
C23   C     C_R   0.690214 0.415821 0.960944 0.117944
C24   C     C_R   0.723693 0.372417 0.854221 -0.098879
C25   C     C_R   0.614518 0.355591 0.808673 -0.109996
C26   C     C_R   0.516601 0.446712 0.134042 -0.270847
C27   C     C_R   0.760516 0.496338 0.111297 0.150883
H1    H     H_    0.405366 0.087240 0.473774 0.151887
H2    H     H_    0.086582 0.383884 0.027209 0.170859
H3    H     H_    0.722103 0.119591 0.440856 0.163014
H4    H     H_    0.841537 0.935994 0.327908 0.056935
H5    H     H_    0.907350 0.354375 0.705848 0.043105
H6    H     H_    0.733182 0.259018 0.656745 0.044702
H7    H     H_    0.420864 0.912786 0.555052 0.151594
H8    H     H_    0.184618 0.468731 0.337723 0.151775
H9    H     H_    0.076121 0.480532 0.573099 0.187972
H10   H     H_    0.934018 0.394128 0.364620 0.135789
H11   H     H_    0.901856 0.471757 0.953711 0.172980
H12   H     H_    0.409559 0.445532 0.184824 0.164534
H13   H     H_    0.158218 0.449383 0.836496 0.183113
H14   H     H_    0.257583 0.371831 0.122711 0.127733
I1    I     I_    0.924772 0.580287 0.159791 -0.330439
I2    I     I_    0.879266 0.656426 0.585294 -0.273925
N1    N     N_2   0.148270 0.498670 0.498870 -0.176394
N2    N     N_2   0.852610 0.498640 0.498840 -0.053700
O1    O     O_R   0.386950 0.680940 0.500020 -0.598796
O2    O     O_2   0.943696 0.286707 0.836541 -0.564574
O3    O     O_2   0.533836 0.203894 0.711546 -0.576055
O4    O     O_R   0.613110 0.680900 0.499980 -0.548682
O5    O     O_R   0.330780 0.500000 0.653640 -0.615043
O6    O     O_R   0.556930 0.499960 0.653610 -0.610932
O7    O     O_R   0.386890 0.319100 0.500020 -0.624643
O8    O     O_R   0.613050 0.319060 0.499980 -0.634553
O9    O     O_R   0.443070 0.500040 0.346390 -0.636704
O10   O     O_R   0.669220 0.500000 0.346360 -0.573878
O11   O     O_2   0.727662 0.792367 0.302580 -0.541151
Zn1   Zn    Zn3+2 0.349000 0.500030 0.500020 0.977481
Zn2   Zn    Zn3+2 0.651000 0.499970 0.499980 1.018772

loop_
_geom_bond_atom_site_label_1
_geom_bond_atom_site_label_2
_ccdc_geom_bond_type
C12   C17   A    
C3    H3    S    
C2    C4    S    
C23   C24   A    
C9    N2    D    
C6    C7    D    
C14   C27   A    
C5    H1    S    
C26   H12   S    
C18   O11   D    
N1    Zn1   S    
O8    Zn2   S    
C3    C6    S    
C10   O7    A    
C2    C21   A    
C9    H10   S    
C19   C24   S    
C5    C10   S    
O6    Zn2   S    
C14   C26   A    
C2    C15   A    
I2    N2    S    
C27   I1    S    
C13   H11   S    
C20   O3    D    
C11   O9    A    
C6    C18   S    
C20   H6    S    
C11   C14   S    
C17   H14   S    
O1    Zn1   S    
C22   C26   A    
C1    O1    A    
C7    H7    S    
C19   O2    D    
C15   H13   S    
H9    N1    S    
C16   C17   A    
O7    Zn1   S    
C19   H5    S    
C4    O6    A    
C15   C16   A    
C12   C22   A    
C11   O10   A    
C24   C25   A    
C13   C23   A    
C20   C25   S    
O10   Zn2   S    
N2    Zn2   S    
C10   O8    A    
C21   C25   A    
C22   C23   A    
C13   C27   A    
C18   H4    S    
C16   H2    S    
C1    C7    S    
O5    Zn1   S    
C1    O4    A    
C12   C21   A    
C8    H8    S    
O4    Zn2   S    
C8    N1    D    
C4    O5    A    
C8    C9    S    
C3    C5    D    
O9    Zn1   S    
