data_mof_unit_19579.cif
_audit_creation_date              2012-12-10T18:28:21-0500
_audit_creation_method            fapswitch 2.2
_symmetry_space_group_name_H-M    P1
_symmetry_Int_Tables_number       1
_space_group_crystal_system       triclinic
_cell_length_a                    23.385229
_cell_length_b                    19.997775
_cell_length_c                    14.939375
_cell_angle_alpha                 90.00375
_cell_angle_beta                  100.170514
_cell_angle_gamma                 89.997582
_cell_volume                      6876.65616088

loop_
_atom_site_label
_atom_site_type_symbol
_atom_type_description
_atom_site_fract_x
_atom_site_fract_y
_atom_site_fract_z
_atom_type_partial_charge
C1    C     C_R   0.573992 0.089541 0.553854 0.857700
C2    C     C_R   0.764248 0.800019 0.348701 -0.245829
C3    C     C_R   0.752063 0.203616 0.521686 0.094048
C4    C     C_R   0.215790 0.263416 0.471514 0.095590
C5    C     C_R   0.747848 0.703503 0.478184 0.094068
C6    C     C_R   0.784078 0.263556 0.528272 0.095615
C7    C     C_R   0.252084 0.703590 0.521716 0.094057
C8    C     C_R   0.231373 0.151075 0.531665 -0.239538
C9    C     C_R   0.722932 0.809764 0.403230 -0.240727
C10   C     C_R   0.768579 0.151154 0.468281 -0.239526
C11   C     C_R   0.276907 0.809930 0.596523 -0.240647
C12   C     C_R   0.731379 0.651078 0.531682 -0.239536
C13   C     C_R   0.812985 0.159305 0.418762 -0.247922
C14   C     C_R   0.222935 0.309769 0.403232 -0.240732
C15   C     C_R   0.268590 0.651136 0.468290 -0.239526
C16   C     C_R   0.776858 0.309981 0.596441 -0.240631
C17   C     C_3   0.447216 0.187415 0.297195 -0.402877
C18   C     C_3   0.501013 0.210401 0.364712 -0.329305
C19   C     C_3   0.556058 0.205225 0.323355 -0.838902
C20   C     C_3   0.519209 0.795537 0.643296 -0.398942
C21   C     C_3   0.520230 0.818978 0.741494 -0.309320
C22   C     C_3   0.458759 0.823954 0.762257 -0.855058
C23   C     C_3   0.552825 0.187339 0.702956 -0.402688
C24   C     C_R   0.235590 0.800197 0.651047 -0.245913
C25   C     C_3   0.498967 0.210323 0.635571 -0.329262
C26   C     C_3   0.443971 0.205037 0.677035 -0.838897
C27   C     C_3   0.480827 0.795506 0.356827 -0.398971
C28   C     C_3   0.479859 0.818911 0.258632 -0.309275
C29   C     C_3   0.541352 0.823895 0.237961 -0.855075
C30   C     C_3   0.947195 0.687390 0.297153 -0.402857
C31   C     C_3   0.001001 0.710385 0.364645 -0.329302
C32   C     C_3   0.056038 0.705191 0.323270 -0.838892
C33   C     C_3   0.019206 0.295536 0.643289 -0.398948
C34   C     C_3   0.020229 0.318974 0.741488 -0.309322
C35   C     C_R   0.686991 0.659257 0.581236 -0.247915
C36   C     C_3   0.958758 0.323951 0.762254 -0.855047
C37   C     C_3   0.052810 0.687367 0.702909 -0.402781
C38   C     C_3   0.998964 0.710338 0.635486 -0.329274
C39   C     C_3   0.943958 0.705086 0.676928 -0.838882
C40   C     C_3   0.980836 0.295498 0.356861 -0.398983
C41   C     C_3   0.979889 0.318898 0.258668 -0.309269
C42   C     C_3   0.041391 0.323887 0.238036 -0.855065
C43   C     C_3   0.596751 0.675311 0.694977 -0.443423
C44   C     C_3   0.643027 0.670291 0.781625 -0.335732
C45   C     C_3   0.630486 0.612028 0.841254 -0.902172
C46   C     C_R   0.264255 0.300028 0.348710 -0.245826
C47   C     C_3   0.346822 0.278232 0.224644 -0.431447
C48   C     C_3   0.381851 0.343204 0.244500 -0.340861
C49   C     C_3   0.379008 0.385315 0.158685 -0.896257
C50   C     C_3   0.403301 0.675271 0.305136 -0.443429
C51   C     C_3   0.357064 0.670203 0.218446 -0.335742
C52   C     C_3   0.369665 0.611929 0.158867 -0.902165
C53   C     C_3   0.653107 0.278413 0.775199 -0.431388
C54   C     C_3   0.617963 0.343302 0.755289 -0.340848
C55   C     C_3   0.621388 0.385884 0.840801 -0.896438
C56   C     C_3   0.096743 0.175305 0.694959 -0.443427
C57   C     C_R   0.312994 0.659292 0.418766 -0.247922
C58   C     C_3   0.143018 0.170279 0.781608 -0.335734
C59   C     C_3   0.130464 0.112027 0.841245 -0.902166
C60   C     C_3   0.846797 0.778204 0.224612 -0.431453
C61   C     C_3   0.881832 0.843172 0.244446 -0.340868
C62   C     C_3   0.878971 0.885281 0.158625 -0.896206
C63   C     C_3   0.903303 0.175272 0.305145 -0.443429
C64   C     C_3   0.857071 0.170205 0.218449 -0.335740
C65   C     C_3   0.869688 0.111947 0.158856 -0.902163
C66   C     C_3   0.153129 0.778352 0.775250 -0.431429
C67   C     C_3   0.118013 0.843263 0.755382 -0.340852
C68   C     C_R   0.735537 0.300255 0.650959 -0.245973
C69   C     C_3   0.121138 0.885603 0.841057 -0.896314
C70   C     C_R   0.628605 0.007732 0.205952 -0.325149
C71   C     C_R   0.371394 0.007735 0.794048 -0.325146
C72   C     C_R   0.128605 0.507736 0.205953 -0.325145
C73   C     C_R   0.427999 0.908924 0.448119 0.849875
C74   C     C_R   0.871394 0.507735 0.794048 -0.325148
C75   C     C_R   0.607282 0.001111 0.286095 -0.004301
C76   C     C_R   0.392717 0.001111 0.713905 -0.004328
C77   C     C_R   0.107282 0.501113 0.286095 -0.004310
C78   C     C_R   0.892717 0.501111 0.713905 -0.004300
C79   C     C_R   0.509820 0.005431 0.207556 -0.086404
C80   C     C_R   0.490180 0.005435 0.792444 -0.086434
C81   C     C_R   0.009819 0.505430 0.207556 -0.086422
C82   C     C_R   0.990180 0.505435 0.792444 -0.086422
C83   C     C_R   0.528422 0.012911 0.124152 0.001730
C84   C     C_R   0.426007 0.089541 0.446152 0.857681
C85   C     C_R   0.471577 0.012913 0.875849 0.001727
C86   C     C_R   0.028422 0.512911 0.124152 0.001736
C87   C     C_R   0.971577 0.512914 0.875849 0.001721
C88   C     C_R   0.589222 0.013504 0.124417 0.186359
C89   C     C_R   0.410777 0.013506 0.875585 0.186354
C90   C     C_R   0.089222 0.513506 0.124417 0.186357
C91   C     C_R   0.910777 0.513507 0.875585 0.186353
C92   C     C_R   0.488937 0.017715 0.041284 0.078940
C93   C     C_R   0.511062 0.017715 0.958719 0.078960
C94   C     C_R   0.988937 0.517715 0.041284 0.078944
C95   C     C_R   0.571999 0.908919 0.551874 0.849858
C96   C     C_R   0.011062 0.517717 0.958719 0.078958
C97   C     C_R   0.571819 0.021696 0.961756 -0.250799
C98   C     C_R   0.428180 0.021696 0.038247 -0.250799
C99   C     C_R   0.071819 0.521698 0.961756 -0.250801
C100  C     C_R   0.928180 0.521697 0.038247 -0.250798
C101  C     C_R   0.610115 0.019742 0.043510 -0.217729
C102  C     C_R   0.389884 0.019745 0.956493 -0.217714
C103  C     C_R   0.110115 0.519746 0.043510 -0.217729
C104  C     C_R   0.889884 0.519746 0.956493 -0.217713
C105  C     C_R   0.602967 0.845847 0.575851 -0.123862
C106  C     C_R   0.073992 0.589541 0.553852 0.857702
C107  C     C_R   0.384850 0.143461 0.411376 -0.118372
C108  C     C_R   0.397023 0.845863 0.424119 -0.123790
C109  C     C_R   0.615133 0.143480 0.588626 -0.118446
C110  C     C_R   0.102966 0.345846 0.575849 -0.123862
C111  C     C_R   0.884846 0.643456 0.411371 -0.118366
C112  C     C_R   0.897019 0.345870 0.424107 -0.123770
C113  C     C_R   0.115136 0.643477 0.588621 -0.118411
C114  C     C_R   0.612027 0.730341 0.632013 0.083027
C115  C     C_R   0.347498 0.236903 0.310857 0.073804
C116  C     C_R   0.387985 0.730337 0.368025 0.083043
C117  C     C_R   0.927999 0.408925 0.448118 0.849877
C118  C     C_R   0.652429 0.237010 0.689039 0.073820
C119  C     C_R   0.112022 0.230337 0.632000 0.083028
C120  C     C_R   0.847483 0.736886 0.310836 0.073803
C121  C     C_R   0.887982 0.230342 0.368026 0.083041
C122  C     C_R   0.152447 0.736983 0.689063 0.073820
C123  C     C_R   0.579992 0.791434 0.619966 0.047811
C124  C     C_R   0.391965 0.188548 0.339591 0.068049
C125  C     C_R   0.420022 0.791426 0.380076 0.047769
C126  C     C_R   0.608020 0.188566 0.660425 0.068098
C127  C     C_R   0.079989 0.291432 0.619958 0.047804
C128  C     C_R   0.926006 0.589539 0.446151 0.857673
C129  C     C_R   0.891952 0.688533 0.339570 0.068056
C130  C     C_R   0.920023 0.291427 0.380082 0.047764
C131  C     C_R   0.108021 0.688566 0.660414 0.068063
C132  C     C_R   0.652446 0.837253 0.538667 -0.301810
C133  C     C_R   0.336421 0.148165 0.452824 -0.318488
C134  C     C_R   0.347503 0.837313 0.461205 -0.301775
C135  C     C_R   0.663539 0.148219 0.547129 -0.318509
C136  C     C_R   0.152446 0.337252 0.538667 -0.301806
C137  C     C_R   0.836422 0.648165 0.452830 -0.318510
C138  C     C_R   0.847486 0.337332 0.461159 -0.301770
C139  C     C_R   0.071999 0.408919 0.551874 0.849854
C140  C     C_R   0.163547 0.648207 0.547136 -0.318499
C141  C     C_R   0.675490 0.774085 0.530431 0.065389
C142  C     C_R   0.294799 0.197717 0.430069 0.062469
C143  C     C_R   0.324445 0.774156 0.469456 0.065402
C144  C     C_R   0.705117 0.197824 0.569806 0.062476
C145  C     C_R   0.175488 0.274084 0.530425 0.065390
C146  C     C_R   0.794798 0.697714 0.430072 0.062463
C147  C     C_R   0.824423 0.274178 0.469416 0.065409
C148  C     C_R   0.205136 0.697800 0.569832 0.062460
C149  C     C_R   0.658433 0.720955 0.582694 0.108125
C150  C     C_R   0.186983 0.159252 0.581217 -0.247917
C151  C     C_R   0.302012 0.244865 0.362054 0.110393
C152  C     C_R   0.341543 0.720989 0.417279 0.108130
C153  C     C_R   0.697865 0.245014 0.637755 0.110312
C154  C     C_R   0.158428 0.220951 0.582682 0.108128
C155  C     C_R   0.802005 0.744855 0.362045 0.110395
C156  C     C_R   0.841531 0.221002 0.417263 0.108131
C157  C     C_R   0.197895 0.744977 0.637802 0.110353
C158  C     C_R   0.715791 0.763415 0.471517 0.095591
C159  C     C_R   0.247845 0.203503 0.478176 0.094067
C160  C     C_R   0.284109 0.763524 0.528323 0.095603
H1    H     H_    0.175743 0.116049 0.617803 0.156435
H2    H     H_    0.408523 0.026888 0.097814 0.136784
H3    H     H_    0.003692 0.246876 0.369532 0.179537
H4    H     H_    0.587412 0.618550 0.861733 0.263218
H5    H     H_    0.631039 0.564032 0.803956 0.260384
H6    H     H_    0.664301 0.610008 0.903540 0.250526
H7    H     H_    0.643468 0.717517 0.821014 0.219193
H8    H     H_    0.687010 0.663322 0.764819 0.226206
H9    H     H_    0.554825 0.683446 0.717458 0.209822
H10   H     H_    0.591081 0.626853 0.658252 0.191572
H11   H     H_    0.397234 0.357019 0.106224 0.264081
H12   H     H_    0.333333 0.399380 0.131161 0.259342
H13   H     H_    0.091476 0.526891 0.902190 0.136767
H14   H     H_    0.404786 0.431744 0.175054 0.248703
H15   H     H_    0.364543 0.373159 0.296372 0.217340
H16   H     H_    0.428026 0.331777 0.272064 0.224545
H17   H     H_    0.362150 0.248465 0.170899 0.190362
H18   H     H_    0.301583 0.289868 0.191765 0.195375
H19   H     H_    0.412746 0.618473 0.138426 0.263203
H20   H     H_    0.369127 0.563945 0.196187 0.260370
H21   H     H_    0.335871 0.609868 0.096557 0.250519
H22   H     H_    0.356622 0.717418 0.179039 0.219214
H23   H     H_    0.313070 0.663219 0.235200 0.226197
H24   H     H_    0.908523 0.526889 0.097815 0.136782
H25   H     H_    0.445243 0.683392 0.282703 0.209840
H26   H     H_    0.408960 0.626832 0.341903 0.191554
H27   H     H_    0.603800 0.357807 0.894095 0.264261
H28   H     H_    0.667139 0.400273 0.867223 0.259137
H29   H     H_    0.595343 0.432128 0.824468 0.248712
H30   H     H_    0.634836 0.372968 0.702719 0.217520
H31   H     H_    0.571695 0.331744 0.728613 0.224472
H32   H     H_    0.637881 0.248683 0.829063 0.190075
H33   H     H_    0.698350 0.290147 0.807957 0.195643
H34   H     H_    0.087393 0.118567 0.861728 0.263210
H35   H     H_    0.333665 0.114425 0.508092 0.171621
H36   H     H_    0.131004 0.064027 0.803954 0.260384
H37   H     H_    0.164280 0.110002 0.903530 0.250518
H38   H     H_    0.143468 0.217510 0.820990 0.219198
H39   H     H_    0.186999 0.163296 0.764803 0.226202
H40   H     H_    0.054816 0.183440 0.717439 0.209830
H41   H     H_    0.091072 0.126848 0.658231 0.191561
H42   H     H_    0.897186 0.856985 0.106153 0.264074
H43   H     H_    0.833288 0.899344 0.131118 0.259322
H44   H     H_    0.904750 0.931709 0.174982 0.248699
H45   H     H_    0.864542 0.873130 0.296332 0.217340
H46   H     H_    0.670769 0.880774 0.511339 0.155981
H47   H     H_    0.928009 0.831742 0.271985 0.224539
H48   H     H_    0.862114 0.748429 0.170866 0.190360
H49   H     H_    0.801557 0.789842 0.191746 0.195382
H50   H     H_    0.912767 0.118514 0.138414 0.263198
H51   H     H_    0.869164 0.063956 0.196163 0.260375
H52   H     H_    0.835894 0.109883 0.096545 0.250519
H53   H     H_    0.856621 0.217427 0.179056 0.219228
H54   H     H_    0.813078 0.163202 0.235196 0.226193
H55   H     H_    0.945248 0.183391 0.282721 0.209847
H56   H     H_    0.908957 0.126834 0.341914 0.191543
H57   H     H_    0.666305 0.114467 0.491872 0.171644
H58   H     H_    0.103259 0.857397 0.893944 0.264167
H59   H     H_    0.166848 0.899866 0.868011 0.259225
H60   H     H_    0.095197 0.931921 0.824724 0.248705
H61   H     H_    0.135088 0.873086 0.703158 0.217415
H62   H     H_    0.071796 0.831747 0.728270 0.224517
H63   H     H_    0.137879 0.748596 0.829069 0.190225
H64   H     H_    0.198370 0.790061 0.808042 0.195513
H65   H     H_    0.329167 0.880859 0.488459 0.155901
H66   H     H_    0.833672 0.614434 0.508109 0.171632
H67   H     H_    0.170770 0.380774 0.511343 0.155979
H68   H     H_    0.166311 0.614457 0.491876 0.171638
H69   H     H_    0.767551 0.838637 0.299398 0.154786
H70   H     H_    0.829146 0.380886 0.488388 0.155876
H71   H     H_    0.249808 0.101562 0.532455 0.141351
H72   H     H_    0.695336 0.853080 0.387930 0.148342
H73   H     H_    0.750170 0.101633 0.467545 0.141359
H74   H     H_    0.304460 0.853284 0.611772 0.148308
H75   H     H_    0.749816 0.601566 0.532476 0.141353
H76   H     H_    0.195340 0.353085 0.387935 0.148341
H77   H     H_    0.250175 0.601618 0.467540 0.141356
H78   H     H_    0.804398 0.353346 0.611673 0.148301
H79   H     H_    0.656420 0.021892 0.043223 0.142107
H80   H     H_    0.824258 0.116075 0.382251 0.156412
H81   H     H_    0.343579 0.021895 0.956780 0.142105
H82   H     H_    0.156420 0.521897 0.043223 0.142108
H83   H     H_    0.843579 0.521896 0.956780 0.142103
H84   H     H_    0.535012 0.003352 0.784915 0.124411
H85   H     H_    0.464988 0.003347 0.215085 0.124426
H86   H     H_    0.035012 0.503352 0.784915 0.124416
H87   H     H_    0.964988 0.503342 0.215083 0.124426
H88   H     H_    0.363151 0.997808 0.649616 0.131476
H89   H     H_    0.636849 0.997808 0.350384 0.131458
H90   H     H_    0.863151 0.497808 0.649616 0.131469
H91   H     H_    0.232237 0.838859 0.700275 0.154874
H92   H     H_    0.136849 0.497812 0.350384 0.131459
H93   H     H_    0.675130 0.008536 0.207646 0.141394
H94   H     H_    0.324869 0.008538 0.792354 0.141388
H95   H     H_    0.175130 0.508541 0.207647 0.141395
H96   H     H_    0.824869 0.508539 0.792354 0.141378
H97   H     H_    0.552516 0.237512 0.262134 0.247444
H98   H     H_    0.594049 0.221845 0.373930 0.250428
H99   H     H_    0.563321 0.152629 0.304186 0.277139
H100  H     H_    0.495117 0.263115 0.384813 0.200980
H101  H     H_    0.507271 0.179773 0.427041 0.215909
H102  H     H_    0.675754 0.616055 0.617828 0.156450
H103  H     H_    0.453540 0.137436 0.268531 0.221671
H104  H     H_    0.444950 0.220469 0.237734 0.195706
H105  H     H_    0.431968 0.858290 0.713517 0.276087
H106  H     H_    0.437967 0.773836 0.757472 0.253200
H107  H     H_    0.460429 0.843624 0.832191 0.247700
H108  H     H_    0.545640 0.783670 0.790347 0.208997
H109  H     H_    0.541446 0.868647 0.752551 0.239334
H110  H     H_    0.491199 0.828896 0.595255 0.214119
H111  H     H_    0.496344 0.746916 0.630692 0.179525
H112  H     H_    0.447532 0.237279 0.738307 0.247405
H113  H     H_    0.267560 0.338648 0.299411 0.154781
H114  H     H_    0.405934 0.221647 0.626543 0.250386
H115  H     H_    0.436772 0.152416 0.696147 0.277171
H116  H     H_    0.504804 0.263064 0.615543 0.200979
H117  H     H_    0.492686 0.179748 0.573186 0.215983
H118  H     H_    0.546565 0.137333 0.731576 0.221626
H119  H     H_    0.555126 0.220334 0.762486 0.195433
H120  H     H_    0.568105 0.858258 0.286712 0.276071
H121  H     H_    0.562161 0.773784 0.242809 0.253225
H122  H     H_    0.539717 0.843537 0.168024 0.247686
H123  H     H_    0.454484 0.783579 0.209769 0.208990
H124  H     H_    0.324259 0.616067 0.382238 0.156423
H125  H     H_    0.458631 0.868571 0.247518 0.239345
H126  H     H_    0.508813 0.828880 0.404879 0.214083
H127  H     H_    0.503689 0.746886 0.369485 0.179536
H128  H     H_    0.052491 0.737468 0.262039 0.247442
H129  H     H_    0.094036 0.721814 0.373831 0.250416
H130  H     H_    0.063293 0.652590 0.304115 0.277143
H131  H     H_    0.995111 0.763104 0.384728 0.200973
H132  H     H_    0.007266 0.679770 0.426987 0.215922
H133  H     H_    0.953513 0.637407 0.268497 0.221662
H134  H     H_    0.944920 0.720434 0.237679 0.195696
H135  H     H_    0.732163 0.338938 0.700151 0.154995
H136  H     H_    0.931968 0.358289 0.713516 0.276095
H137  H     H_    0.937965 0.273834 0.757467 0.253196
H138  H     H_    0.960430 0.343621 0.832189 0.247697
H139  H     H_    0.045638 0.283663 0.790338 0.209002
H140  H     H_    0.041447 0.368642 0.752548 0.239333
H141  H     H_    0.991197 0.328898 0.595251 0.214117
H142  H     H_    0.996339 0.246917 0.630681 0.179523
H143  H     H_    0.947511 0.737354 0.738175 0.247421
H144  H     H_    0.905929 0.721684 0.626411 0.250393
H145  H     H_    0.936749 0.652476 0.696077 0.277151
H146  H     H_    0.591476 0.026888 0.902190 0.136764
H147  H     H_    0.004812 0.763068 0.615421 0.200964
H148  H     H_    0.992689 0.679738 0.573126 0.215973
H149  H     H_    0.046538 0.637371 0.731551 0.221633
H150  H     H_    0.055099 0.720388 0.762412 0.195575
H151  H     H_    0.068129 0.358263 0.286787 0.276081
H152  H     H_    0.062208 0.273780 0.242915 0.253231
H153  H     H_    0.039771 0.343517 0.168095 0.247682
H154  H     H_    0.954528 0.283561 0.209798 0.208989
H155  H     H_    0.958658 0.368556 0.247536 0.239351
H156  H     H_    0.008816 0.328873 0.404919 0.214072
N1    N     N_R   0.549130 1.000000 0.284090 -0.097995
N2    N     N_R   0.450870 0.000000 0.715910 -0.098012
N3    N     N_R   0.049130 0.500000 0.284090 -0.097997
N4    N     N_R   0.950870 0.500000 0.715910 -0.098009
O1    O     O_R   0.541320 0.066090 0.608930 -0.608439
O2    O     O_R   0.427120 0.933890 0.529720 -0.618974
O3    O     O_R   0.427120 0.066110 0.529720 -0.608475
O4    O     O_R   0.572880 0.933890 0.470280 -0.618998
O5    O     O_R   0.072880 0.566110 0.470280 -0.608460
O6    O     O_R   0.927120 0.433890 0.529720 -0.618972
O7    O     O_R   0.927120 0.566110 0.529720 -0.608476
O8    O     O_R   0.072880 0.433890 0.470280 -0.618997
O9    O     O_R   0.458680 0.933910 0.391070 -0.609269
O10   O     O_R   0.458680 0.066090 0.391070 -0.608409
O11   O     O_R   0.541320 0.933910 0.608930 -0.609273
O12   O     O_R   0.041320 0.566090 0.608930 -0.608428
O13   O     O_R   0.958680 0.433910 0.391070 -0.609266
O14   O     O_R   0.958680 0.566090 0.391070 -0.608411
O15   O     O_R   0.041320 0.433910 0.608930 -0.609272
O16   O     O_R   0.572880 0.066110 0.470280 -0.608453
Zn1   Zn    Zn3+2 0.478910 0.000000 0.592580 0.911516
Zn2   Zn    Zn3+2 0.521090 0.000000 0.407420 0.911531
Zn3   Zn    Zn3+2 0.978910 0.500000 0.592580 0.911522
Zn4   Zn    Zn3+2 0.021090 0.500000 0.407420 0.911525

loop_
_geom_bond_atom_site_label_1
_geom_bond_atom_site_label_2
_ccdc_geom_bond_type
C99   C103  A    
C87   C91   A    
C81   H87   S    
C97   H146  S    
C39   H145  S    
C51   H23   S    
C19   H99   S    
C82   C87   A    
C135  H57   S    
C57   C152  A    
C100  C104  A    
C105  C123  A    
C118  C153  A    
C79   N1    A    
C20   C123  S    
C2    H69   S    
C134  C143  A    
C117  O6    A    
C66   C122  S    
C81   C86   A    
C48   H15   S    
C7    C15   A    
C83   C88   A    
C21   C22   S    
C76   H88   S    
C107  C124  A    
C98   H2    S    
C43   H10   S    
C117  O13   A    
C69   H58   S    
C112  C138  A    
C137  C146  A    
C5    C12   A    
C86   C90   A    
C1    O16   A    
C81   N3    A    
C73   C108  S    
C82   N4    A    
C98   C102  A    
C120  C155  A    
C142  C151  A    
C8    C150  A    
C43   C44   S    
C71   H94   S    
C37   C38   S    
C22   H106  S    
C94   C96   A    
O6    Zn3   S    
C66   H64   S    
C78   H90   S    
C72   H95   S    
C71   C76   A    
C111  C137  A    
C26   H114  S    
C150  H1    S    
C28   C29   S    
C10   H73   S    
C53   C118  S    
C24   H91   S    
C19   H97   S    
C30   C129  S    
C15   H77   S    
C27   H126  S    
C30   C31   S    
C9    C158  A    
C4    C14   A    
C53   H32   S    
C6    C16   A    
C36   H136  S    
C34   H140  S    
C20   C21   S    
C5    C158  A    
C115  C151  A    
C8    C159  A    
C30   H133  S    
C56   H40   S    
C96   C99   A    
C40   C41   S    
C121  C156  A    
C109  C135  A    
C69   H60   S    
C110  C136  A    
C121  C130  A    
C3    C6    A    
C143  C160  A    
C53   C54   S    
C133  C142  A    
C72   C77   A    
C128  O14   A    
C55   H29   S    
C35   H102  S    
C25   H116  S    
C44   H8    S    
C26   H115  S    
C31   H131  S    
C33   C127  S    
C84   C107  S    
C33   H141  S    
C67   H61   S    
C85   C93   A    
C29   H122  S    
C63   H56   S    
C45   H6    S    
C32   H129  S    
C46   C151  A    
C16   H78   S    
C111  C129  A    
C58   H39   S    
C140  H68   S    
C82   H86   S    
C106  C113  S    
C120  C129  A    
C134  H65   S    
C64   H53   S    
C138  H70   S    
C68   C153  A    
C23   H119  S    
C24   C157  A    
O11   Zn1   S    
C56   H41   S    
C25   C26   S    
C37   C131  S    
C39   H144  S    
C13   C156  A    
C72   C90   A    
C17   C124  S    
C36   H138  S    
C31   C32   S    
C94   C100  A    
C17   C18   S    
C128  O7    A    
C77   H92   S    
C55   H28   S    
C12   C35   A    
C20   H111  S    
C62   H44   S    
C65   H50   S    
O8    Zn4   S    
C23   C126  S    
C26   H112  S    
C145  C154  A    
N2    Zn1   S    
C116  C125  A    
C56   C119  S    
C38   H148  S    
C114  C123  A    
C50   H26   S    
C93   C97   A    
C122  C131  A    
C132  C141  A    
C54   C55   S    
C135  C144  A    
C54   H30   S    
C66   H63   S    
C32   H128  S    
C49   H12   S    
C95   O4    A    
C104  H83   S    
N3    Zn4   S    
C17   H104  S    
C52   H19   S    
C6    C147  A    
C45   H5    S    
C4    C145  A    
C56   C58   S    
C34   C36   S    
C148  C157  A    
C61   C62   S    
C95   O11   A    
C63   C64   S    
O14   Zn4   S    
C109  C126  A    
C41   H155  S    
C84   O10   A    
C70   C75   A    
C112  C130  A    
C2    C9    A    
C61   H45   S    
C48   H16   S    
C119  C127  A    
C12   H75   S    
C42   H151  S    
C101  H79   S    
C53   H33   S    
C41   C42   S    
C116  C152  A    
C142  C159  A    
C43   H9    S    
C21   H109  S    
C14   C46   A    
C73   O2    A    
C47   C115  S    
C9    H72   S    
C37   H150  S    
C79   H85   S    
C110  C139  S    
C47   H18   S    
N1    Zn2   S    
C43   C114  S    
C112  C117  S    
C8    H71   S    
C4    C159  A    
C106  O12   A    
C68   H135  S    
C103  H82   S    
C18   C19   S    
C62   H42   S    
C65   H52   S    
C21   H108  S    
C1    C109  S    
C73   O9    A    
C22   H107  S    
C23   H118  S    
C58   H38   S    
C146  C155  A    
C60   H49   S    
C18   H100  S    
O12   Zn3   S    
C49   H14   S    
C11   C160  A    
C105  C132  A    
O7    Zn3   S    
C46   H113  S    
C84   O3    A    
C92   C98   A    
C52   H21   S    
C18   H101  S    
O16   Zn2   S    
C85   C89   A    
C60   H48   S    
C7    C160  A    
C58   C59   S    
C51   C52   S    
C60   C61   S    
C44   H7    S    
C74   C91   A    
C108  C134  A    
C80   C85   A    
C99   H13   S    
C133  H35   S    
C50   C51   S    
C147  C156  A    
C61   H47   S    
C48   C49   S    
C136  H67   S    
C119  C154  A    
C20   H110  S    
C44   C45   S    
C30   H134  S    
C40   C130  S    
C115  C124  A    
C69   H59   S    
C3    C144  A    
C1    O1    A    
C59   H36   S    
C64   C65   S    
O4    Zn2   S    
C107  C133  A    
C79   C83   A    
C27   C125  S    
C22   H105  S    
C38   C39   S    
C92   C93   A    
C122  C157  A    
C60   C120  S    
C100  H24   S    
C90   C103  A    
C141  C158  A    
C29   H121  S    
C74   C78   A    
C3    C10   A    
C35   C149  A    
C114  C149  A    
C63   H55   S    
C75   H89   S    
C80   N2    A    
C32   H130  S    
C28   H123  S    
C132  H46   S    
C2    C155  A    
C89   C102  A    
C91   C104  A    
C51   H22   S    
C70   C88   A    
C140  C148  A    
C19   H98   S    
C14   H76   S    
C88   C101  A    
C141  C149  A    
C29   H120  S    
C83   C92   A    
C64   H54   S    
C45   H4    S    
C57   H124  S    
C76   N2    A    
C77   N3    A    
C11   C24   A    
C78   N4    A    
C39   H143  S    
C144  C153  A    
C86   C94   A    
C34   H139  S    
C16   C68   A    
C55   H27   S    
C108  C125  A    
C95   C105  S    
C136  C145  A    
C110  C127  A    
C11   H74   S    
C15   C57   A    
O10   Zn2   S    
C70   H93   S    
C63   C121  S    
C13   H80   S    
C59   H34   S    
C54   H31   S    
C40   H3    S    
C25   H117  S    
C49   H11   S    
C31   H132  S    
O13   Zn4   S    
C27   H127  S    
C80   H84   S    
C67   C69   S    
C17   H103  S    
C67   H62   S    
C52   H20   S    
N4    Zn3   S    
C137  H66   S    
C40   H156  S    
O1    Zn1   S    
C47   C48   S    
C71   C89   A    
C138  C147  A    
C87   C96   A    
C33   C34   S    
C113  C140  A    
C102  H81   S    
C28   H125  S    
C41   H154  S    
O3    Zn1   S    
O9    Zn2   S    
C111  C128  S    
C7    C148  A    
C139  O8    A    
C143  C152  A    
C5    C146  A    
C113  C131  A    
C42   H152  S    
C75   N1    A    
C10   C13   A    
C37   H149  S    
C47   H17   S    
O5    Zn4   S    
O2    Zn1   S    
O15   Zn3   S    
C33   H142  S    
C36   H137  S    
C139  O15   A    
C59   H37   S    
C106  O5    A    
C42   H153  S    
C66   C67   S    
C50   C116  S    
C23   C25   S    
C74   H96   S    
C62   H43   S    
C65   H51   S    
C150  C154  A    
C27   C28   S    
C38   H147  S    
C118  C126  A    
C50   H25   S    
C97   C101  A    
