data_mof_unit_31605.cif
_audit_creation_date              2012-12-11T14:04:26-0500
_audit_creation_method            fapswitch 2.2
_symmetry_space_group_name_H-M    P1
_symmetry_Int_Tables_number       1
_space_group_crystal_system       triclinic
_cell_length_a                    19.048568
_cell_length_b                    11.173102
_cell_length_c                    18.551832
_cell_angle_alpha                 89.995364
_cell_angle_beta                  89.213063
_cell_angle_gamma                 90.010521
_cell_volume                      3948.04347187

loop_
_atom_site_label
_atom_site_type_symbol
_atom_type_description
_atom_site_fract_x
_atom_site_fract_y
_atom_site_fract_z
_atom_type_partial_charge
C1    C     C_R   0.241947 0.461441 0.650537 0.575604
C2    C     C_R   0.758054 0.461463 0.349479 0.579380
C3    C     C_R   0.741947 0.961441 0.650537 0.575604
C4    C     C_R   0.258054 0.961464 0.349479 0.579380
C5    C     C_2   0.283072 0.821755 0.528556 -0.144887
C6    C     C_2   0.716926 0.821711 0.471474 -0.144456
C7    C     C_2   0.783072 0.321755 0.528556 -0.144888
C8    C     C_2   0.216926 0.321711 0.471474 -0.144456
C9    C     C_R   0.007653 0.667570 0.424447 0.023557
C10   C     C_R   0.992118 0.667654 0.575704 0.022670
C11   C     C_R   0.507653 0.167570 0.424447 0.023557
C12   C     C_R   0.492118 0.167653 0.575704 0.022670
C13   C     C_R   0.013753 0.887510 0.425904 -0.052926
C14   C     C_R   0.986265 0.887627 0.574141 -0.053123
C15   C     C_R   0.513753 0.387510 0.425904 -0.052926
C16   C     C_R   0.486265 0.387627 0.574141 -0.053123
C17   C     C_R   0.006977 0.994773 0.463041 -0.047140
C18   C     C_R   0.993161 0.994837 0.536942 -0.046706
C19   C     C_R   0.506977 0.494773 0.463041 -0.047140
C20   C     C_R   0.493161 0.494837 0.536942 -0.046705
C21   C     C_R   0.994936 0.777719 0.538077 0.012118
C22   C     C_R   0.004933 0.777669 0.462019 0.012855
C23   C     C_R   0.494936 0.277718 0.538077 0.012118
C24   C     C_R   0.504933 0.277669 0.462019 0.012855
C25   C     C_R   0.985777 0.562008 0.535359 -0.020375
C26   C     C_R   0.013785 0.561933 0.464862 -0.020475
C27   C     C_R   0.485777 0.062008 0.535359 -0.020375
C28   C     C_R   0.513785 0.061933 0.464862 -0.020475
C29   C     C_R   0.960357 0.453785 0.565350 0.079210
C30   C     C_R   0.039231 0.453662 0.435015 0.078945
C31   C     C_R   0.460357 0.953785 0.565350 0.079210
C32   C     C_R   0.539231 0.953662 0.435015 0.078945
C33   C     C_R   0.978389 0.347174 0.531148 -0.048819
C34   C     C_R   0.021185 0.347128 0.469315 -0.048420
C35   C     C_R   0.478390 0.847174 0.531148 -0.048819
C36   C     C_R   0.521185 0.847128 0.469314 -0.048420
C37   C     C_2   0.205928 0.806822 0.936125 -0.117135
C38   C     C_2   0.778260 0.856461 0.063902 -0.089963
C39   C     C_2   0.705928 0.306822 0.936125 -0.117135
C40   C     C_2   0.278260 0.356461 0.063902 -0.089964
C41   C     C_2   0.247287 0.899062 0.083424 -0.008145
C42   C     C_2   0.758219 0.873929 0.905869 0.024311
C43   C     C_2   0.747287 0.399062 0.083424 -0.008145
C44   C     C_2   0.258219 0.373929 0.905869 0.024311
C45   C     C_R   0.226679 0.870012 0.645277 0.570270
C46   C     C_R   0.773333 0.869985 0.354739 0.569559
C47   C     C_R   0.726679 0.370012 0.645277 0.570270
C48   C     C_R   0.273333 0.369985 0.354739 0.569559
C49   C     C_2   0.180844 0.882806 0.058109 0.003915
C50   C     C_2   0.821978 0.875150 0.938472 0.025386
C51   C     C_2   0.680844 0.382806 0.058109 0.003915
C52   C     C_2   0.321978 0.375150 0.938472 0.025386
C53   C     C_2   0.167823 0.876973 0.979843 -0.145178
C54   C     C_2   0.829174 0.837952 0.014554 -0.136247
C55   C     C_2   0.667822 0.376973 0.979843 -0.145178
C56   C     C_2   0.329174 0.337952 0.014554 -0.136248
C57   C     C_2   0.994577 0.660241 0.920136 -0.111769
C58   C     C_2   0.001743 0.657955 0.077277 -0.116323
C59   C     C_2   0.494577 0.160241 0.920136 -0.111769
C60   C     C_2   0.501743 0.157955 0.077277 -0.116323
C61   C     C_2   0.006344 0.557556 0.036493 0.006347
C62   C     C_2   0.985508 0.559374 0.959291 0.012257
C63   C     C_2   0.506344 0.057556 0.036493 0.006346
C64   C     C_2   0.485508 0.059374 0.959291 0.012256
C65   C     C_R   0.027343 0.655718 0.646478 0.570638
C66   C     C_R   0.972612 0.655706 0.353566 0.570349
C67   C     C_R   0.527343 0.155718 0.646478 0.570638
C68   C     C_R   0.472612 0.155706 0.353566 0.570350
C69   C     C_R   0.240345 0.460421 0.848389 0.539335
C70   C     C_R   0.759763 0.461668 0.151318 0.539926
C71   C     C_R   0.740345 0.960421 0.848389 0.539335
C72   C     C_R   0.259763 0.961668 0.151318 0.539926
C73   C     C_R   0.204702 0.818549 0.858031 0.585544
C74   C     C_R   0.791164 0.828844 0.138838 0.548899
C75   C     C_R   0.704702 0.318549 0.858031 0.585544
C76   C     C_R   0.291164 0.328844 0.138838 0.548899
C77   C     C_R   0.027401 0.652128 0.849477 0.572173
C78   C     C_R   0.971859 0.651641 0.149657 0.571031
C79   C     C_R   0.527401 0.152128 0.849477 0.572174
C80   C     C_R   0.471859 0.151641 0.149657 0.571031
C81   C     C_2   0.249174 0.902994 0.571526 0.061500
C82   C     C_2   0.750858 0.902940 0.428502 0.061113
C83   C     C_2   0.749174 0.402994 0.571526 0.061500
C84   C     C_2   0.250858 0.402940 0.428502 0.061113
C85   C     C_2   0.237718 0.885168 0.410164 -0.057253
C86   C     C_2   0.762275 0.885116 0.589875 -0.058469
C87   C     C_2   0.737718 0.385168 0.410164 -0.057253
C88   C     C_2   0.262275 0.385116 0.589875 -0.058469
C89   C     C_2   0.287287 0.828317 0.447602 0.053078
C90   C     C_2   0.712697 0.828271 0.552433 0.053943
C91   C     C_2   0.787287 0.328317 0.447602 0.053078
C92   C     C_2   0.212697 0.328271 0.552433 0.053943
Cr1   Cr    Cr6+3 0.113970 0.508630 0.747920 1.120476
Cr2   Cr    Cr6+3 0.886030 0.508630 0.252080 1.127044
Cr3   Cr    Cr6+3 0.613970 0.008630 0.747920 1.120477
Cr4   Cr    Cr6+3 0.386030 0.008630 0.252080 1.127044
Cr5   Cr    Cr6+3 0.269200 0.666740 0.749850 1.099101
Cr6   Cr    Cr6+3 0.730800 0.666740 0.250150 1.094821
Cr7   Cr    Cr6+3 0.769200 0.166740 0.749850 1.099101
Cr8   Cr    Cr6+3 0.230800 0.166740 0.250150 1.094821
Cr9   Cr    Cr6+3 0.112300 0.820070 0.749800 1.062244
Cr10  Cr    Cr6+3 0.887700 0.820070 0.250200 1.061134
Cr11  Cr    Cr6+3 0.612300 0.320070 0.749800 1.062244
Cr12  Cr    Cr6+3 0.387700 0.320070 0.250200 1.061134
H1    H     H_    0.960328 0.263489 0.553326 0.158770
H2    H     H_    0.039278 0.263417 0.447238 0.159072
H3    H     H_    0.460328 0.763489 0.553326 0.158770
H4    H     H_    0.539278 0.763418 0.447237 0.159071
O1    O     O_R   0.043230 0.549300 0.667990 -0.487340
O2    O     O_R   0.956770 0.549300 0.332010 -0.488570
O3    O     O_R   0.543230 0.049300 0.667990 -0.487340
O4    O     O_R   0.456770 0.049300 0.332010 -0.488570
O5    O     O_R   0.262920 0.788600 0.824420 -0.472400
O6    O     O_R   0.737080 0.788600 0.175580 -0.484610
O7    O     O_R   0.762920 0.288600 0.824420 -0.472400
O8    O     O_R   0.237080 0.288600 0.175580 -0.484610
O9    O     O_R   0.167530 0.905110 0.830340 -0.484237
O10   O     O_R   0.832470 0.905110 0.169660 -0.475357
O11   O     O_R   0.667530 0.405110 0.830340 -0.484237
O12   O     O_R   0.332470 0.405110 0.169660 -0.475357
O13   O     O_R   0.054010 0.748440 0.822860 -0.515702
O14   O     O_R   0.945990 0.748440 0.177140 -0.520324
O15   O     O_R   0.554010 0.248440 0.822860 -0.515702
O16   O     O_R   0.445990 0.248440 0.177140 -0.520324
O17   O     O_3   0.165160 0.665150 0.749190 -0.322706
O18   O     O_3   0.834840 0.665150 0.250810 -0.311075
O19   O     O_3   0.665160 0.165150 0.749190 -0.322706
O20   O     O_3   0.334840 0.165150 0.250810 -0.311075
O21   O     O_R   0.178620 0.457600 0.674100 -0.469181
O22   O     O_R   0.821380 0.457600 0.325900 -0.468429
O23   O     O_R   0.678620 0.957600 0.674100 -0.469181
O24   O     O_R   0.321380 0.957600 0.325900 -0.468429
O25   O     O_R   0.284680 0.542100 0.669460 -0.512352
O26   O     O_R   0.715320 0.542100 0.330540 -0.513165
O27   O     O_R   0.784680 0.042100 0.669460 -0.512352
O28   O     O_R   0.215320 0.042100 0.330540 -0.513165
O29   O     O_R   0.262860 0.790390 0.676650 -0.482495
O30   O     O_R   0.737140 0.790390 0.323350 -0.479774
O31   O     O_R   0.762860 0.290390 0.676650 -0.482495
O32   O     O_R   0.237140 0.290390 0.323350 -0.479774
O33   O     O_R   0.167460 0.907030 0.670940 -0.471224
O34   O     O_R   0.832540 0.907030 0.329060 -0.471567
O35   O     O_R   0.667460 0.407030 0.670940 -0.471224
O36   O     O_R   0.332540 0.407030 0.329060 -0.471567
O37   O     O_R   0.053950 0.750220 0.675100 -0.506815
O38   O     O_R   0.946050 0.750220 0.324900 -0.507900
O39   O     O_R   0.553950 0.250220 0.675100 -0.506815
O40   O     O_R   0.446050 0.250220 0.324900 -0.507901
O41   O     O_R   0.043300 0.547370 0.827390 -0.470331
O42   O     O_R   0.956700 0.547370 0.172610 -0.465268
O43   O     O_R   0.543300 0.047370 0.827390 -0.470331
O44   O     O_R   0.456700 0.047370 0.172610 -0.465268
O45   O     O_R   0.178690 0.455820 0.821860 -0.461614
O46   O     O_R   0.821310 0.455820 0.178140 -0.479129
O47   O     O_R   0.678690 0.955820 0.821860 -0.461614
O48   O     O_R   0.321310 0.955820 0.178140 -0.479129
O49   O     O_R   0.284750 0.540170 0.828860 -0.491059
O50   O     O_R   0.715250 0.540170 0.171140 -0.493196
O51   O     O_R   0.784750 0.040170 0.828860 -0.491059
O52   O     O_R   0.215250 0.040170 0.171140 -0.493196
C93   C     C_2   0.339770 0.758178 0.405190 0.648710
O53   O     O_2   0.398317 0.741436 0.427885 -0.570304
O54   O     O_R   0.321366 0.709946 0.338349 -0.647375
H5    H     H_    0.361299 0.664043 0.314514 0.353047
C94   C     C_2   0.660168 0.758191 0.594854 0.648788
O55   O     O_2   0.601613 0.741504 0.572154 -0.570387
O56   O     O_R   0.678531 0.709985 0.661718 -0.648477
H6    H     H_    0.638563 0.664175 0.685579 0.352865
C95   C     C_2   0.839770 0.258178 0.405190 0.648710
O57   O     O_2   0.898317 0.241436 0.427885 -0.570304
O58   O     O_R   0.821366 0.209946 0.338349 -0.647375
H7    H     H_    0.861299 0.164043 0.314513 0.353047
C96   C     C_2   0.160167 0.258191 0.594854 0.648789
O59   O     O_2   0.101613 0.241504 0.572154 -0.570388
O60   O     O_R   0.178531 0.209985 0.661718 -0.648477
H8    H     H_    0.138563 0.164175 0.685579 0.352865
H9    H     H_    0.128744 0.937078 0.957805 0.202541
H10   H     H_    0.879635 0.804168 0.031761 0.135768
H11   H     H_    0.628744 0.437078 0.957805 0.202541
H12   H     H_    0.379634 0.304168 0.031761 0.135769
C97   C     C_2   0.310191 0.897446 0.035711 0.590101
O61   O     O_2   0.342487 0.804414 0.025878 -0.407017
O62   O     O_R   0.335563 0.003955 0.006083 -0.650012
H13   H     H_    0.308166 0.076580 0.022880 0.316003
C98   C     C_2   0.703204 0.785889 0.928653 0.550602
O63   O     O_2   0.719958 0.683743 0.944588 -0.510650
O64   O     O_R   0.632562 0.819227 0.931396 -0.651454
H14   H     H_    0.601123 0.751189 0.948134 0.378924
C99   C     C_2   0.810191 0.397446 0.035711 0.590102
O65   O     O_2   0.842487 0.304414 0.025878 -0.407017
O66   O     O_R   0.835563 0.503956 0.006083 -0.650012
H15   H     H_    0.808166 0.576580 0.022881 0.316002
C100  C     C_2   0.203204 0.285889 0.928653 0.550601
O67   O     O_2   0.219958 0.183743 0.944588 -0.510650
O68   O     O_R   0.132562 0.319228 0.931397 -0.651455
H16   H     H_    0.101123 0.251190 0.948135 0.378924
H17   H     H_    0.240502 0.739571 0.958270 0.146164
H18   H     H_    0.728029 0.894776 0.049692 0.158948
H19   H     H_    0.740502 0.239571 0.958270 0.146164
H20   H     H_    0.228029 0.394776 0.049692 0.158948
C101  C     C_2   0.032808 0.445222 0.069767 0.661650
O69   O     O_2   0.995375 0.356603 0.074372 -0.402564
O70   O     O_R   0.098892 0.445342 0.101448 -0.689171
H21   H     H_    0.110427 0.365759 0.124683 0.355988
C102  C     C_2   0.957169 0.450027 0.922656 0.725316
O71   O     O_2   0.977991 0.349905 0.937559 -0.434074
O72   O     O_R   0.907635 0.464044 0.868241 -0.625875
H22   H     H_    0.893392 0.385055 0.845901 0.364262
C103  C     C_2   0.532808 0.945223 0.069767 0.661649
O73   O     O_2   0.495375 0.856603 0.074372 -0.402564
O74   O     O_R   0.598892 0.945343 0.101448 -0.689171
H23   H     H_    0.610428 0.865760 0.124683 0.355988
C104  C     C_2   0.457169 0.950027 0.922656 0.725316
O75   O     O_2   0.477991 0.849905 0.937559 -0.434074
O76   O     O_R   0.407635 0.964044 0.868241 -0.625874
H24   H     H_    0.393392 0.885054 0.845901 0.364262
H25   H     H_    0.995277 0.745237 0.053848 0.108712
H26   H     H_    0.002974 0.746627 0.944470 0.103355
H27   H     H_    0.495276 0.245237 0.053848 0.108711
H28   H     H_    0.502974 0.246627 0.944470 0.103356
H29   H     H_    0.305564 0.743471 0.553629 0.159934
H30   H     H_    0.694409 0.743452 0.446395 0.159698
H31   H     H_    0.805564 0.243472 0.553629 0.159934
H32   H     H_    0.194409 0.243452 0.446395 0.159698
H33   H     H_    0.185669 0.898243 0.432697 0.124737
H34   H     H_    0.814336 0.898159 0.567357 0.124907
H35   H     H_    0.685669 0.398243 0.432697 0.124737
H36   H     H_    0.314336 0.398159 0.567357 0.124907
C105  C     C_2   0.223196 0.014199 0.541551 0.562740
O77   O     O_2   0.264787 0.087072 0.516832 -0.535574
O78   O     O_R   0.151197 0.025833 0.531638 -0.683825
H37   H     H_    0.139945 0.082791 0.491075 0.326292
C106  C     C_2   0.776867 0.014131 0.458484 0.562849
O79   O     O_2   0.735290 0.087008 0.483190 -0.534821
O80   O     O_R   0.848866 0.025745 0.468431 -0.683933
H38   H     H_    0.860113 0.082709 0.508993 0.326464
C107  C     C_2   0.723196 0.514199 0.541551 0.562740
O81   O     O_2   0.764787 0.587072 0.516831 -0.535574
O82   O     O_R   0.651197 0.525833 0.531638 -0.683825
H39   H     H_    0.639945 0.582791 0.491075 0.326292
C108  C     C_2   0.276867 0.514131 0.458484 0.562849
O83   O     O_2   0.235290 0.587008 0.483190 -0.534821
O84   O     O_R   0.348866 0.525745 0.468431 -0.683932
H40   H     H_    0.360113 0.582709 0.508993 0.326463
H41   H     H_    0.012350 0.077394 0.433800 0.141640
H42   H     H_    0.987917 0.077522 0.566129 0.142318
H43   H     H_    0.512350 0.577394 0.433800 0.141640
H44   H     H_    0.487917 0.577522 0.566129 0.142318
H45   H     H_    0.027874 0.891428 0.369264 0.145985
H46   H     H_    0.972187 0.891637 0.630789 0.148041
H47   H     H_    0.527874 0.391428 0.369264 0.145985
H48   H     H_    0.472187 0.391637 0.630789 0.148042
C109  C     C_2   0.085535 0.450329 0.369685 0.583337
O85   O     O_2   0.090266 0.358701 0.333864 -0.514998
O86   O     O_R   0.123830 0.551872 0.349098 -0.675325
H49   H     H_    0.153069 0.538424 0.303744 0.360189
C110  C     C_2   0.914251 0.450555 0.630837 0.584025
O87   O     O_2   0.909638 0.358997 0.666751 -0.518842
O88   O     O_R   0.876042 0.552123 0.651495 -0.676131
H50   H     H_    0.846983 0.538747 0.696981 0.362631
C111  C     C_2   0.585535 0.950330 0.369685 0.583337
O89   O     O_2   0.590267 0.858702 0.333863 -0.514998
O90   O     O_R   0.623831 0.051872 0.349097 -0.675325
H51   H     H_    0.653069 0.038424 0.303744 0.360190
C112  C     C_2   0.414251 0.950555 0.630837 0.584025
O91   O     O_2   0.409638 0.858997 0.666751 -0.518842
O92   O     O_R   0.376042 0.052122 0.651495 -0.676131
H52   H     H_    0.346983 0.038746 0.696981 0.362631
C113  C     C_2   0.117718 0.891316 0.105918 0.591711
O93   O     O_2   0.118683 0.849167 0.166768 -0.494660
O94   O     O_R   0.056994 0.947084 0.080940 -0.678647
H53   H     H_    0.017869 0.948866 0.118524 0.357755
C114  C     C_2   0.887435 0.917050 0.901809 0.599066
O95   O     O_2   0.896996 0.898215 0.837452 -0.493440
O96   O     O_R   0.939756 0.972747 0.941985 -0.652142
H54   H     H_    0.982535 0.994589 0.911623 0.350689
C115  C     C_2   0.617718 0.391316 0.105918 0.591710
O97   O     O_2   0.618683 0.349167 0.166768 -0.494659
O98   O     O_R   0.556994 0.447084 0.080940 -0.678647
H55   H     H_    0.517869 0.448866 0.118524 0.357755
C116  C     C_2   0.387435 0.417050 0.901809 0.599066
O99   O     O_2   0.396996 0.398215 0.837452 -0.493439
O100  O     O_R   0.439756 0.472747 0.941985 -0.652142
H56   H     H_    0.482535 0.494589 0.911623 0.350689

loop_
_geom_bond_atom_site_label_1
_geom_bond_atom_site_label_2
_ccdc_geom_bond_type
C7    C83   D    
O70   H21   S    
C83   C107  S    
O54   H5    S    
C94   O55   D    
C6    C82   D    
C87   C91   D    
C31   C112  S    
C95   O58   S    
C95   O57   D    
C14   C18   A    
Cr1   O41   S    
O96   H54   S    
Cr8   O8    S    
Cr5   O25   S    
O62   H13   S    
Cr11  O15   S    
C98   O64   S    
C93   O53   D    
C16   H48   S    
Cr11  O39   S    
O90   H51   S    
C46   O34   A    
Cr3   O19   S    
C88   H36   S    
C96   O59   D    
C15   C19   A    
Cr4   O4    S    
C12   C23   A    
Cr9   O37   S    
C59   C64   D    
C76   O12   A    
C49   C113  S    
Cr6   O30   S    
C60   C63   D    
C72   O48   A    
C32   C36   A    
C14   C21   A    
C54   H10   S    
Cr4   O44   S    
C108  O83   D    
C1    O21   A    
C59   H28   S    
Cr7   O7    S    
C109  O85   D    
C58   H25   S    
Cr1   O21   S    
C9    C22   A    
Cr6   O6    S    
C36   H4    S    
C57   H26   S    
Cr12  O12   S    
O84   H40   S    
C74   O6    A    
C107  O82   S    
C29   C33   A    
C11   C24   A    
C112  O91   D    
C73   O5    A    
C45   O33   A    
C51   C115  S    
C110  O87   D    
C68   O4    A    
C89   C93   S    
C99   O66   S    
Cr12  O40   S    
C9    C66   S    
C37   C73   S    
Cr8   O32   S    
C61   C101  S    
C52   C116  S    
C46   C82   S    
C52   C56   S    
Cr9   O33   S    
C41   C49   D    
C32   C111  S    
C39   C55   D    
C50   C114  S    
O82   H39   S    
C19   H43   S    
C40   C56   D    
C114  O96   S    
Cr12  O20   S    
C69   O49   A    
O80   H38   S    
Cr12  O36   S    
C84   C108  S    
C8    C92   S    
C47   C83   S    
C5    H29   S    
Cr11  O19   S    
C106  O79   D    
C62   C102  S    
C111  O90   S    
C8    H32   S    
C16   C20   A    
O88   H50   S    
C4    O28   A    
C37   C53   D    
C44   C52   D    
C1    C88   S    
C96   O60   S    
C7    C91   S    
C94   O56   S    
C81   C105  S    
C113  O93   D    
C3    C86   S    
Cr3   O23   S    
C101  O70   S    
Cr7   O31   S    
C38   H18   S    
C61   C62   S    
C63   C103  S    
C1    O25   A    
Cr5   O29   S    
C93   O54   S    
C102  O72   S    
C9    C26   A    
C103  O73   D    
Cr1   O17   S    
Cr2   O18   S    
C10   C21   A    
C25   C29   A    
C33   C34   A    
C74   O10   A    
C12   C67   S    
Cr11  O11   S    
C3    O27   A    
C73   O9    A    
C30   C34   A    
C12   C27   A    
C27   C31   A    
O72   H22   S    
C34   H2    S    
Cr6   O50   S    
C64   C104  S    
C28   C32   A    
C77   O13   A    
Cr5   O17   S    
C86   C90   D    
C97   O62   S    
C59   C79   S    
O56   H6    S    
C109  O86   S    
C91   C95   S    
C116  O100  S    
Cr7   O19   S    
C4    C85   S    
C40   H20   S    
C48   O36   A    
C57   C62   D    
C116  O99   D    
C102  O71   D    
C79   O15   A    
Cr2   O2    S    
C37   H17   S    
Cr9   O13   S    
C40   C76   S    
C75   O11   A    
C53   H9    S    
C108  O84   S    
C35   C36   A    
C70   O46   A    
C97   O61   D    
Cr10  O14   S    
O76   H24   S    
O74   H23   S    
C105  O77   D    
C57   C77   S    
Cr4   O20   S    
C5    C81   D    
C18   H42   S    
Cr9   O17   S    
O60   H8    S    
C38   C54   D    
C69   O45   A    
C17   H41   S    
O98   H55   S    
C48   O32   A    
C71   O47   A    
C100  O68   S    
C17   C18   A    
C44   C100  S    
C30   C109  S    
Cr7   O27   S    
C2    C87   S    
C78   O42   A    
C88   C92   D    
C66   O2    A    
C110  O88   S    
C41   C97   S    
O58   H7    S    
C65   O1    A    
C7    H31   S    
C42   C50   D    
C41   C72   S    
C68   O40   A    
C42   C98   S    
C67   O3    A    
C15   C24   A    
O78   H37   S    
C26   C30   A    
C16   C23   A    
C39   C75   S    
C115  O98   S    
C90   C94   S    
C67   O39   A    
C86   H34   S    
C115  O97   D    
C3    O23   A    
C60   H27   S    
Cr7   O51   S    
C65   O37   A    
O86   H49   S    
Cr2   O22   S    
C85   H33   S    
C13   H45   S    
C11   C68   S    
C10   C25   A    
C79   O43   A    
C45   O29   A    
C56   H12   S    
C10   C65   S    
O66   H15   S    
C80   O44   A    
C39   H19   S    
C103  O74   S    
C85   C89   D    
C60   C80   S    
Cr8   O20   S    
C55   H11   S    
C45   C81   S    
C47   O35   A    
Cr8   O52   S    
Cr10  O18   S    
Cr11  O35   S    
C47   O31   A    
O92   H52   S    
C2    O26   A    
C77   O41   A    
C14   H46   S    
C13   C17   A    
C92   C96   S    
C43   C70   S    
C71   O51   A    
Cr6   O26   S    
C87   H35   S    
C72   O52   A    
C33   H1    S    
Cr4   O24   S    
Cr9   O9    S    
O100  H56   S    
C19   C20   A    
C113  O94   S    
Cr1   O1    S    
C25   C26   A    
C104  O76   S    
O64   H14   S    
C50   C54   S    
C112  O92   S    
C6    C90   S    
O68   H16   S    
Cr10  O38   S    
Cr2   O46   S    
C4    O24   A    
C43   C51   D    
C98   O63   D    
Cr4   O48   S    
C15   H47   S    
C11   C28   A    
C58   C61   D    
C104  O75   D    
C107  O81   D    
C31   C35   A    
Cr1   O45   S    
C42   C71   S    
C76   O8    A    
C2    O22   A    
C38   C74   S    
C13   C22   A    
C51   C55   S    
Cr3   O47   S    
C75   O7    A    
C99   O65   D    
C78   O14   A    
Cr10  O10   S    
C29   C110  S    
C66   O38   A    
C49   C53   S    
C35   H3    S    
C58   C78   S    
C23   C24   A    
Cr8   O28   S    
C63   C64   S    
C48   C84   S    
Cr2   O42   S    
Cr6   O18   S    
Cr3   O43   S    
C101  O69   D    
C43   C99   S    
C105  O78   S    
C100  O67   D    
C8    C84   D    
C82   C106  S    
C106  O80   S    
C27   C28   A    
C111  O89   D    
C44   C69   S    
C46   O30   A    
Cr3   O3    S    
Cr10  O34   S    
C80   O16   A    
C70   O50   A    
Cr12  O16   S    
C21   C22   A    
C20   H44   S    
Cr5   O5    S    
C5    C89   S    
O94   H53   S    
Cr5   O49   S    
C6    H30   S    
C114  O95   D    
