data_mof_unit_57175.cif
_audit_creation_date              2012-12-11T16:51:03-0500
_audit_creation_method            fapswitch 2.2
_symmetry_space_group_name_H-M    P1
_symmetry_Int_Tables_number       1
_space_group_crystal_system       triclinic
_cell_length_a                    6.928533
_cell_length_b                    28.792311
_cell_length_c                    32.133883
_cell_angle_alpha                 100.906926
_cell_angle_beta                  90.034261
_cell_angle_gamma                 90.431659
_cell_volume                      6294.35002711

loop_
_atom_site_label
_atom_site_type_symbol
_atom_type_description
_atom_site_fract_x
_atom_site_fract_y
_atom_site_fract_z
_atom_type_partial_charge
O1    O     O_R   0.494350 0.453170 0.452520 -0.503492
O2    O     O_R   0.820980 0.455850 0.538220 -0.547823
O3    O     O_R   0.994300 0.546830 0.547480 -0.545173
C1    C     C_R   0.651975 0.445803 0.551720 0.742299
O4    O     O_R   0.823860 0.447590 0.452270 -0.544829
O5    O     O_R   0.997200 0.538510 0.460920 -0.540457
C2    C     C_R   0.654226 0.434141 0.437315 0.816799
O6    O     O_R   0.491440 0.461490 0.539080 -0.531024
O7    O     O_3   0.661790 0.529840 0.502940 -0.377430
V1    V     V_3+5 0.935470 0.494460 0.499450 1.461975
O8    O     O_R   0.327090 0.544150 0.461780 -0.532249
C3    C     C_R   0.158507 0.554400 0.448325 0.728176
O9    O     O_R   0.324210 0.552410 0.547730 -0.550060
C4    C     C_R   0.155763 0.565309 0.563343 0.669561
V2    V     V_3+5 0.435840 0.505540 0.500550 1.486208
O10   O     O_3   0.159650 0.470160 0.497060 -0.355843
C5    C     C_R   0.200601 0.866460 0.892361 -0.098923
H1    H     H_    0.311772 0.869584 0.916464 0.163867
C6    C     C_R   0.217529 0.830997 0.856256 -0.126608
H2    H     H_    0.340673 0.807662 0.853397 0.119275
C7    C     C_R   0.075224 0.825046 0.824595 0.063417
C8    C     C_R   0.917188 0.855805 0.829401 -0.163793
H3    H     H_    0.808389 0.852136 0.804691 0.124087
C9    C     C_R   0.898617 0.891709 0.865409 0.003559
C10   C     C_R   0.041910 0.897231 0.897724 -0.122051
C11   C     C_R   0.929245 0.758212 0.772300 -0.140255
H4    H     H_    0.793787 0.763264 0.789320 0.111369
C12   C     C_R   0.941941 0.722295 0.736424 -0.141317
H5    H     H_    0.815772 0.700373 0.727191 0.104958
C13   C     C_R   0.115348 0.714388 0.713344 0.084941
C14   C     C_R   0.276579 0.743130 0.727806 -0.142555
H6    H     H_    0.411724 0.738937 0.710689 0.108666
C15   C     C_R   0.264510 0.778578 0.764151 -0.134499
H7    H     H_    0.390455 0.800344 0.774219 0.114079
C16   C     C_R   0.090261 0.786731 0.786582 0.095314
C17   C     C_R   0.300334 0.651922 0.663264 -0.131884
H8    H     H_    0.427874 0.659428 0.682916 0.101619
C18   C     C_R   0.310427 0.616375 0.626963 -0.158018
H9    H     H_    0.445624 0.598035 0.619526 0.117019
C19   C     C_R   0.146972 0.603902 0.601205 -0.048752
C20   C     C_R   0.974009 0.628313 0.612279 -0.156362
H10   H     H_    0.845750 0.619912 0.592947 0.122857
C21   C     C_R   0.964669 0.664361 0.648135 -0.133990
H11   H     H_    0.829867 0.683008 0.654853 0.105569
C22   C     C_R   0.127182 0.676512 0.674449 0.095943
C23   C     C_R   0.170943 0.659213 0.284768 0.638848
N1    N     N_R   0.129931 0.677819 0.326296 -0.542408
C24   C     C_R   0.086540 0.724784 0.338715 0.625352
C25   C     C_R   0.079159 0.754752 0.308743 -0.018541
C26   C     C_R   0.118093 0.735990 0.265806 -0.011291
C27   C     C_R   0.165472 0.687918 0.253740 -0.043326
C28   C     C_R   0.032330 0.802811 0.320638 -0.137367
C29   C     C_R   0.023152 0.831775 0.290395 -0.129196
C30   C     C_R   0.060573 0.813468 0.247435 -0.017234
C31   C     C_R   0.108817 0.765334 0.234960 -0.067382
C32   C     C_R   0.146937 0.746558 0.191833 -0.036783
C33   C     C_R   0.196352 0.698064 0.180152 0.200691
C34   C     C_R   0.204948 0.669512 0.211030 -0.190485
C35   C     C_R   0.049619 0.842197 0.216601 0.570982
N2    N     N_R   0.085073 0.823750 0.174833 -0.567961
C36   C     C_R   0.133695 0.777112 0.162053 0.624671
O11   O     O_2   0.215543 0.613020 0.273471 -0.522503
O12   O     O_2   0.048730 0.742332 0.379836 -0.517725
H12   H     H_    0.001810 0.818214 0.353371 0.173583
H13   H     H_    0.985912 0.868601 0.300827 0.173170
O13   O     O_2   0.002009 0.888171 0.228253 -0.520440
O14   O     O_2   0.169753 0.760629 0.120683 -0.476902
H14   H     H_    0.242294 0.632588 0.201185 0.175617
C37   C     C_R   0.917082 0.847493 0.114376 -0.131876
H15   H     H_    0.811754 0.819775 0.115651 0.159564
C38   C     C_R   0.902918 0.875335 0.082850 -0.065323
C39   C     C_R   0.042777 0.911589 0.081465 -0.131725
C40   C     C_R   0.195417 0.917303 0.111072 -0.187283
H16   H     H_    0.304408 0.944442 0.110903 0.132273
C41   C     C_R   0.208646 0.888798 0.141695 -0.045378
H17   H     H_    0.327837 0.893895 0.163946 0.132309
C42   C     C_R   0.069524 0.853801 0.143651 0.346603
C43   C     C_R   0.297778 0.645520 0.381730 -0.109205
H18   H     H_    0.421607 0.667350 0.377611 0.149596
C44   C     C_R   0.307857 0.615184 0.410912 -0.141543
H19   H     H_    0.439787 0.614364 0.428843 0.140550
C45   C     C_R   0.149123 0.586660 0.417148 -0.068646
C46   C     C_R   0.980601 0.588996 0.393179 -0.259086
H20   H     H_    0.857187 0.567375 0.397962 0.195357
C47   C     C_R   0.969548 0.618601 0.362952 -0.000992
C48   C     C_R   0.130981 0.647414 0.357344 0.319440
C49   C     C_R   0.552804 0.223459 0.837758 0.699177
N3    N     N_R   0.577484 0.175805 0.824864 -0.532058
C50   C     C_R   0.609835 0.156318 0.783193 0.674025
C51   C     C_R   0.613657 0.185069 0.751829 -0.066862
C52   C     C_R   0.597690 0.234800 0.765353 -0.010723
C53   C     C_R   0.580131 0.254674 0.809069 -0.068489
C54   C     C_R   0.627402 0.166339 0.707507 -0.037023
C55   C     C_R   0.611266 0.196490 0.678204 -0.151661
C56   C     C_R   0.599796 0.245561 0.691447 -0.027751
C57   C     C_R   0.599137 0.264856 0.735030 -0.004942
C58   C     C_R   0.599836 0.314290 0.748206 -0.046609
C59   C     C_R   0.594048 0.333688 0.791547 -0.163117
C60   C     C_R   0.585864 0.304848 0.822079 -0.038518
C61   C     C_R   0.595136 0.276022 0.661869 0.645257
N4    N     N_R   0.608574 0.324125 0.675180 -0.529979
C62   C     C_R   0.612794 0.343434 0.717627 0.671829
O15   O     O_2   0.498725 0.240078 0.878083 -0.501995
O16   O     O_2   0.630294 0.109082 0.772404 -0.506987
H21   H     H_    0.617587 0.181456 0.644637 0.185713
O17   O     O_2   0.581234 0.257655 0.620103 -0.515510
O18   O     O_2   0.631951 0.390666 0.730308 -0.517256
H22   H     H_    0.599906 0.371764 0.801952 0.188147
C63   C     C_R   0.474944 0.387447 0.641287 0.232765
C64   C     C_R   0.484495 0.416352 0.610754 -0.248738
H23   H     H_    0.369626 0.441340 0.609289 0.129787
C65   C     C_R   0.641559 0.414006 0.583049 -0.094948
C66   C     C_R   0.790336 0.382015 0.586146 -0.242816
H24   H     H_    0.913092 0.380528 0.565070 0.177717
C67   C     C_R   0.783976 0.352331 0.616321 -0.056133
C68   C     C_R   0.623003 0.354700 0.644162 0.320636
C69   C     C_R   0.402744 0.115691 0.857634 -0.013224
C70   C     C_R   0.395450 0.086763 0.888331 -0.222522
H25   H     H_    0.270257 0.064430 0.890050 0.167803
C71   C     C_R   0.548277 0.085520 0.916589 -0.089328
C72   C     C_R   0.710767 0.114079 0.914435 -0.189851
H26   H     H_    0.828902 0.112738 0.936233 0.167737
C73   C     C_R   0.722180 0.144613 0.885113 -0.021256
C74   C     C_R   0.567230 0.145344 0.855979 0.247067
C75   C     C_R   0.707544 0.138157 0.107048 -0.033011
C76   C     C_R   0.717131 0.172079 0.144922 -0.187174
H27   H     H_    0.837910 0.196666 0.150352 0.155551
C77   C     C_R   0.568227 0.176428 0.174947 0.101564
C78   C     C_R   0.409149 0.145588 0.167182 -0.054778
H28   H     H_    0.293084 0.147936 0.190034 0.126577
C79   C     C_R   0.399957 0.110757 0.130357 -0.124928
H29   H     H_    0.277133 0.086811 0.125971 0.128460
C80   C     C_R   0.548382 0.106027 0.099956 -0.113421
C81   C     C_R   0.430464 0.246752 0.225343 0.222497
C82   C     C_R   0.448497 0.282125 0.261927 -0.221134
H30   H     H_    0.333558 0.307522 0.270146 0.136056
C83   C     C_R   0.614263 0.285477 0.287468 0.013786
C84   C     C_R   0.763757 0.252406 0.276254 0.206427
C85   C     C_R   0.745173 0.216978 0.239889 -0.193992
H31   H     H_    0.860785 0.191769 0.231697 0.145774
C86   C     C_R   0.579663 0.213643 0.214105 0.033547
C87   C     C_R   0.588945 0.313623 0.365400 -0.180354
H32   H     H_    0.550075 0.277601 0.367540 0.170082
C88   C     C_R   0.594331 0.348886 0.402277 -0.046169
C89   C     C_R   0.642212 0.396158 0.398971 -0.235825
C90   C     C_R   0.686043 0.406790 0.358533 -0.033237
C91   C     C_R   0.679772 0.370567 0.321979 0.179830
C92   C     C_R   0.629312 0.323920 0.325503 -0.002559
O19   O     O_R   0.699170 0.038480 0.960880 -0.534670
O20   O     O_R   0.366800 0.052460 0.047690 -0.537454
O21   O     O_R   0.193520 0.961530 0.039110 -0.546298
C93   C     C_R   0.536627 0.066363 0.062593 0.718100
O22   O     O_R   0.369630 0.044100 0.961740 -0.543317
O23   O     O_R   0.196370 0.953120 0.952550 -0.532139
C94   C     C_R   0.538568 0.053980 0.948116 0.762397
O24   O     O_R   0.696320 0.046890 0.047450 -0.540370
O25   O     O_3   0.528890 0.970170 0.997080 -0.350840
V3    V     V_3+5 0.255190 0.005530 0.000540 1.487323
O26   O     O_R   0.866460 0.947530 0.952310 -0.510144
C95   C     C_R   0.034244 0.935333 0.936149 0.722977
O27   O     O_R   0.863630 0.955880 0.038270 -0.531748
C96   C     C_R   0.032389 0.944638 0.050849 0.723320
V4    V     V_3+5 0.754830 0.994440 0.999470 1.537937
O28   O     O_3   0.031000 0.029830 0.002920 -0.374457
N5    N     N_3   0.237951 0.677159 0.137025 -0.572699
H33   H     H_    0.377418 0.663343 0.135851 0.239579
H34   H     H_    0.141492 0.649034 0.127548 0.240185
C97   C     C_2   0.745916 0.863532 0.051110 0.777553
O29   O     O_2   0.775817 0.864285 0.013738 -0.552408
O30   O     O_R   0.565087 0.849467 0.063817 -0.658399
H35   H     H_    0.469761 0.842133 0.039462 0.308823
C98   C     C_2   0.788893 0.618122 0.337723 0.766299
O31   O     O_2   0.753881 0.650079 0.318709 -0.554205
O32   O     O_R   0.656845 0.580794 0.335858 -0.650200
H36   H     H_    0.540697 0.583984 0.317438 0.337549
C99   C     C_2   0.662042 0.115923 0.689557 0.889213
O33   O     O_2   0.808830 0.096799 0.698801 -0.505217
O34   O     O_R   0.532035 0.091142 0.660042 -0.641698
H37   H     H_    0.572612 0.057221 0.649384 0.317610
C100  C     C_2   0.601060 0.329239 0.866910 0.884428
O35   O     O_2   0.719876 0.316379 0.890437 -0.503340
O36   O     O_R   0.486673 0.368743 0.881533 -0.649359
H38   H     H_    0.512131 0.382934 0.912412 0.316427
N6    N     N_3   0.315581 0.392029 0.670081 -0.601999
H39   H     H_    0.188445 0.390165 0.652413 0.226462
H40   H     H_    0.322091 0.425996 0.688650 0.252855
C101  C     C_2   0.950567 0.320480 0.618530 0.811023
O37   O     O_2   0.987303 0.306487 0.651269 -0.547184
O38   O     O_R   0.071090 0.307876 0.583350 -0.649439
H41   H     H_    0.182000 0.287106 0.588966 0.333606
C102  C     C_2   0.235265 0.113834 0.828071 0.833907
O39   O     O_2   0.215053 0.143802 0.806122 -0.525390
O40   O     O_R   0.097040 0.077741 0.825822 -0.661922
H42   H     H_    0.988934 0.080507 0.805173 0.342474
C103  C     C_2   0.898947 0.174864 0.886055 0.830573
O41   O     O_2   0.930612 0.197387 0.858125 -0.524461
O42   O     O_R   0.032408 0.177169 0.919114 -0.666600
H43   H     H_    0.147539 0.198214 0.916066 0.332554
C104  C     C_2   0.859631 0.139630 0.074784 0.782080
O43   O     O_2   0.026046 0.149574 0.085958 -0.555441
O44   O     O_R   0.811738 0.131871 0.031734 -0.655944
H44   H     H_    0.927805 0.134439 0.013083 0.303985
C105  C     C_2   0.733819 0.924162 0.866462 0.731357
O45   O     O_2   0.604225 0.923987 0.892203 -0.557285
O46   O     O_R   0.722955 0.953529 0.836558 -0.644026
H45   H     H_    0.603351 0.973977 0.840186 0.306663
N7    N     N_3   0.263614 0.245640 0.198840 -0.655435
H46   H     H_    0.141850 0.242370 0.217248 0.236790
H47   H     H_    0.255236 0.278131 0.188944 0.244351
N8    N     N_3   0.936903 0.254505 0.300942 -0.663355
H48   H     H_    0.000327 0.287853 0.302498 0.227384
H49   H     H_    0.899674 0.250860 0.331678 0.254389
C106  C     C_2   0.551366 0.334546 0.443547 0.767670
O47   O     O_2   0.581428 0.293881 0.447800 -0.530105
O48   O     O_R   0.472531 0.366590 0.477228 -0.665375
H50   H     H_    0.448715 0.352075 0.503180 0.306257
C107  C     C_2   0.735538 0.455928 0.353855 0.804764
O49   O     O_2   0.643786 0.489300 0.373120 -0.562701
O50   O     O_R   0.886010 0.463958 0.327039 -0.629148
H51   H     H_    0.905474 0.498748 0.326412 0.322884
N9    N     N_3   0.721520 0.381753 0.281225 -0.607710
H52   H     H_    0.834717 0.360328 0.267575 0.237286
H53   H     H_    0.599570 0.374031 0.261933 0.238344

loop_
_geom_bond_atom_site_label_1
_geom_bond_atom_site_label_2
_ccdc_geom_bond_type
C49   O15   S    
C105  O45   D    
C43   H18   S    
C9    C105  S    
N5    H33   S    
C2    C89   S    
C40   C41   A    
O44   H44   S    
C13   C22   S    
C37   C42   A    
C56   C57   A    
N3    C74   S    
C77   C78   A    
C102  O40   S    
O27   C96   A    
C33   C34   A    
C73   C74   A    
C55   H21   S    
C106  O47   D    
C71   C72   A    
O40   H42   S    
C105  O46   S    
C11   H4    S    
C76   H27   S    
C23   O11   S    
C46   H20   S    
C8    C9    A    
C7    C8    A    
C17   H8    S    
C6    C7    A    
C69   C74   A    
O23   V3    S    
C35   O13   S    
O5    C3    A    
C18   H9    S    
O32   H36   S    
C43   C44   A    
C33   N5    S    
O30   H35   S    
O42   H43   S    
C67   C68   A    
C58   C59   A    
C59   H22   S    
N6    H39   S    
C20   H10   S    
O22   V3    S    
C37   C38   A    
C64   H23   S    
C41   H17   S    
C69   C102  S    
C63   C68   A    
C5    C6    A    
C52   C57   A    
O36   H38   S    
C90   C107  S    
O8    V2    S    
O25   V3    S    
C93   O24   A    
C91   C92   A    
O24   V4    S    
C100  O36   S    
C12   C13   A    
N1    C24   A    
C14   C15   A    
C80   C93   S    
O1    V2    S    
O22   C94   A    
C29   H13   S    
C77   C86   S    
O25   V4    S    
C58   C62   A    
C91   N9    S    
V3    O28   S    
O21   C96   A    
C99   O34   S    
C1    C65   S    
C83   C84   A    
C81   N7    S    
C35   N2    A    
N5    H34   S    
O1    C2    A    
O9    C4    A    
C70   H25   S    
C20   C21   A    
C73   C103  S    
C37   H15   S    
C83   C92   S    
C10   C95   S    
O4    V1    S    
C65   C66   A    
O27   V4    S    
C98   O32   S    
C89   C90   A    
C64   C65   A    
C30   C35   A    
C106  O48   S    
C40   H16   S    
N2    C42   S    
C47   C98   S    
C101  O38   S    
C90   C91   A    
N7    H46   S    
N4    C62   A    
C87   C92   A    
C82   H30   S    
C9    C10   A    
C44   C45   A    
C28   H12   S    
C52   C53   A    
O4    C2    A    
C56   C61   A    
C44   H19   S    
C24   O12   S    
C103  O41   D    
C26   C27   A    
C107  O49   D    
O46   H45   S    
C23   C27   A    
C84   N8    S    
C71   C94   S    
C102  O39   D    
C66   C67   A    
N2    C36   A    
O2    C1    A    
C21   H11   S    
O21   V3    S    
O23   C95   A    
N9    H52   S    
C67   C101  S    
C36   O14   S    
O26   C95   A    
C85   H31   S    
C25   C28   A    
C57   C58   A    
C31   C32   A    
C5    H1    S    
C3    C45   S    
C17   C22   A    
C27   C34   A    
C23   N1    A    
C41   C42   A    
C72   H26   S    
O3    C4    A    
O19   V4    S    
C63   N6    S    
C34   H14   S    
C19   C20   A    
C46   C47   A    
C45   C46   A    
O6    V2    S    
N8    H49   S    
C38   C97   S    
O9    V2    S    
C50   O16   S    
C75   C76   A    
C25   C26   A    
O20   C93   A    
C97   O29   D    
C32   C33   A    
C79   H29   S    
O2    V1    S    
C62   O18   S    
O50   H51   S    
C87   C88   A    
C17   C18   A    
C28   C29   A    
C51   C54   A    
N7    H47   S    
C66   H24   S    
O7    V1    S    
C75   C80   A    
O38   H41   S    
C82   C83   A    
C30   C31   A    
C12   H5    S    
C76   C77   A    
O20   V3    S    
C32   C36   A    
C61   O17   S    
C14   H6    S    
C8    H3    S    
C39   C40   A    
C79   C80   A    
C47   C48   A    
O5    V1    S    
O8    C3    A    
C1    O6    A    
C53   C60   A    
C29   C30   A    
C81   C82   A    
C7    C16   S    
C107  O50   S    
C54   C55   A    
C54   C99   S    
C11   C12   A    
C26   C31   A    
N6    H40   S    
C88   C89   A    
C5    C10   A    
C6    H2    S    
C99   O33   D    
N1    C48   S    
C78   H28   S    
C60   C100  S    
C21   C22   A    
O3    V1    S    
V1    O10   S    
C69   C70   A    
C81   C86   A    
C18   C19   A    
C85   C86   A    
C43   C48   A    
C51   C52   A    
C13   C14   A    
C88   C106  S    
C24   C25   A    
C97   O30   S    
C61   N4    A    
C15   C16   A    
C15   H7    S    
O26   V4    S    
N8    H48   S    
O48   H50   S    
O19   C94   A    
C55   C56   A    
C70   C71   A    
C72   C73   A    
V4    O28   S    
C84   C85   A    
C4    C19   S    
C98   O31   D    
C11   C16   A    
C104  O43   D    
C38   C39   A    
N3    C50   A    
C75   C104  S    
C49   N3    A    
N9    H53   S    
C59   C60   A    
C63   C64   A    
C104  O44   S    
N4    C68   S    
C39   C96   S    
C87   H32   S    
C101  O37   D    
C103  O42   S    
C50   C51   A    
C49   C53   A    
C100  O35   D    
V2    O10   S    
O7    V2    S    
O34   H37   S    
C78   C79   A    
