data_mof_unit_28465.cif
_audit_creation_date              2012-12-11T16:41:18-0500
_audit_creation_method            fapswitch 2.2
_symmetry_space_group_name_H-M    P1
_symmetry_Int_Tables_number       1
_space_group_crystal_system       triclinic
_cell_length_a                    6.927524
_cell_length_b                    23.178474
_cell_length_c                    23.608708
_cell_angle_alpha                 112.64541
_cell_angle_beta                  89.220998
_cell_angle_gamma                 89.820987
_cell_volume                      3498.11678607

loop_
_atom_site_label
_atom_site_type_symbol
_atom_type_description
_atom_site_fract_x
_atom_site_fract_y
_atom_site_fract_z
_atom_type_partial_charge
O1    O     O_R   0.505740 0.453370 0.547760 -0.542053
O2    O     O_R   0.169520 0.427650 0.423350 -0.536829
O3    O     O_R   0.005620 0.546630 0.452240 -0.541360
C1    C     C_R   0.341474 0.409623 0.398904 0.689512
O4    O     O_R   0.175610 0.445960 0.545510 -0.513666
O5    O     O_R   0.011740 0.565080 0.575280 -0.537092
C2    C     C_R   0.344249 0.433171 0.561709 0.715074
O6    O     O_R   0.499610 0.434920 0.424720 -0.538591
O7    O     O_3   0.341310 0.539060 0.509620 -0.372896
V1    V     V_3+5 0.063960 0.492750 0.498220 1.429597
O8    O     O_R   0.682400 0.572350 0.576650 -0.544400
C3    C     C_R   0.848701 0.591001 0.600915 0.702210
O9    O     O_R   0.676320 0.554040 0.454490 -0.543807
C4    C     C_R   0.845537 0.566021 0.437550 0.685719
V2    V     V_3+5 0.564740 0.507250 0.501780 1.401599
O10   O     O_3   0.837250 0.460940 0.490380 -0.355945
C5    C     C_R   0.772610 0.875716 0.114560 -0.161389
H1    H     H_    0.640189 0.887596 0.097541 0.120321
C6    C     C_R   0.761237 0.840077 0.150729 -0.144090
H2    H     H_    0.620706 0.824973 0.159896 0.099988
C7    C     C_R   0.929060 0.823357 0.173934 0.094507
C8    C     C_R   0.108763 0.842991 0.159627 -0.142563
H3    H     H_    0.240763 0.831846 0.177422 0.098886
C9    C     C_R   0.120249 0.878453 0.123244 -0.163440
H4    H     H_    0.260956 0.893095 0.113622 0.117002
C10   C     C_R   0.952245 0.895439 0.100342 -0.055490
C11   C     C_R   0.056307 0.739738 0.207639 -0.151412
H5    H     H_    0.173460 0.730072 0.174360 0.110626
C12   C     C_R   0.044471 0.704531 0.244237 -0.152804
H6    H     H_    0.152873 0.668775 0.238058 0.109036
C13   C     C_R   0.892567 0.714394 0.287234 0.081185
C14   C     C_R   0.752808 0.760456 0.292571 -0.151871
H7    H     H_    0.635653 0.770120 0.325849 0.110026
C15   C     C_R   0.764645 0.795663 0.255972 -0.153456
H8    H     H_    0.656241 0.831419 0.262149 0.108276
C16   C     C_R   0.916551 0.785801 0.212976 0.081119
C17   C     C_R   0.700377 0.657184 0.340571 -0.142229
H9    H     H_    0.568368 0.668336 0.322786 0.099104
C18   C     C_R   0.688920 0.621694 0.376928 -0.163218
H10   H     H_    0.548226 0.607036 0.386540 0.117014
C19   C     C_R   0.856943 0.604692 0.399809 -0.054422
C20   C     C_R   0.036561 0.624439 0.385606 -0.161297
H11   H     H_    0.168996 0.612551 0.402611 0.119959
C21   C     C_R   0.047905 0.660107 0.349465 -0.144202
H12   H     H_    0.188427 0.675222 0.340305 0.099828
C22   C     C_R   0.880069 0.676832 0.326270 0.094496
C23   C     C_R   0.845864 0.646743 0.659984 -0.070745
C24   C     C_R   0.963441 0.853143 0.840089 -0.070192
C25   C     C_R   0.147935 0.783002 0.750855 -0.200839
C26   C     C_R   0.134516 0.837425 0.804102 -0.166493
C27   C     C_R   0.804206 0.813097 0.820948 -0.238061
C28   C     C_R   0.817894 0.757605 0.767673 0.159853
C29   C     C_R   0.991414 0.742274 0.732407 0.160283
C30   C     C_R   0.005100 0.686786 0.679130 -0.238683
C31   C     C_R   0.674793 0.662454 0.695972 -0.166169
C32   C     C_R   0.661375 0.716875 0.749224 -0.200573
H13   H     H_    0.137370 0.675723 0.651853 0.123003
H14   H     H_    0.549608 0.632588 0.682758 0.128044
H15   H     H_    0.281484 0.772607 0.724291 0.122863
H16   H     H_    0.527826 0.727267 0.775788 0.123008
H17   H     H_    0.259702 0.867291 0.817311 0.128502
H18   H     H_    0.671934 0.824165 0.848224 0.123667
C33   C     C_R   0.369540 0.356885 0.338203 -0.065006
C34   C     C_R   0.439883 0.142976 0.161947 -0.067672
C35   C     C_R   0.235386 0.189994 0.254111 -0.187445
C36   C     C_R   0.289772 0.138731 0.201103 -0.156782
C37   C     C_R   0.537773 0.199997 0.177869 -0.236806
C38   C     C_R   0.481515 0.252330 0.230989 0.154521
C39   C     C_R   0.328214 0.247459 0.269310 0.156598
C40   C     C_R   0.271911 0.299820 0.322413 -0.242249
C41   C     C_R   0.519677 0.361094 0.299049 -0.155452
C42   C     C_R   0.574301 0.309788 0.246143 -0.186584
H19   H     H_    0.158668 0.295411 0.352602 0.113246
H20   H     H_    0.598471 0.404300 0.310237 0.119417
H21   H     H_    0.118320 0.184883 0.282689 0.117938
H22   H     H_    0.691399 0.314885 0.217569 0.119945
H23   H     H_    0.210837 0.095542 0.189841 0.118929
H24   H     H_    0.651098 0.204426 0.147723 0.117644
C43   C     C_R   0.284050 0.107448 0.869264 -0.163756
H25   H     H_    0.156104 0.082967 0.874240 0.121679
C44   C     C_R   0.275382 0.141986 0.832023 -0.147598
H26   H     H_    0.140989 0.143738 0.809785 0.108270
C45   C     C_R   0.437462 0.174577 0.824120 0.109539
C46   C     C_R   0.608795 0.171764 0.854265 -0.145818
H27   H     H_    0.736369 0.196051 0.848629 0.108804
C47   C     C_R   0.618469 0.136444 0.890875 -0.168519
H28   H     H_    0.753212 0.134793 0.912956 0.122997
C48   C     C_R   0.455987 0.103889 0.898958 -0.053664
C49   C     C_R   0.497320 0.272211 0.804335 -0.157947
H29   H     H_    0.558669 0.293942 0.849538 0.122399
C50   C     C_R   0.483391 0.306796 0.767268 -0.216039
H30   H     H_    0.533293 0.354625 0.785144 0.129696
C51   C     C_R   0.402456 0.280751 0.708483 0.063359
C52   C     C_R   0.338381 0.217946 0.686921 0.305296
C53   C     C_R   0.347700 0.184362 0.725441 -0.222987
H31   H     H_    0.297572 0.136541 0.708694 0.115130
C54   C     C_R   0.427507 0.210932 0.784152 0.044779
C55   C     C_R   0.214435 0.319815 0.639139 -0.162322
H32   H     H_    0.092747 0.292104 0.642678 0.134097
C56   C     C_R   0.199529 0.354401 0.601657 0.268556
C57   C     C_R   0.354416 0.393016 0.598311 -0.082859
C58   C     C_R   0.522781 0.393652 0.631316 -0.230887
H33   H     H_    0.643825 0.422617 0.630065 0.148416
C59   C     C_R   0.538209 0.357332 0.666621 -0.183903
H34   H     H_    0.671741 0.358229 0.690267 0.119219
C60   C     C_R   0.384550 0.319843 0.670946 0.079570
O11   O     O_R   0.309730 0.065160 0.075230 -0.536720
O12   O     O_R   0.633800 0.053970 0.954410 -0.542620
O13   O     O_R   0.797580 0.934860 0.924760 -0.536182
C61   C     C_R   0.465283 0.065787 0.937324 0.689492
O14   O     O_R   0.639820 0.072410 0.076610 -0.536617
O15   O     O_R   0.803650 0.953440 0.047830 -0.539932
C62   C     C_R   0.467883 0.090342 0.101141 0.700528
O16   O     O_R   0.303670 0.046590 0.952160 -0.538615
O17   O     O_3   0.468000 0.960960 0.990410 -0.368978
V3    V     V_3+5 0.745380 0.007240 0.001780 1.401900
O18   O     O_R   0.132940 0.946010 0.045600 -0.543056
C63   C     C_R   0.963703 0.934061 0.062553 0.689966
O19   O     O_R   0.126920 0.927560 0.923400 -0.543590
C64   C     C_R   0.960609 0.908905 0.899143 0.702027
V4    V     V_3+5 0.244590 0.992720 0.998240 1.399060
O20   O     O_3   0.972110 0.039040 0.009600 -0.364505
N1    N     N_2   0.267759 0.187665 0.626300 -0.537239
H35   H     H_    0.169988 0.152700 0.621661 0.251733
C65   C     C_3   0.416381 0.167722 0.578898 -0.551796
H36   H     H_    0.348184 0.147459 0.533199 0.195474
H37   H     H_    0.510476 0.131580 0.584822 0.191676
H38   H     H_    0.505851 0.207876 0.580231 0.212071
N2    N     N_2   0.029584 0.348886 0.566795 -0.507839
H39   H     H_    0.907006 0.340262 0.587425 0.246909
C66   C     C_3   0.048592 0.305930 0.503411 -0.506042
H40   H     H_    0.072197 0.257522 0.500867 0.181675
H41   H     H_    0.171063 0.319211 0.480188 0.181382
H42   H     H_    0.914375 0.307198 0.478712 0.190062

loop_
_geom_bond_atom_site_label_1
_geom_bond_atom_site_label_2
_ccdc_geom_bond_type
C31   C32   A    
C25   C29   A    
C57   C58   A    
O17   V4    S    
C11   C12   A    
C19   C20   A    
C53   H31   S    
C42   H22   S    
C66   H42   S    
C59   C60   A    
C44   H26   S    
N1    H35   S    
C24   C64   S    
C7    C16   S    
C29   C30   A    
C21   H12   S    
C27   H18   S    
C1    C33   S    
C51   C52   A    
V3    O20   S    
C5    C10   A    
C23   C31   A    
C6    C7    A    
C17   H9    S    
C9    C10   A    
O5    C3    A    
C47   C48   A    
N1    C65   S    
V2    O10   S    
C55   H32   S    
C15   H8    S    
O18   V4    S    
C43   C48   A    
O13   V3    S    
O16   V4    S    
O8    V2    S    
C24   C27   A    
O11   C62   A    
C45   C46   A    
C38   C39   A    
C13   C22   S    
C65   H38   S    
O14   V3    S    
O1    V2    S    
C49   C50   A    
O7    V1    S    
C61   O16   A    
C1    O6    A    
C48   C61   S    
C52   N1    S    
C24   C26   A    
O1    C2    A    
C7    C8    A    
C58   H33   S    
C37   H24   S    
C20   C21   A    
C3    C23   S    
C59   H34   S    
C44   C45   A    
C21   C22   A    
O19   V4    S    
C37   C38   A    
C34   C37   A    
C9    H4    S    
C18   C19   A    
C49   H29   S    
C50   H30   S    
C43   C44   A    
C56   N2    S    
C32   H16   S    
C49   C54   A    
C14   C15   A    
O2    C1    A    
C12   H6    S    
C51   C60   S    
C50   C51   A    
C13   C14   A    
C33   C40   A    
C38   C42   A    
C40   H19   S    
C5    H1    S    
C52   C53   A    
O14   C62   A    
C46   H27   S    
O19   C64   A    
C58   C59   A    
V4    O20   S    
O3    C4    A    
C23   C30   A    
C33   C41   A    
C35   C36   A    
O6    V2    S    
C55   C56   A    
C4    C19   S    
C45   C54   S    
C65   H36   S    
C8    C9    A    
C20   H11   S    
O11   V4    S    
C66   H40   S    
O2    V1    S    
O15   V3    S    
C28   C29   A    
O4    C2    A    
N2    H39   S    
C36   H23   S    
C34   C62   S    
C47   H28   S    
C10   C63   S    
C46   C47   A    
C66   H41   S    
C55   C60   A    
O5    V1    S    
C41   H20   S    
O8    C3    A    
C53   C54   A    
C11   C16   A    
C25   H15   S    
C14   H7    S    
O12   V3    S    
C6    H2    S    
O9    V2    S    
O7    V2    S    
C27   C28   A    
C17   C18   A    
O3    V1    S    
V1    O10   S    
O18   C63   A    
O15   C63   A    
C35   C39   A    
C56   C57   A    
C5    C6    A    
O12   C61   A    
C15   C16   A    
C39   C40   A    
C43   H25   S    
C18   H10   S    
C28   C32   A    
O4    V1    S    
C41   C42   A    
C12   C13   A    
C25   C26   A    
C2    C57   S    
C31   H14   S    
C11   H5    S    
C65   H37   S    
C26   H17   S    
C8    H3    S    
C17   C22   A    
O9    C4    A    
C35   H21   S    
O17   V3    S    
O13   C64   A    
C34   C36   A    
N2    C66   S    
C30   H13   S    
