data_mof_unit_27166.cif
_audit_creation_date              2012-12-10T19:16:17-0500
_audit_creation_method            fapswitch 2.2
_symmetry_space_group_name_H-M    P1
_symmetry_Int_Tables_number       1
_space_group_crystal_system       triclinic
_cell_length_a                    11.040826
_cell_length_b                    9.822399
_cell_length_c                    26.952187
_cell_angle_alpha                 90.290883
_cell_angle_beta                  87.492366
_cell_angle_gamma                 91.347456
_cell_volume                      2919.26414074

loop_
_atom_site_label
_atom_site_type_symbol
_atom_type_description
_atom_site_fract_x
_atom_site_fract_y
_atom_site_fract_z
_atom_type_partial_charge
C1    C     C_R   0.258999 0.498420 0.503712 0.917020
C2    C     C_R   0.519519 0.430618 0.263952 -0.129024
C3    C     C_R   0.591056 0.543343 0.248569 0.258923
C4    C     C_R   0.701551 0.579148 0.097675 -0.086786
C5    C     C_R   0.733633 0.465070 0.125218 -0.036520
C6    C     C_R   0.801027 0.361816 0.102116 -0.199526
C7    C     C_R   0.643416 0.689981 0.121823 -0.043559
C8    C     C_R   0.518097 0.511273 0.349711 -0.095788
C9    C     C_R   0.540612 0.502748 0.644826 -0.075870
C10   C     C_R   0.752144 0.447487 0.969916 0.040572
C11   C     C_R   0.715711 0.692952 0.965452 0.060842
C12   C     C_R   0.496983 0.500636 0.404829 0.930734
C13   C     C_R   0.730057 0.564979 0.941778 0.074053
C14   C     C_R   0.742477 0.319105 0.946696 -0.211045
C15   C     C_R   0.725101 0.307398 0.896048 -0.131465
C16   C     C_R   0.711333 0.423800 0.867328 -0.019557
C17   C     C_R   0.714346 0.553166 0.890115 -0.052977
C18   C     C_R   0.695494 0.670163 0.861749 -0.018986
C19   C     C_R   0.669605 0.655241 0.811614 0.516814
C20   C     C_R   0.685761 0.413738 0.816949 0.544972
C21   C     C_R   0.499216 0.489318 0.733162 0.213280
C22   C     C_R   0.458511 0.482320 0.684953 -0.270648
C23   C     C_R   0.744314 0.501456 0.499492 0.868081
C24   C     C_R   0.663704 0.526942 0.652360 -0.197723
C25   C     C_R   0.706710 0.532517 0.700291 0.187364
C26   C     C_R   0.623187 0.515107 0.741060 0.227251
C27   C     C_R   0.768680 0.460888 0.021535 0.030275
C28   C     C_R   0.724690 0.579797 0.045714 0.035895
C29   C     C_R   0.700162 0.696990 0.017946 0.024934
C30   C     C_R   0.824316 0.360882 0.050661 0.138968
C31   C     C_R   0.626180 0.811303 0.094389 0.185061
C32   C     C_R   0.708156 0.809998 0.935541 -0.221093
C33   C     C_R   0.698529 0.798507 0.884432 -0.120599
C34   C     C_R   0.501876 0.500377 0.594225 0.866362
C35   C     C_R   0.654781 0.812063 0.043227 -0.242249
C36   C     C_3   0.076438 0.626418 0.527914 -0.468303
C37   C     C_3   0.067260 0.376343 0.533477 -0.445487
C38   C     C_3   0.937962 0.614382 0.535588 -0.016236
C39   C     C_3   0.929093 0.367254 0.524561 -0.008980
C40   C     C_3   0.087516 0.481964 0.447082 0.165242
C41   C     C_3   0.125262 0.495922 0.502451 -0.016330
C42   C     C_3   0.883961 0.502963 0.498570 -0.031995
C43   C     C_3   0.948459 0.522538 0.443088 0.209089
C44   C     C_3   0.375045 0.077208 0.497375 -0.235231
C45   C     C_3   0.374742 0.916860 0.506229 -0.227790
C46   C     C_3   0.578547 0.072984 0.458006 0.136596
C47   C     C_3   0.547582 0.919477 0.451004 0.076266
C48   C     C_3   0.547622 0.083495 0.545608 -0.298120
C49   C     C_3   0.566348 0.923547 0.540960 -0.312240
C50   C     C_R   0.700840 0.458498 0.175808 0.518930
C51   C     C_R   0.602494 0.671730 0.171948 0.507298
C52   C     C_R   0.622166 0.642326 0.283066 -0.084448
C53   C     C_R   0.584612 0.627547 0.332421 -0.221099
C54   C     C_R   0.482642 0.413424 0.313947 0.199889
H1    H     H_    0.677926 0.729975 0.271825 0.163591
H2    H     H_    0.708995 0.911876 0.950691 0.134347
H3    H     H_    0.726298 0.541992 0.620650 0.142692
H4    H     H_    0.688770 0.890467 0.863072 0.195158
H5    H     H_    0.635188 0.903065 0.023238 0.135303
H6    H     H_    0.105396 0.718925 0.506920 0.218993
H7    H     H_    0.112001 0.278254 0.525684 0.240129
H8    H     H_    0.116512 0.639563 0.564958 0.181982
H9    H     H_    0.081149 0.394523 0.573701 0.154595
H10   H     H_    0.920482 0.574942 0.573947 0.135995
H11   H     H_    0.881424 0.360281 0.561764 0.130086
H12   H     H_    0.492280 0.356026 0.236623 0.165267
H13   H     H_    0.336786 0.099900 0.461062 0.224777
H14   H     H_    0.309676 0.865117 0.481870 0.206652
H15   H     H_    0.314407 0.125368 0.526073 0.164298
H16   H     H_    0.337753 0.894149 0.544505 0.153271
H17   H     H_    0.634606 0.136077 0.553878 0.209548
H18   H     H_    0.662872 0.906903 0.533888 0.208990
H19   H     H_    0.484808 0.105323 0.577990 0.179390
H20   H     H_    0.538688 0.873164 0.576606 0.206652
H21   H     H_    0.671523 0.072923 0.470469 0.138294
H22   H     H_    0.629445 0.866091 0.439069 0.116122
H23   H     H_    0.837250 0.282054 0.124365 0.184618
H24   H     H_    0.363231 0.463434 0.678836 0.156683
H25   H     H_    0.717010 0.206424 0.879975 0.184954
H26   H     H_    0.736494 0.226495 0.967943 0.137343
H27   H     H_    0.616105 0.704707 0.357680 0.182800
N1    N     N_R   0.632087 0.557923 0.197531 -0.343713
N2    N     N_R   0.662571 0.528304 0.790741 -0.353540
N3    N     N_3   0.499750 0.138610 0.498940 -0.078492
N4    N     N_3   0.499750 0.861390 0.498940 -0.087437
O1    O     O_R   0.314910 0.616040 0.499990 -0.621086
O2    O     O_R   0.314910 0.383960 0.499990 -0.610961
O3    O     O_R   0.500140 0.616020 0.428740 -0.602746
O4    O     O_R   0.500140 0.383980 0.428740 -0.554719
O5    O     O_R   0.685320 0.616040 0.499970 -0.606804
O6    O     O_R   0.685320 0.383960 0.499970 -0.596156
O7    O     O_R   0.500090 0.616050 0.571230 -0.614181
O8    O     O_R   0.500090 0.383950 0.571230 -0.623743
O9    O     O_2   0.736220 0.352858 0.203114 -0.567326
O10   O     O_2   0.681264 0.290646 0.794543 -0.539333
O11   O     O_2   0.529825 0.763136 0.194758 -0.551335
O12   O     O_2   0.648856 0.766095 0.784118 -0.535467
Zn1   Zn    Zn3+2 0.500150 0.654960 0.499980 0.947819
Zn2   Zn    Zn3+2 0.500150 0.345040 0.499980 0.978852
I1    I     I_    0.367334 0.243192 0.327066 -0.188077
C55   C     C_3   0.582402 0.944507 0.117276 -0.371903
C56   C     C_3   0.677294 0.009648 0.150156 -0.732454
H28   H     H_    0.698831 0.941880 0.181180 0.279163
H29   H     H_    0.762024 0.032510 0.127691 0.229101
H30   H     H_    0.642431 0.106399 0.166006 0.272810
H31   H     H_    0.564936 0.020153 0.088027 0.177993
H32   H     H_    0.493496 0.931019 0.137498 0.260147
C57   C     C_3   0.840764 0.558977 0.706657 -0.388678
C58   C     C_3   0.914340 0.435004 0.691114 -0.829481
H33   H     H_    0.885093 0.345661 0.714140 0.295407
H34   H     H_    0.902643 0.410194 0.651374 0.241277
H35   H     H_    0.012062 0.456843 0.696463 0.255402
H36   H     H_    0.871794 0.647900 0.683694 0.230237
H37   H     H_    0.860528 0.584609 0.745648 0.218776
I2    I     I_    0.875052 0.807882 0.558146 -0.439552
I3    I     I_    0.886158 0.164486 0.500748 -0.400175
I4    I     I_    0.208448 0.588835 0.392716 -0.317840
I5    I     I_    0.134936 0.274313 0.421679 -0.293200
C59   C     C_3   0.947295 0.675453 0.423343 -0.297479
C60   C     C_3   0.831415 0.756147 0.425035 -0.822641
H38   H     H_    0.750352 0.693125 0.419280 0.262614
H39   H     H_    0.819992 0.812197 0.460153 0.295433
H40   H     H_    0.837044 0.834604 0.395383 0.250880
H41   H     H_    0.015083 0.741569 0.440951 0.229710
H42   H     H_    0.976490 0.675207 0.383409 0.229835
C61   C     C_3   0.898468 0.426308 0.401373 -0.357658
C62   C     C_3   0.792934 0.471216 0.372887 -0.856256
H43   H     H_    0.717092 0.480997 0.399805 0.261625
H44   H     H_    0.814216 0.566074 0.351953 0.264379
H45   H     H_    0.770357 0.393734 0.344490 0.294264
H46   H     H_    0.969295 0.415133 0.371174 0.256700
H47   H     H_    0.875446 0.324392 0.416175 0.273544
I6    I     I_    0.643412 0.162996 0.389715 -0.309897
I7    I     I_    0.426668 0.892323 0.388763 -0.237041
I8    I     I_    0.369741 0.464768 0.793053 -0.318803
C63   C     C_3   0.923999 0.267801 0.030540 -0.422005
C64   C     C_3   0.027184 0.348094 0.003659 -0.784223
H48   H     H_    0.996250 0.394119 0.969051 0.265586
H49   H     H_    0.062221 0.429885 0.028185 0.260563
H50   H     H_    0.102381 0.278720 0.993517 0.249476
H51   H     H_    0.964737 0.213260 0.061558 0.206861
H52   H     H_    0.890566 0.185474 0.006394 0.198383

loop_
_geom_bond_atom_site_label_1
_geom_bond_atom_site_label_2
_ccdc_geom_bond_type
C10   C27   A    
C1    O2    A    
C40   I5    S    
C21   C26   A    
C55   H32   S    
C61   C62   S    
C34   O8    A    
C19   O12   S    
O7    Zn1   S    
C59   H41   S    
C60   H38   S    
C64   H49   S    
C26   N2    S    
C23   C42   S    
O4    Zn2   S    
C47   N4    S    
C53   H27   S    
C28   C29   A    
C47   H22   S    
C38   C42   S    
C58   H34   S    
C5    C6    A    
C36   H8    S    
C9    C22   A    
C15   C16   A    
C1    O1    A    
C57   C58   S    
C56   H30   S    
C35   H5    S    
C18   C19   A    
C57   H37   S    
C63   H52   S    
N4    Zn1   S    
C4    C28   A    
C40   C43   S    
C15   H25   S    
C24   H3    S    
C49   H18   S    
C14   H26   S    
O8    Zn2   S    
C38   H10   S    
C60   H40   S    
C16   C20   A    
C51   O11   S    
C40   I4    S    
C21   C22   A    
C27   C30   A    
C32   H2    S    
C39   H11   S    
C54   I1    S    
C36   C41   S    
C3    N1    S    
C4    C7    A    
C19   N2    A    
C43   C61   S    
C46   H21   S    
C37   H9    S    
C60   H39   S    
C39   C42   S    
O2    Zn2   S    
C64   H50   S    
C7    C31   A    
C12   O3    A    
C55   C56   S    
C49   N4    S    
C12   O4    A    
C24   C25   A    
C22   H24   S    
C10   C14   A    
C58   H35   S    
C8    C54   A    
C16   C17   A    
C6    H23   S    
C36   H6    S    
C25   C26   A    
C48   N3    S    
C57   H36   S    
C45   N4    S    
C62   H44   S    
C63   H51   S    
C61   H47   S    
C8    C12   S    
C45   H14   S    
C17   C18   A    
C23   O5    A    
C44   H15   S    
C59   C60   S    
C56   H29   S    
C51   N1    A    
C46   N3    S    
C59   H42   S    
C1    C41   S    
C48   C49   S    
C6    C30   A    
C20   O10   S    
C11   C32   A    
C30   C63   S    
C47   I7    S    
C2    C54   A    
C9    C34   S    
C31   C35   A    
C5    C50   A    
C42   C43   S    
C48   H17   S    
C62   H43   S    
C31   C55   S    
C52   C53   A    
C50   N1    A    
C55   H31   S    
C46   C47   S    
C40   C41   S    
C45   H16   S    
C14   C15   A    
N3    Zn2   S    
C48   H19   S    
C50   O9    S    
C44   C45   S    
C63   C64   S    
C2    H12   S    
C10   C13   A    
C8    C53   A    
C37   H7    S    
C3    C52   A    
C52   H1    S    
C9    C24   A    
C44   N3    S    
C64   H48   S    
C29   C35   A    
C13   C17   A    
C33   H4    S    
C32   C33   A    
C36   C38   S    
C2    C3    A    
C62   H45   S    
C7    C51   A    
C37   C39   S    
C58   H33   S    
C46   I6    S    
C38   I2    S    
C11   C13   A    
C61   H46   S    
C21   I8    S    
C23   O6    A    
C37   C41   S    
C56   H28   S    
O1    Zn1   S    
C18   C33   A    
C34   O7    A    
C4    C5    A    
C11   C29   A    
C39   I3    S    
C20   N2    A    
C27   C28   A    
C49   H20   S    
C44   H13   S    
O6    Zn2   S    
O5    Zn1   S    
O3    Zn1   S    
C25   C57   S    
C43   C59   S    
