data_mof_unit_25411.cif
_audit_creation_date              2012-12-10T18:42:31-0500
_audit_creation_method            fapswitch 2.2
_symmetry_space_group_name_H-M    P1
_symmetry_Int_Tables_number       1
_space_group_crystal_system       triclinic
_cell_length_a                    8.670941
_cell_length_b                    10.610948
_cell_length_c                    9.941642
_cell_angle_alpha                 89.283175
_cell_angle_beta                  98.770964
_cell_angle_gamma                 91.456251
_cell_volume                      903.67651168

loop_
_atom_site_label
_atom_site_type_symbol
_atom_type_description
_atom_site_fract_x
_atom_site_fract_y
_atom_site_fract_z
_atom_type_partial_charge
C1    C     C_R   0.501904 0.260502 0.500719 0.944427
C2    C     C_R   0.498685 0.739392 0.499221 0.916656
C3    C     C_R   0.201629 0.499628 0.464309 0.866257
C4    C     C_R   0.798331 0.500898 0.535755 0.877510
C5    C     C_2   0.037247 0.512827 0.446257 0.198510
C6    C     C_2   0.962699 0.488696 0.554222 0.211681
C7    C     C_R   0.604406 0.067085 0.426473 0.566172
C8    C     C_R   0.390582 0.933263 0.565918 0.578421
C9    C     C_R   0.602105 0.936610 0.428289 -0.404075
C10   C     C_R   0.397709 0.062752 0.570029 -0.390047
C11   C     C_R   0.496089 0.871745 0.497377 -0.188262
C12   C     C_R   0.503666 0.127905 0.501005 -0.185884
C13   C     C_R   0.554968 0.602649 0.077854 -0.042264
C14   C     C_R   0.444103 0.397594 0.924051 -0.082804
C15   C     C_R   0.555805 0.602510 0.934097 0.503409
C16   C     C_R   0.441125 0.398929 0.066692 0.538257
H1    H     H_    0.685239 0.885561 0.380139 0.179808
H2    H     H_    0.318163 0.112229 0.623776 0.183210
N1    N     N_R   0.499960 0.499970 0.857200 -0.160100
N2    N     N_R   0.500040 0.500030 0.142800 -0.152299
O1    O     O_R   0.499990 0.316750 0.614620 -0.662578
O2    O     O_R   0.500010 0.683250 0.385380 -0.610517
O3    O     O_R   0.499990 0.316780 0.385290 -0.529711
O4    O     O_R   0.500010 0.683220 0.614710 -0.526124
O5    O     O_R   0.271750 0.499990 0.587840 -0.587688
O6    O     O_R   0.728250 0.500010 0.412160 -0.564334
O7    O     O_R   0.271750 0.500010 0.358510 -0.619866
O8    O     O_R   0.728250 0.499990 0.641490 -0.631235
Zn1   Zn    Zn3+2 0.500000 0.499980 0.653120 0.983359
Zn2   Zn    Zn3+2 0.500000 0.500020 0.346880 1.010412
O9    O     O_3   0.965233 0.574973 0.330017 -0.629354
C17   C     C_3   0.962128 0.498378 0.214216 -0.243302
H3    H     H_    0.974200 0.395669 0.237739 0.137442
H4    H     H_    0.053861 0.532164 0.155042 0.165745
H5    H     H_    0.848459 0.508665 0.148069 0.165322
O10   O     O_3   0.034377 0.426822 0.670718 -0.618054
C18   C     C_3   0.040824 0.505363 0.785387 -0.256785
H6    H     H_    0.942982 0.480407 0.841451 0.168674
H7    H     H_    0.042361 0.608131 0.760580 0.136585
H8    H     H_    0.150016 0.487440 0.855270 0.174460
O11   O     O_3   0.714128 0.137131 0.366770 -0.606185
C19   C     C_3   0.712237 0.101057 0.230238 -0.261729
H9    H     H_    0.766028 0.178748 0.176228 0.176151
H10   H     H_    0.591545 0.084644 0.175304 0.192558
H11   H     H_    0.783609 0.016303 0.225106 0.140314
O12   O     O_3   0.285998 0.867016 0.633794 -0.578801
C20   C     C_3   0.143030 0.854126 0.545468 -0.316379
H12   H     H_    0.157161 0.802074 0.451710 0.164337
H13   H     H_    0.090805 0.947557 0.518381 0.173266
H14   H     H_    0.059855 0.798592 0.598381 0.177096
N3    N     N_3   0.611467 0.711227 0.155644 -0.367224
H15   H     H_    0.550183 0.789614 0.113873 0.199266
H16   H     H_    0.729611 0.726196 0.149282 0.194146
N4    N     N_3   0.386581 0.286200 0.852740 -0.430526
H17   H     H_    0.309011 0.310417 0.766035 0.263838
H18   H     H_    0.481208 0.235900 0.830356 0.225566
O13   O     O_3   0.598967 0.711371 0.870548 -0.559628
C21   C     C_3   0.763031 0.721033 0.879685 -0.283318
H19   H     H_    0.794504 0.715946 0.775953 0.186911
H20   H     H_    0.802732 0.814943 0.921141 0.167202
H21   H     H_    0.829081 0.648548 0.945406 0.092500
O14   O     O_3   0.391240 0.293180 0.132095 -0.571709
C22   C     C_3   0.228178 0.274454 0.097887 -0.261262
H22   H     H_    0.181608 0.239475 0.189730 0.169643
H23   H     H_    0.164320 0.361161 0.062167 0.104901
H24   H     H_    0.202531 0.200585 0.019075 0.188027

loop_
_geom_bond_atom_site_label_1
_geom_bond_atom_site_label_2
_ccdc_geom_bond_type
C2    O2    A    
C20   H12   S    
C4    O6    A    
C22   H23   S    
N4    H18   S    
C1    O1    A    
C18   H6    S    
C20   H14   S    
C15   O13   S    
O11   C19   S    
O9    C17   S    
C13   C15   A    
C16   N2    A    
C17   H3    S    
C3    C5    S    
C21   H21   S    
C3    O7    A    
C22   H24   S    
C18   H7    S    
N2    Zn2   S    
O7    Zn2   S    
C15   N1    A    
C9    C11   A    
O13   C21   S    
C5    C6    D    
C1    C12   S    
C10   C12   A    
C10   H2    S    
C8    C11   A    
C2    C11   S    
C8    C10   A    
O10   C18   S    
C14   N4    S    
C6    O10   S    
O6    Zn2   S    
C18   H8    S    
C8    O12   S    
C7    O11   S    
C2    O4    A    
C7    C12   A    
C14   C16   A    
C4    C6    S    
C19   H9    S    
C21   H20   S    
N3    H15   S    
N1    Zn1   S    
C17   H5    S    
C13   N3    S    
C3    O5    A    
O3    Zn2   S    
O5    Zn1   S    
C20   H13   S    
O12   C20   S    
C9    H1    S    
C7    C9    A    
N4    H17   S    
O8    Zn1   S    
C5    O9    S    
C1    O3    A    
O2    Zn2   S    
C13   N2    A    
C4    O8    A    
C21   H19   S    
O4    Zn1   S    
O1    Zn1   S    
C14   N1    A    
C16   O14   S    
C19   H10   S    
O14   C22   S    
C22   H22   S    
N3    H16   S    
C19   H11   S    
C17   H4    S    
