data_mof_unit_52904.cif
_audit_creation_date              2012-12-10T18:11:44-0500
_audit_creation_method            fapswitch 2.2
_symmetry_space_group_name_H-M    P1
_symmetry_Int_Tables_number       1
_space_group_crystal_system       triclinic
_cell_length_a                    10.513486
_cell_length_b                    12.789612
_cell_length_c                    13.189945
_cell_angle_alpha                 82.510007
_cell_angle_beta                  95.47589
_cell_angle_gamma                 102.576023
_cell_volume                      1712.11974069

loop_
_atom_site_label
_atom_site_type_symbol
_atom_type_description
_atom_site_fract_x
_atom_site_fract_y
_atom_site_fract_z
_atom_type_partial_charge
C1    C     C_R   0.484520 0.440594 0.691547 0.912662
C2    C     C_R   0.403794 0.469142 0.957741 -0.022979
C3    C     C_R   0.472245 0.487027 0.867966 -0.061064
C4    C     C_R   0.742112 0.501140 0.500553 0.966901
C5    C     C_R   0.441296 0.548385 0.027445 0.020541
C6    C     C_R   0.506587 0.654490 0.990960 -0.049688
C7    C     C_R   0.544210 0.672448 0.891159 0.172078
C8    C     C_R   0.566943 0.582756 0.852580 0.201023
C9    C     C_R   0.439071 0.520063 0.132668 -0.122350
C10   C     C_R   0.549125 0.702138 0.163120 -0.206461
C11   C     C_R   0.449481 0.408701 0.798553 -0.115692
C12   C     C_3   0.029189 0.503823 0.402028 0.455159
C13   C     C_R   0.264046 0.077941 0.395376 -0.254478
C14   C     C_R   0.688986 0.811169 0.599468 0.433780
C15   C     C_R   0.749920 0.919707 0.586657 0.344876
C16   C     C_R   0.509394 0.559405 0.309119 0.912791
C17   C     C_R   0.679214 0.994088 0.539629 -0.261441
C18   C     C_R   0.544385 0.963139 0.516267 -0.030993
C19   C     C_R   0.492343 0.851182 0.511262 0.091349
C20   C     C_R   0.464469 0.040168 0.485795 -0.001327
C21   C     C_R   0.335849 0.004265 0.445064 0.047156
C22   C     C_R   0.282821 0.895080 0.446890 -0.187695
C23   C     C_3   0.976604 0.591777 0.444308 -0.245128
C24   C     C_R   0.364413 0.821624 0.463032 0.190138
C25   C     C_R   0.502694 0.151278 0.498329 0.175927
C26   C     C_R   0.318650 0.187027 0.389968 0.491642
C27   C     C_R   0.257902 0.498879 0.498686 0.965727
C28   C     C_3   0.970540 0.495337 0.594897 0.423298
C29   C     C_3   0.071655 0.585529 0.541158 -0.234034
C30   C     C_3   0.122233 0.497533 0.497493 -0.204290
C31   C     C_3   0.022763 0.408242 0.552025 0.114713
C32   C     C_3   0.927702 0.413835 0.455771 -0.246602
C33   C     C_3   0.877550 0.501994 0.499654 -0.178785
C34   C     C_R   0.552237 0.733032 0.058500 0.442411
C35   C     C_R   0.498900 0.594816 0.200089 -0.110688
C36   C     C_R   0.368662 0.308254 0.824994 -0.212674
C37   C     C_R   0.296391 0.290794 0.911341 0.184902
C38   C     C_R   0.306113 0.373960 0.973870 0.138147
Cl1   Cl    Cl    0.230518 0.277323 0.321115 -0.519849
Cl2   Cl    Cl    0.774421 0.720407 0.671661 -0.453255
Cl3   Cl    Cl    0.933008 0.487028 0.724098 -0.472854
Cl4   Cl    Cl    0.915501 0.964318 0.626202 -0.461367
Cl5   Cl    Cl    0.068340 0.507471 0.273304 -0.485563
Cl6   Cl    Cl    0.635912 0.864709 0.017597 -0.484976
H1    H     H_    0.132433 0.655321 0.577071 0.218637
H2    H     H_    0.402938 0.437020 0.162251 0.204920
H3    H     H_    0.352057 0.246316 0.773693 0.209404
H4    H     H_    0.183151 0.870176 0.415028 0.176890
H5    H     H_    0.168135 0.050949 0.358061 0.200318
H6    H     H_    0.731405 0.075790 0.520807 0.211013
H7    H     H_    0.866702 0.343850 0.420287 0.210175
H8    H     H_    0.954475 0.666497 0.400134 0.196939
H9    H     H_    0.593274 0.760624 0.215467 0.201064
I1    I     I_    0.146271 0.370207 0.063247 -0.036665
I2    I     I_    0.165716 0.139317 0.936632 -0.065047
I3    I     I_    0.753933 0.552885 0.904208 -0.038048
I4    I     I_    0.629209 0.200951 0.628943 -0.173628
I5    I     I_    0.318174 0.745770 0.326796 -0.251221
I6    I     I_    0.060278 0.262216 0.635606 -0.136881
I7    I     I_    0.459795 0.785208 0.790325 -0.159077
N1    N     N_R   0.432930 0.222190 0.444670 -0.166901
N2    N     N_R   0.566370 0.776980 0.554790 -0.183651
O1    O     O_R   0.467970 0.366730 0.627150 -0.600938
O2    O     O_R   0.510820 0.544830 0.662520 -0.586763
O3    O     O_R   0.664630 0.410960 0.482340 -0.617340
O4    O     O_R   0.707470 0.589060 0.517710 -0.568079
O5    O     O_R   0.489180 0.455170 0.337480 -0.591935
O6    O     O_R   0.532030 0.633270 0.372850 -0.616279
O7    O     O_R   0.292530 0.410940 0.482290 -0.553295
O8    O     O_R   0.335370 0.589040 0.517660 -0.623958
Zn1   Zn    Zn3+2 0.471390 0.381080 0.476380 1.049964
Zn2   Zn    Zn3+2 0.528610 0.618920 0.523620 1.029395

loop_
_geom_bond_atom_site_label_1
_geom_bond_atom_site_label_2
_ccdc_geom_bond_type
C22   H4    S    
C1    C11   S    
C8    I3    S    
C7    C8    A    
C12   C23   S    
C29   C30   S    
C23   C29   S    
C36   C37   A    
C26   N1    A    
C12   Cl5   S    
C16   C35   S    
C4    O3    A    
C26   Cl1   S    
C20   C25   A    
C19   N2    A    
C14   N2    A    
C28   Cl3   S    
C36   H3    S    
C18   C19   A    
C31   I6    S    
O7    Zn1   S    
C10   H9    S    
O4    Zn2   S    
C23   C33   S    
C10   C35   A    
C16   O6    A    
C18   C20   A    
C27   O7    A    
N1    Zn1   S    
C9    H2    S    
C21   C22   A    
C12   C32   S    
C27   C30   S    
C25   I4    S    
C1    O1    A    
N2    Zn2   S    
C34   Cl6   S    
C3    C8    A    
O3    Zn1   S    
C6    C34   A    
C29   H1    S    
C11   C36   A    
C32   H7    S    
C5    C9    A    
C37   C38   A    
C2    C38   A    
C31   C32   S    
C38   I1    S    
C30   C31   S    
O6    Zn2   S    
C17   C18   A    
C13   C21   A    
C10   C34   A    
C16   O5    A    
C25   N1    A    
C27   O8    A    
C13   H5    S    
O1    Zn1   S    
C28   C33   S    
C22   C24   A    
C13   C26   A    
C2    C5    A    
C1    O2    A    
C7    I7    S    
C15   C17   A    
C4    C33   S    
C28   C29   S    
C12   C30   S    
C28   C31   S    
C15   Cl4   S    
C17   H6    S    
C6    C7    A    
C32   C33   S    
C2    C3    A    
C4    O4    A    
C23   H8    S    
C5    C6    A    
C19   C24   A    
O5    Zn1   S    
O2    Zn2   S    
C3    C11   A    
C14   Cl2   S    
C37   I2    S    
C20   C21   A    
C24   I5    S    
C9    C35   A    
C14   C15   A    
O8    Zn2   S    
