data_mof_unit_20283.cif
_audit_creation_date              2012-12-11T17:07:51-0500
_audit_creation_method            fapswitch 2.2
_symmetry_space_group_name_H-M    P1
_symmetry_Int_Tables_number       1
_space_group_crystal_system       triclinic
_cell_length_a                    17.464988
_cell_length_b                    17.348215
_cell_length_c                    17.710624
_cell_angle_alpha                 89.820577
_cell_angle_beta                  90.354716
_cell_angle_gamma                 89.965123
_cell_volume                      5365.94741521

loop_
_atom_site_label
_atom_site_type_symbol
_atom_type_description
_atom_site_fract_x
_atom_site_fract_y
_atom_site_fract_z
_atom_type_partial_charge
C1    C     C_R   0.394058 0.304804 0.892864 -0.130038
C2    C     C_R   0.192964 0.895997 0.388014 -0.089144
C3    C     C_R   0.743586 0.790439 0.296832 -0.189282
C4    C     C_R   0.197075 0.262798 0.714363 -0.191734
C5    C     C_R   0.239222 0.808915 0.767255 -0.101101
C6    C     C_R   0.844765 0.783864 0.795170 -0.092163
C7    C     C_R   0.697334 0.249222 0.646106 -0.186170
C8    C     C_R   0.654272 0.286648 0.701339 -0.111046
C9    C     C_R   0.802657 0.740200 0.845830 -0.098295
C10   C     C_R   0.291448 0.763660 0.805784 -0.207974
C11   C     C_R   0.241325 0.307803 0.761467 -0.133152
C12   C     C_R   0.698257 0.743422 0.252657 -0.122348
C13   C     C_R   0.083346 0.175206 0.361310 -0.031501
C14   C     C_R   0.693714 0.344544 0.312398 -0.084245
C15   C     C_R   0.251152 0.203766 0.150810 -0.152882
C16   C     C_R   0.205743 0.737107 0.176963 -0.154120
C17   C     C_2   0.427087 0.226773 0.898190 1.020816
C18   C     C_2   0.752722 0.447418 0.850796 1.063092
C19   C     C_2   0.576293 0.774594 0.910983 0.981010
C20   C     C_2   0.243891 0.563396 0.856420 0.980929
C21   C     C_2   0.415173 0.774271 0.080633 1.055859
C22   C     C_2   0.771972 0.572778 0.104032 1.008078
C23   C     C_2   0.553128 0.247632 0.151565 1.051903
C24   C     C_R   0.802515 0.107717 0.401627 -0.128655
C25   C     C_2   0.227117 0.423989 0.091513 0.998252
C26   C     C_2   0.936321 0.743194 0.357033 0.982698
C27   C     C_2   0.270951 0.928134 0.393439 1.061425
C28   C     C_2   0.050640 0.252519 0.349332 1.044620
C29   C     C_2   0.725610 0.075255 0.415805 0.954146
C30   C     C_2   0.925516 0.274854 0.575693 0.980734
C31   C     C_2   0.259256 0.068798 0.638170 0.993815
C32   C     C_2   0.066373 0.731129 0.615857 0.953335
C33   C     C_2   0.746948 0.949075 0.647357 1.036082
C34   C     C_2   0.943580 0.258375 0.779999 1.031942
C35   C     C_R   0.894292 0.198515 0.596907 -0.120295
C36   C     C_2   0.759833 0.703441 0.598453 1.007787
C37   C     C_2   0.302103 0.765228 0.556504 1.008568
C38   C     C_2   0.200930 0.026466 0.863952 1.037732
C39   C     C_2   0.954811 0.825985 0.123529 1.036442
C40   C     C_2   0.802983 0.085071 0.209243 1.019742
C41   C     C_2   0.300198 0.220348 0.400496 1.033999
C42   C     C_2   0.297840 0.650035 0.400968 1.084576
C43   C     C_2   0.462711 0.717816 0.280290 1.041004
C44   C     C_2   0.293526 0.423375 0.317530 1.080821
C45   C     C_2   0.800870 0.284620 0.112742 1.018553
C46   C     C_R   0.176288 0.085078 0.637863 -0.109082
C47   C     C_2   0.750855 0.835704 0.043072 0.995856
C48   C     C_2   0.165930 0.215845 0.966375 1.046284
C49   C     C_2   0.310045 0.553443 0.624795 1.148025
C50   C     C_2   0.569334 0.707557 0.705765 1.023719
C51   C     C_2   0.769309 0.188232 0.886691 1.148199
C52   C     C_R   0.096645 0.810381 0.621185 -0.087057
C53   C     C_R   0.822565 0.913900 0.635871 -0.037225
C54   C     C_3   0.864459 0.222237 0.780543 0.070116
C55   C     C_3   0.700495 0.746406 0.644729 0.102871
C56   C     C_3   0.267491 0.693980 0.593153 0.097181
C57   C     C_R   0.678175 0.411102 0.864837 -0.042560
C58   C     C_3   0.174667 0.109823 0.864056 0.117478
C59   C     C_3   0.869623 0.839979 0.131945 0.104286
C60   C     C_3   0.808000 0.171988 0.210893 0.079869
C61   C     C_3   0.256969 0.285527 0.361589 0.088779
C62   C     C_3   0.338806 0.715302 0.360742 0.108123
C63   C     C_3   0.381308 0.689672 0.289371 0.093116
C64   C     C_3   0.303712 0.337316 0.307749 0.077187
C65   C     C_3   0.760409 0.218854 0.152711 0.101846
C66   C     C_3   0.815357 0.791554 0.081550 0.078044
C67   C     C_3   0.217356 0.164576 0.919127 0.073610
C68   C     C_R   0.605556 0.696319 0.896077 -0.128254
C69   C     C_3   0.322276 0.639287 0.636160 0.179716
C70   C     C_3   0.655361 0.698658 0.703099 0.067096
C71   C     C_3   0.811407 0.251138 0.843883 0.104486
C72   C     C_R   0.421821 0.670511 0.858400 0.015107
C73   C     C_R   0.305055 0.396936 0.892252 -0.081582
C74   C     C_R   0.585234 0.322106 0.863614 -0.011954
C75   C     C_R   0.695591 0.605903 0.896427 -0.023563
C76   C     C_R   0.395418 0.305222 0.108125 -0.029753
C77   C     C_R   0.306011 0.603636 0.109257 0.078588
C78   C     C_R   0.600487 0.692821 0.114171 -0.029165
C79   C     C_R   0.325369 0.584777 0.861015 -0.114536
C80   C     C_R   0.671134 0.419439 0.142115 -0.046676
C81   C     C_R   0.892374 0.197529 0.400430 -0.020406
C82   C     C_R   0.832228 0.923252 0.356433 0.020189
C83   C     C_R   0.101942 0.805918 0.389178 -0.103609
C84   C     C_R   0.172858 0.082667 0.360116 -0.086967
C85   C     C_R   0.913174 0.822707 0.636693 -0.075992
C86   C     C_R   0.803844 0.109106 0.599963 -0.037295
C87   C     C_R   0.077495 0.167650 0.643344 -0.001204
C88   C     C_R   0.186733 0.902507 0.624557 -0.060901
C89   C     C_R   0.319709 0.322782 0.872467 0.000956
C90   C     C_R   0.394790 0.695894 0.104621 -0.098691
C91   C     C_R   0.649211 0.347714 0.826951 -0.036770
C92   C     C_R   0.679875 0.679922 0.877692 -0.013168
C93   C     C_R   0.359485 0.643487 0.819388 0.014480
C94   C     C_R   0.321504 0.678998 0.125395 -0.022602
C95   C     C_R   0.674016 0.676655 0.135890 -0.031076
C96   C     C_R   0.641661 0.358447 0.182180 -0.064389
C97   C     C_R   0.323148 0.323104 0.130501 -0.042940
C98   C     C_R   0.860352 0.861364 0.317032 0.010562
C99   C     C_R   0.174093 0.822150 0.364869 0.061251
C100  C     C_R   0.143492 0.144430 0.321123 -0.035114
C101  C     C_R   0.693756 0.604392 0.110416 -0.105712
C102  C     C_R   0.816612 0.184175 0.387579 -0.059719
C103  C     C_R   0.819211 0.185276 0.613055 -0.013118
C104  C     C_R   0.140491 0.140250 0.682092 -0.002543
C105  C     C_R   0.164100 0.832952 0.654643 -0.040849
C106  C     C_R   0.851146 0.851195 0.674263 -0.049962
C107  C     C_R   0.766294 0.290545 0.781984 0.032773
C108  C     C_R   0.693001 0.747582 0.762011 0.086526
C109  C     C_R   0.284766 0.667107 0.706995 0.072791
C110  C     C_R   0.250819 0.201606 0.849870 0.158248
C111  C     C_R   0.791450 0.751467 0.152669 0.157617
C112  C     C_R   0.583275 0.325889 0.139913 -0.046634
C113  C     C_R   0.713197 0.245355 0.218511 0.088439
C114  C     C_R   0.255161 0.304759 0.245165 0.161263
C115  C     C_R   0.325392 0.738806 0.246694 0.029644
C116  C     C_R   0.289041 0.764904 0.309848 0.194871
C117  C     C_R   0.213048 0.260186 0.292609 0.038433
C118  C     C_R   0.755142 0.203816 0.268999 0.079330
C119  C     C_R   0.837889 0.796051 0.197434 0.129465
C120  C     C_R   0.210165 0.155371 0.801409 0.101906
C121  C     C_R   0.234402 0.713208 0.668312 0.060361
C122  C     C_R   0.734116 0.789247 0.711163 0.099869
C123  C     C_R   0.305477 0.396600 0.108243 -0.059906
C124  C     C_R   0.809972 0.260722 0.726040 0.115480
C125  C     C_R   0.688915 0.304909 0.770747 0.084724
C126  C     C_R   0.725950 0.724681 0.829603 0.173999
C127  C     C_R   0.316900 0.694401 0.773335 0.078789
C128  C     C_R   0.267026 0.277561 0.830333 0.068250
C129  C     C_R   0.720485 0.727166 0.178904 0.036615
C130  C     C_R   0.684501 0.317216 0.238243 0.025249
C131  C     C_R   0.276385 0.275873 0.175524 0.128125
C132  C     C_R   0.283716 0.721584 0.181743 0.058687
C133  C     C_R   0.210557 0.778624 0.307196 0.030928
C134  C     C_R   0.916431 0.825681 0.360736 -0.105135
C135  C     C_R   0.188070 0.187696 0.269815 0.017034
C136  C     C_R   0.769634 0.231463 0.340710 0.166791
C137  C     C_R   0.811732 0.820193 0.267282 0.058493
C138  C     C_R   0.179130 0.187093 0.735727 0.102785
C139  C     C_R   0.212838 0.784408 0.697240 0.033659
C140  C     C_R   0.809836 0.807923 0.727799 0.024208
C141  C     C_R   0.775077 0.234273 0.660117 0.149053
C142  C     C_R   0.169196 0.767019 0.239671 -0.143168
C143  C     C_R   0.205433 0.159441 0.198076 -0.039410
C144  C     C_R   0.736926 0.301118 0.364356 -0.162436
H1    H     H_    0.455296 0.720532 0.844256 0.115670
H2    H     H_    0.784645 0.958873 0.339409 0.125308
H3    H     H_    0.075993 0.749777 0.388552 0.170238
H4    H     H_    0.224774 0.052987 0.346623 0.128505
H5    H     H_    0.938992 0.768187 0.648497 0.144890
H6    H     H_    0.747076 0.085597 0.596689 0.122976
H7    H     H_    0.041086 0.214322 0.660603 0.130221
H8    H     H_    0.243478 0.926267 0.628304 0.142272
H9    H     H_    0.108895 0.781286 0.235666 0.164905
H10   H     H_    0.185596 0.103265 0.179985 0.149429
H11   H     H_    0.746134 0.322088 0.421223 0.143653
H12   H     H_    0.249120 0.422914 0.894170 0.181362
H13   H     H_    0.725956 0.803187 0.354046 0.181844
H14   H     H_    0.177968 0.286558 0.660780 0.170239
H15   H     H_    0.220282 0.862924 0.790898 0.169356
H16   H     H_    0.904187 0.797178 0.807236 0.143867
H17   H     H_    0.670176 0.230286 0.594242 0.144095
H18   H     H_    0.594428 0.299522 0.690952 0.145413
H19   H     H_    0.829508 0.717223 0.895949 0.164275
H20   H     H_    0.311462 0.782105 0.860888 0.176087
H21   H     H_    0.256365 0.365720 0.743799 0.160157
H22   H     H_    0.646423 0.719792 0.276055 0.183546
H23   H     H_    0.553680 0.270899 0.850117 0.134635
H24   H     H_    0.669177 0.399178 0.329133 0.145405
H25   H     H_    0.268027 0.181996 0.096456 0.161546
H26   H     H_    0.173707 0.724364 0.126013 0.145829
H27   H     H_    0.497603 0.154179 0.953666 0.356150
H28   H     H_    0.855539 0.478726 0.892661 0.340422
H29   H     H_    0.583392 0.888858 0.890642 0.349785
H30   H     H_    0.143574 0.552053 0.910868 0.350579
H31   H     H_    0.396651 0.860025 0.005500 0.350192
H32   H     H_    0.843632 0.502262 0.048781 0.349703
H33   H     H_    0.530987 0.143370 0.106835 0.347593
H34   H     H_    0.752266 0.582570 0.901060 0.142526
H35   H     H_    0.114517 0.419879 0.116023 0.345145
H36   H     H_    0.962899 0.651609 0.292432 0.356939
H37   H     H_    0.346796 0.989296 0.454624 0.347408
H38   H     H_    0.025696 0.356289 0.393676 0.342110
H39   H     H_    0.611038 0.087876 0.406836 0.352961
H40   H     H_    0.908349 0.389604 0.567029 0.353425
H41   H     H_    0.355360 0.047485 0.698376 0.357042
H42   H     H_    0.009901 0.652678 0.553049 0.359898
H43   H     H_    0.644515 0.977628 0.602415 0.346394
H44   H     H_    0.895578 0.119858 0.813641 0.369484
H45   H     H_    0.418001 0.247715 0.104748 0.149359
H46   H     H_    0.623360 0.761655 0.566882 0.339047
H47   H     H_    0.178293 0.692489 0.525910 0.350793
H48   H     H_    0.075939 0.094295 0.911500 0.360296
H49   H     H_    0.862315 0.940489 0.084578 0.345106
H50   H     H_    0.911728 0.185309 0.174918 0.353145
H51   H     H_    0.243018 0.351008 0.449172 0.353311
H52   H     H_    0.423673 0.727007 0.431300 0.322894
H53   H     H_    0.404480 0.581734 0.308726 0.364668
H54   H     H_    0.406652 0.328061 0.348723 0.345774
H55   H     H_    0.753222 0.144943 0.071353 0.356912
H56   H     H_    0.252843 0.574003 0.119039 0.135557
H57   H     H_    0.884495 0.772578 0.998926 0.320788
H58   H     H_    0.249181 0.091739 0.996413 0.324495
H59   H     H_    0.416275 0.651688 0.580002 0.354550
H60   H     H_    0.661293 0.595247 0.662183 0.344065
H61   H     H_    0.884910 0.276752 0.922563 0.362940
H62   H     H_    0.012784 0.343030 0.742168 0.339169
H63   H     H_    0.850851 0.631691 0.597511 0.345349
H64   H     H_    0.381743 0.849494 0.559615 0.360607
H65   H     H_    0.289898 0.951835 0.864569 0.317279
H66   H     H_    0.040371 0.748566 0.114697 0.315862
H67   H     H_    0.572639 0.747916 0.117308 0.174987
H68   H     H_    0.735805 0.990435 0.204031 0.365389
H69   H     H_    0.370833 0.128887 0.390438 0.341510
H70   H     H_    0.201832 0.586406 0.412754 0.369970
H71   H     H_    0.535762 0.808013 0.278890 0.331020
H72   H     H_    0.245532 0.522342 0.279858 0.358122
H73   H     H_    0.869587 0.377753 0.120775 0.338392
H74   H     H_    0.656164 0.901382 0.054088 0.351682
H75   H     H_    0.122655 0.321590 0.986621 0.347427
H76   H     H_    0.236307 0.463883 0.623499 0.323870
H77   H     H_    0.478031 0.778922 0.707642 0.362270
H78   H     H_    0.721137 0.451515 0.157869 0.127734
H79   H     H_    0.670531 0.131920 0.907385 0.350055
H80   H     H_    0.916894 0.254107 0.404330 0.131540
N1    N     N_R   0.425360 0.368540 0.922560 -0.073315
N2    N     N_R   0.131460 0.925360 0.422560 -0.071712
N3    N     N_R   0.074640 0.131460 0.422560 -0.063191
N4    N     N_R   0.868540 0.074640 0.422560 -0.065002
N5    N     N_R   0.925360 0.131460 0.577440 -0.069990
N6    N     N_R   0.131460 0.074640 0.577440 -0.056115
N7    N     N_R   0.074640 0.868540 0.577440 -0.064513
N8    N     N_R   0.868540 0.925360 0.577440 -0.065681
N9    N     N_R   0.425340 0.631500 0.922560 -0.057647
N10   N     N_R   0.368500 0.425340 0.922560 -0.062667
N11   N     N_R   0.574660 0.368500 0.922560 -0.046658
N12   N     N_R   0.631460 0.425360 0.922560 -0.064309
N13   N     N_R   0.631500 0.574660 0.922560 -0.064581
N14   N     N_R   0.425340 0.368500 0.077440 -0.068822
N15   N     N_R   0.368500 0.574660 0.077440 -0.053521
N16   N     N_R   0.574660 0.631500 0.077440 -0.057647
N17   N     N_R   0.631500 0.425340 0.077440 -0.034003
N18   N     N_R   0.925340 0.131500 0.422560 -0.069179
N19   N     N_R   0.868500 0.925340 0.422560 -0.045126
N20   N     N_R   0.074660 0.868500 0.422560 -0.060108
N21   N     N_R   0.131500 0.074660 0.422560 -0.040682
N22   N     N_R   0.925340 0.868500 0.577440 -0.043603
N23   N     N_R   0.574640 0.631460 0.922560 -0.067946
N24   N     N_R   0.868500 0.074660 0.577440 -0.063998
N25   N     N_R   0.074660 0.131500 0.577440 -0.041529
N26   N     N_R   0.131500 0.925340 0.577440 -0.049548
N27   N     N_R   0.368540 0.574640 0.922560 -0.064523
N28   N     N_R   0.425360 0.631460 0.077440 -0.066303
N29   N     N_R   0.631460 0.574640 0.077440 -0.069548
N30   N     N_R   0.574640 0.368540 0.077440 -0.059127
N31   N     N_R   0.368540 0.425360 0.077440 -0.069921
N32   N     N_R   0.925360 0.868540 0.422560 -0.058685
Ni1   Ni    Ni4+2 0.500000 0.369720 0.000000 0.294390
Ni2   Ni    Ni4+2 0.630280 0.500000 0.000000 0.300458
Ni3   Ni    Ni4+2 0.500000 0.630280 0.000000 0.279145
Ni4   Ni    Ni4+2 0.369720 0.500000 0.000000 0.286471
Ni5   Ni    Ni4+2 0.000000 0.869720 0.500000 0.298189
Ni6   Ni    Ni4+2 0.130280 1.000000 0.500000 0.309128
Ni7   Ni    Ni4+2 0.000000 0.130280 0.500000 0.293355
Ni8   Ni    Ni4+2 0.869720 1.000000 0.500000 0.293177
O1    O     O_2   0.411754 0.178303 0.850509 -0.587242
O2    O     O_R   0.382485 0.804087 0.014480 -0.780748
O3    O     O_2   0.821638 0.590560 0.149661 -0.590033
O4    O     O_R   0.788451 0.520377 0.046929 -0.779918
O5    O     O_2   0.533643 0.226976 0.214669 -0.579497
O6    O     O_R   0.550863 0.195980 0.091422 -0.727738
O7    O     O_2   0.215998 0.467193 0.038119 -0.643854
O8    O     O_R   0.165187 0.397769 0.134071 -0.754588
O9    O     O_2   0.939912 0.705185 0.415141 -0.587373
O10   O     O_R   0.950017 0.708383 0.287405 -0.781993
O11   O     O_2   0.316300 0.919886 0.341834 -0.597524
O12   O     O_R   0.477713 0.208994 0.956822 -0.776666
O13   O     O_R   0.292057 0.970086 0.457223 -0.761857
O14   O     O_2   0.030840 0.272641 0.285933 -0.572938
O15   O     O_R   0.047056 0.304257 0.409372 -0.715067
O16   O     O_2   0.719144 0.013608 0.448458 -0.610327
O17   O     O_R   0.660080 0.115884 0.393496 -0.770173
O18   O     O_2   0.989444 0.279917 0.548774 -0.612568
O19   O     O_R   0.880903 0.341191 0.584154 -0.762963
O20   O     O_2   0.293458 0.065257 0.578404 -0.574506
O21   O     O_R   0.298866 0.058105 0.706081 -0.786592
O22   O     O_2   0.072678 0.686583 0.669182 -0.578847
O23   O     O_2   0.769668 0.467400 0.786772 -0.583219
O24   O     O_R   0.028605 0.707906 0.550036 -0.775337
O25   O     O_2   0.728069 0.969708 0.710520 -0.593019
O26   O     O_R   0.695426 0.954550 0.587067 -0.708348
O27   O     O_3   0.865525 0.141738 0.770953 -0.740587
O28   O     O_3   0.654269 0.795357 0.600476 -0.664328
O29   O     O_3   0.214543 0.654323 0.547466 -0.705480
O30   O     O_3   0.094563 0.117764 0.863861 -0.687962
O31   O     O_3   0.850373 0.918403 0.134927 -0.700461
O32   O     O_3   0.883240 0.198986 0.221326 -0.677535
O33   O     O_3   0.209237 0.326768 0.410746 -0.696276
O34   O     O_R   0.805418 0.455147 0.909764 -0.720557
O35   O     O_3   0.383595 0.761010 0.409216 -0.690048
O36   O     O_3   0.372523 0.610975 0.272005 -0.755250
O37   O     O_3   0.380981 0.316034 0.300019 -0.702220
O38   O     O_3   0.716432 0.173213 0.103514 -0.671356
O39   O     O_3   0.853125 0.740318 0.033258 -0.720540
O40   O     O_3   0.275071 0.128907 0.962345 -0.728505
O41   O     O_3   0.399677 0.660438 0.632804 -0.692627
O42   O     O_3   0.679106 0.621285 0.708927 -0.683903
O43   O     O_3   0.845984 0.304999 0.892180 -0.690748
O44   O     O_2   0.994235 0.231219 0.819780 -0.588677
O45   O     O_2   0.525241 0.783553 0.956635 -0.668784
O46   O     O_R   0.957966 0.324477 0.736979 -0.776239
O47   O     O_2   0.761215 0.711331 0.529825 -0.603455
O48   O     O_R   0.813828 0.656010 0.634322 -0.753120
O49   O     O_2   0.269188 0.795497 0.503284 -0.656170
O50   O     O_R   0.366593 0.800991 0.587882 -0.760595
O51   O     O_2   0.153838 0.974449 0.867063 -0.639733
O52   O     O_R   0.279125 0.009109 0.860981 -0.714396
O53   O     O_2   0.998712 0.880456 0.116993 -0.609440
O54   O     O_R   0.983223 0.750595 0.123544 -0.727873
O55   O     O_2   0.861023 0.046743 0.218559 -0.574155
O56   O     O_R   0.608068 0.838596 0.874755 -0.737942
O57   O     O_R   0.731908 0.048663 0.201386 -0.742585
O58   O     O_2   0.294246 0.210841 0.468656 -0.591112
O59   O     O_R   0.345819 0.170352 0.358235 -0.754749
O60   O     O_2   0.333836 0.608754 0.444574 -0.617192
O61   O     O_R   0.220892 0.633973 0.385321 -0.803547
O62   O     O_2   0.513524 0.671716 0.266240 -0.667408
O63   O     O_R   0.479597 0.796331 0.287165 -0.705088
O64   O     O_2   0.325333 0.455870 0.370187 -0.615708
O65   O     O_R   0.247897 0.465538 0.267062 -0.786981
O66   O     O_2   0.791800 0.293932 0.044875 -0.576560
O67   O     O_2   0.215752 0.543540 0.796234 -0.616106
O68   O     O_R   0.846304 0.336229 0.153796 -0.754245
O69   O     O_2   0.747533 0.838936 0.974251 -0.615743
O70   O     O_R   0.696123 0.874219 0.086310 -0.779402
O71   O     O_2   0.129533 0.187341 0.018173 -0.636807
O72   O     O_R   0.159142 0.294648 0.951069 -0.801640
O73   O     O_2   0.364377 0.511803 0.609859 -0.602231
O74   O     O_R   0.236857 0.521628 0.632137 -0.712848
O75   O     O_2   0.529337 0.650414 0.713922 -0.580638
O76   O     O_R   0.535816 0.780793 0.702963 -0.736371
O77   O     O_2   0.804756 0.148076 0.931723 -0.643592
O78   O     O_R   0.198642 0.567594 0.920941 -0.747132
O79   O     O_R   0.691181 0.175256 0.874834 -0.797799
O80   O     O_2   0.453505 0.815505 0.121828 -0.621257

loop_
_geom_bond_atom_site_label_1
_geom_bond_atom_site_label_2
_ccdc_geom_bond_type
H57   O39   S    
H58   O40   S    
C36   O48   S    
C41   C61   S    
C19   O56   S    
H33   O6    S    
C57   N12   A    
C43   C63   S    
N9    Ni3   S    
H35   O8    S    
C44   C64   S    
N10   Ni4   S    
C23   C112  S    
C63   O36   S    
C38   O52   S    
C59   C66   S    
C58   O30   S    
C86   C103  A    
C30   O18   D    
H63   O48   S    
C32   C52   S    
C37   C56   S    
N29   Ni2   S    
C109  C127  A    
C86   N24   A    
C41   O58   D    
C34   O44   D    
C100  C135  S    
C63   C115  S    
C49   C69   S    
C82   C98   A    
C51   C71   S    
C107  C124  A    
C74   H23   S    
C21   C90   S    
C44   O65   S    
C14   C144  A    
C66   O39   S    
C84   C100  A    
C64   C114  S    
C97   C131  S    
C27   O13   S    
N17   Ni2   S    
C143  H10   S    
C116  C133  A    
C47   O70   S    
C83   N20   A    
C94   C132  S    
C81   N18   A    
C101  N29   A    
C54   O27   S    
N2    N20   A    
H68   O57   S    
C19   C68   S    
N25   Ni7   S    
C73   N10   A    
H61   O43   S    
C40   O55   D    
C48   O71   D    
C60   C65   S    
C34   C54   S    
C120  C138  A    
C14   H24   S    
C117  C135  A    
C118  C136  A    
C2    N2    A    
C27   O11   D    
C14   C130  A    
C49   O73   D    
C91   C125  S    
C64   O37   S    
C65   C113  S    
C20   O78   S    
C13   N3    A    
C6    H16   S    
N12   Ni2   S    
C19   O45   D    
C50   C70   S    
C36   C55   S    
C8    H18   S    
C42   O60   D    
C109  C121  A    
C68   C92   A    
N8    N22   A    
C48   C67   S    
H32   O4    S    
C73   C89   A    
C58   C67   S    
C51   O79   S    
N13   Ni2   S    
C11   H21   S    
H64   O50   S    
C108  C126  A    
C42   O61   S    
C110  C128  A    
N24   Ni8   S    
C23   O6    S    
C40   C60   S    
H29   O56   S    
C6    C9    A    
C33   O26   S    
C7    C8    A    
H51   O33   S    
C7    H17   S    
C133  C142  A    
N1    N10   A    
C76   N14   A    
C43   O62   D    
C32   O22   D    
C86   H6    S    
C72   H1    S    
C77   C94   A    
C80   N17   A    
N13   N23   A    
C111  C119  A    
C39   O54   S    
C25   O8    S    
N26   Ni6   S    
C70   O42   S    
C31   C46   S    
C42   C62   S    
C135  C143  A    
N16   Ni3   S    
C62   O35   S    
N5    N24   A    
C39   O53   D    
C103  C141  S    
H31   O2    S    
C5    C139  A    
C115  C132  A    
C61   O33   S    
C113  C130  A    
H70   O61   S    
C107  C125  A    
N30   Ni1   S    
C26   C134  S    
C47   C66   S    
H79   O79   S    
C67   C110  S    
C112  N30   A    
C51   O77   D    
C25   C123  S    
C25   O7    D    
C21   O2    S    
C15   C143  A    
C52   C105  A    
C45   C65   S    
C124  C141  A    
C85   C106  A    
C7    C141  A    
C77   N15   A    
C87   N25   A    
C81   H80   S    
N31   Ni4   S    
H48   O30   S    
N8    Ni8   S    
N15   N28   A    
H74   O70   S    
C32   O24   S    
C2    C99   A    
C26   O9    D    
C52   N7    A    
C44   O64   D    
C1    C17   S    
C37   O50   S    
H55   O38   S    
N14   N31   A    
C121  C139  A    
C122  C140  A    
C97   C123  A    
H43   O26   S    
C70   C108  S    
C88   C105  A    
C30   O19   S    
C82   N19   A    
H59   O41   S    
C77   H56   S    
C114  C117  A    
C53   N8    A    
C80   H78   S    
N4    Ni8   S    
H47   O29   S    
H73   O68   S    
C15   C131  A    
C56   C69   S    
C3    H13   S    
C74   N11   A    
C89   C128  S    
C95   C101  A    
C56   O29   S    
N6    Ni6   S    
C71   C107  S    
C114  C131  A    
H76   O74   S    
H71   O63   S    
N3    Ni7   S    
C22   C101  S    
C34   O46   S    
C35   C103  A    
H52   O35   S    
C47   O69   D    
C72   N9    A    
N14   Ni1   S    
H39   O17   S    
C9    H19   S    
C24   C29   S    
C43   O63   S    
C38   C58   S    
C22   O3    D    
C111  C129  A    
H46   O28   S    
C54   C71   S    
C78   N16   A    
N11   N12   A    
C13   C28   S    
C60   C118  S    
C2    C27   S    
C3    C137  A    
C66   C111  S    
N6    N25   A    
H49   O31   S    
H65   O52   S    
C123  N31   A    
H50   O32   S    
C48   O72   S    
C84   H4    S    
N7    Ni5   S    
C36   O47   D    
C83   C99   A    
N32   Ni5   S    
C46   N6    A    
C31   O21   S    
C82   H2    S    
C55   O28   S    
C90   C94   A    
N5    Ni7   S    
H54   O37   S    
H28   O34   S    
C12   C129  A    
C98   C137  S    
C61   C117  S    
C38   O51   D    
N15   Ni4   S    
C71   O43   S    
C18   O23   D    
C76   C97   A    
C46   C104  A    
N19   N32   A    
C74   C91   A    
C61   C64   S    
C62   C63   S    
C105  C139  S    
C18   C57   S    
C106  C140  S    
C78   C95   A    
C39   C59   S    
C58   C120  S    
C41   O59   S    
C4    C11   A    
C72   C93   A    
C18   O34   S    
C75   N13   A    
H44   O27   S    
N9    N27   A    
C28   O15   S    
C96   C130  S    
C1    N1    A    
C54   C124  S    
C23   O5    D    
C59   C119  S    
C57   C91   A    
C20   C79   S    
C79   N27   A    
C92   C126  S    
C33   O25   D    
H38   O15   S    
C67   O40   S    
C31   O20   D    
C134  N32   A    
C136  C144  A    
H66   O54   S    
C13   C100  A    
H40   O19   S    
C73   H12   S    
C24   C102  A    
C6    C140  A    
C16   C132  A    
C102  C136  S    
C4    C138  A    
C87   C104  A    
C16   H26   S    
C8    C125  A    
C59   O31   S    
C29   O17   S    
H27   O12   S    
C95   C129  S    
H69   O59   S    
C69   O41   S    
C78   H67   S    
C115  C116  A    
N28   Ni3   S    
C45   O66   D    
H53   O36   S    
C49   O74   S    
C1    C89   A    
C29   O16   D    
C96   C112  A    
C99   C133  S    
N16   N29   A    
C30   C35   S    
C79   C93   A    
H60   O42   S    
C40   O57   S    
C12   H22   S    
N27   Ni4   S    
N3    N21   A    
C15   H25   S    
C75   H34   S    
H41   O21   S    
C17   O1    D    
C76   H45   S    
C69   C109  S    
C4    H14   S    
C5    H15   S    
C50   O75   D    
H36   O10   S    
N18   Ni7   S    
C3    C12   A    
H72   O65   S    
C80   C96   A    
N2    Ni6   S    
C53   C106  A    
C55   C122  S    
C87   H7    S    
C88   H8    S    
N21   Ni6   S    
C81   C102  A    
C68   N23   A    
C33   C53   S    
C119  C137  A    
C110  C120  A    
C26   O10   S    
H30   O78   S    
C90   N28   A    
C37   O49   D    
C84   N21   A    
C35   N5    A    
C16   C142  A    
C93   C127  S    
C62   C116  S    
N11   Ni1   S    
H77   O76   S    
H75   O72   S    
C50   O76   S    
N22   Ni5   S    
C75   C92   A    
C45   O68   S    
C83   H3    S    
C85   N22   A    
N19   Ni8   S    
C10   C127  A    
C17   O12   S    
C88   N26   A    
C10   H20   S    
C108  C122  A    
N23   Ni3   S    
C28   O14   D    
N17   N30   A    
C65   O38   S    
C98   C134  A    
C9    C126  A    
C56   C121  S    
C144  H11   S    
C11   C128  A    
C21   O80   D    
N1    Ni1   S    
C5    C10   A    
H42   O24   S    
H37   O13   S    
C60   O32   S    
C104  C138  S    
C142  H9    S    
C85   H5    S    
C55   C70   S    
C113  C118  A    
C22   O4    S    
N4    N18   A    
N20   Ni5   S    
C24   N4    A    
N7    N26   A    
C20   O67   D    
H62   O46   S    
