data_mof_unit_9542.cif
_audit_creation_date              2012-10-26T19:52:26-0400
_audit_creation_method            fapswitch 2.2
_symmetry_space_group_name_H-M    P1
_symmetry_Int_Tables_number       1
_space_group_crystal_system       triclinic
_cell_length_a                    9.611107
_cell_length_b                    10.829313
_cell_length_c                    13.443541
_cell_angle_alpha                 90.689542
_cell_angle_beta                  73.19535
_cell_angle_gamma                 89.81463
_cell_volume                      1339.34394685

loop_
_atom_site_label
_atom_site_type_symbol
_atom_type_description
_atom_site_fract_x
_atom_site_fract_y
_atom_site_fract_z
_atom_type_partial_charge
C1    C     C_R   0.499671 0.737488 0.500815 0.582718
C2    C     C_R   0.377074 0.518334 0.815329 -0.001315
C3    C     C_R   0.375319 0.937640 0.502261 0.009916
C4    C     C_R   0.421977 0.507688 0.700083 0.573130
C5    C     C_R   0.501781 0.870972 0.497151 0.048914
C6    C     C_R   0.633481 0.935006 0.479852 -0.147684
C7    C     C_R   0.634003 0.063590 0.478172 -0.105673
C8    C     C_R   0.503769 0.129377 0.490223 0.037675
C9    C     C_R   0.377346 0.064198 0.493595 -0.025386
C10   C     C_3   0.227288 0.079170 0.565719 -0.210567
C11   C     C_3   0.228098 0.940066 0.581032 0.155928
C12   C     C_R   0.453331 0.500365 0.973280 -0.003979
C13   C     C_R   0.950487 0.415281 0.441004 0.204663
C14   C     C_R   0.900721 0.578514 0.562022 -0.027291
C15   C     C_R   0.048626 0.577955 0.562587 -0.026067
C16   C     C_R   0.500750 0.262636 0.498341 0.577408
C17   C     C_R   0.098309 0.416978 0.440271 0.133800
C18   C     C_3   0.151519 0.409004 0.325098 -0.240424
C19   C     C_3   0.994127 0.405153 0.324833 0.128415
C20   C     C_R   0.577673 0.501693 0.300632 0.567082
C21   C     C_R   0.770159 0.631851 0.040890 -0.089583
C22   C     C_R   0.622560 0.520921 0.188771 0.022176
C23   C     C_R   0.483570 0.537123 0.868464 0.001234
C24   C     C_R   0.229459 0.510166 0.876384 0.177355
C25   C     C_R   0.198975 0.500866 0.984126 0.189978
C26   C     C_R   0.309381 0.471690 0.027420 -0.113312
C27   C     C_3   0.033990 0.415516 0.823144 -0.259251
C28   C     C_3   0.101786 0.684460 0.076503 -0.312156
C29   C     C_R   0.558676 0.518033 0.026781 0.036725
C30   C     C_R   0.681840 0.591230 0.981145 0.052402
C31   C     C_R   0.707913 0.632444 0.879680 -0.137967
C32   C     C_R   0.610357 0.605704 0.824129 -0.097026
C33   C     C_R   0.537436 0.476105 0.128707 -0.119776
C34   C     C_R   0.737898 0.599507 0.145088 -0.119689
Cu1   Cu    Cu3+1 0.359330 0.500020 0.500010 0.967472
Cu2   Cu    Cu3+1 0.640670 0.499980 0.499990 0.993798
H1    H     H_    0.798270 0.639119 0.193783 0.114404
H2    H     H_    0.960059 0.486765 0.288336 0.090754
H3    H     H_    0.800528 0.690436 0.844771 0.130930
H4    H     H_    0.858237 0.694808 0.008242 0.147816
H5    H     H_    0.452653 0.411560 0.164068 0.114772
H6    H     H_    0.276169 0.459310 0.110165 0.112328
H7    H     H_    0.627166 0.651581 0.750915 0.151243
H8    H     H_    0.735035 0.886562 0.471675 0.132037
H9    H     H_    0.065106 0.879242 0.856910 0.361480
H10   H     H_    0.972355 0.067702 0.310595 0.360852
H11   H     H_    0.123213 0.589122 0.775848 0.295101
H12   H     H_    0.734918 0.111096 0.471771 0.195227
H13   H     H_    0.939694 0.438969 0.794725 0.142632
H14   H     H_    0.992829 0.368843 0.899096 0.196146
H15   H     H_    0.107360 0.351720 0.766060 0.163515
H16   H     H_    0.023221 0.507039 0.113358 0.269512
H17   H     H_    0.002050 0.731347 0.123813 0.126456
H18   H     H_    0.145988 0.739475 0.005090 0.187986
H19   H     H_    0.180765 0.684882 0.122791 0.138242
H20   H     H_    0.223719 0.136791 0.635464 0.184804
H21   H     H_    0.149021 0.108835 0.523712 0.136739
H22   H     H_    0.144289 0.890206 0.554283 0.101190
H23   H     H_    0.826676 0.645337 0.609702 0.116052
H24   H     H_    0.083624 0.643463 0.611566 0.145550
H25   H     H_    0.206285 0.495216 0.290811 0.099323
H26   H     H_    0.215167 0.322932 0.297794 0.183309
N1    N     N_R   0.852320 0.499070 0.499340 -0.264609
N2    N     N_R   0.148230 0.499110 0.499340 -0.249398
N3    N     N_2   0.110155 0.527093 0.834968 -0.494689
N4    N     N_2   0.072479 0.558632 0.049181 -0.496667
O1    O     O_R   0.381190 0.680360 0.500000 -0.487541
O2    O     O_2   0.331222 0.987130 0.745623 -0.268997
O3    O     O_3   0.061373 0.917881 0.791295 -0.531736
O4    O     O_2   0.789256 0.255110 0.288454 -0.274572
O5    O     O_2   0.032085 0.246814 0.163939 -0.288153
O6    O     O_3   0.995971 0.144155 0.343360 -0.571906
O7    O     O_R   0.618780 0.680320 0.499990 -0.530074
O8    O     O_R   0.323230 0.500000 0.650990 -0.492062
O9    O     O_R   0.560820 0.499960 0.650980 -0.512616
O10   O     O_R   0.381220 0.319680 0.500010 -0.508134
O11   O     O_R   0.618810 0.319640 0.500000 -0.465921
O12   O     O_R   0.439180 0.500040 0.349020 -0.520766
O13   O     O_R   0.676770 0.500000 0.349010 -0.484654
O14   O     O_2   0.281387 0.771656 0.712753 -0.331053
S1    S     S_3+6 0.230608 0.902331 0.710465 -0.027379
S2    S     S_3+6 0.949222 0.260104 0.276991 -0.021116

loop_
_geom_bond_atom_site_label_1
_geom_bond_atom_site_label_2
_ccdc_geom_bond_type
Cu1   O8    S    
C12   C29   A    
C34   H1    S    
C15   H24   S    
C2    C4    S    
Cu1   Cu2   S    
C7    C8    A    
C11   S1    S    
C14   H23   S    
C12   C23   A    
C1    C5    S    
O2    S1    D    
C19   H2    S    
C16   O11   A    
Cu2   O11   S    
C17   N2    A    
C30   C31   A    
C29   C33   A    
C18   C19   S    
C4    O9    A    
C8    C9    A    
C15   N2    A    
Cu1   N2    S    
Cu2   N1    S    
C10   H20   S    
C9    C10   S    
C4    O8    A    
C27   H14   S    
O5    S2    D    
C8    C16   S    
C6    H8    S    
C28   H19   S    
C27   H15   S    
C22   C34   A    
Cu1   O10   S    
C13   C19   S    
H9    O3    S    
C10   H21   S    
O3    S1    S    
C24   C25   A    
C10   C11   S    
C28   H18   S    
C18   H26   S    
C21   C34   A    
C25   C26   A    
C12   C26   A    
C28   N4    S    
C29   C30   A    
C27   N3    S    
Cu2   O9    S    
C31   C32   A    
C13   N1    A    
Cu1   O1    S    
C17   C18   S    
C3    C9    A    
C24   N3    S    
C20   C22   S    
C2    C24   A    
C19   S2    S    
H16   N4    S    
C26   H6    S    
C22   C33   A    
C20   O13   A    
C16   O10   A    
H10   O6    S    
C25   N4    S    
O14   S1    D    
C3    C5    A    
Cu2   O13   S    
C28   H17   S    
C18   H25   S    
C6    C7    A    
C20   O12   A    
C21   C30   A    
Cu1   O12   S    
C13   C17   A    
C1    O7    A    
C7    H12   S    
C33   H5    S    
C23   C32   A    
C5    C6    A    
C21   H4    S    
C14   N1    A    
C1    O1    A    
C32   H7    S    
C31   H3    S    
O4    S2    D    
C3    C11   S    
Cu2   O7    S    
C2    C23   A    
C14   C15   A    
H11   N3    S    
O6    S2    S    
C27   H13   S    
C11   H22   S    
