data_mof_unit_28539.cif
_audit_creation_date              2012-12-10T20:51:45-0500
_audit_creation_method            fapswitch 2.2
_symmetry_space_group_name_H-M    P1
_symmetry_Int_Tables_number       1
_space_group_crystal_system       triclinic
_cell_length_a                    8.09295
_cell_length_b                    8.937248
_cell_length_c                    16.673713
_cell_angle_alpha                 89.54546
_cell_angle_beta                  95.439622
_cell_angle_gamma                 90.020595
_cell_volume                      1200.51914404

loop_
_atom_site_label
_atom_site_type_symbol
_atom_type_description
_atom_site_fract_x
_atom_site_fract_y
_atom_site_fract_z
_atom_type_partial_charge
C1    C     C_R   0.499961 0.217925 0.500022 0.938893
C2    C     C_R   0.589326 0.394645 0.141287 -0.041520
C3    C     C_R   0.553625 0.563327 0.908044 0.139657
C4    C     C_R   0.446222 0.436383 0.091975 0.139623
C5    C     C_R   0.696742 0.513782 0.873949 0.410427
C6    C     C_R   0.303171 0.486075 0.126069 0.410417
C7    C     C_R   0.688802 0.490127 0.790792 -0.090171
C8    C     C_R   0.311186 0.509865 0.209215 -0.090177
C9    C     C_1   0.499962 0.065169 0.500007 -0.184285
C10   C     C_1   0.500038 0.934831 0.499993 -0.184280
C11   C     C_1   0.731565 0.330658 0.108047 0.244918
C12   C     C_R   0.500038 0.782075 0.499978 0.938881
C13   C     C_1   0.268213 0.668925 0.891972 0.244996
C14   C     C_1   0.833653 0.429630 0.757759 0.310392
C15   C     C_1   0.166432 0.570566 0.242237 0.310378
C16   C     C_R   0.523091 0.500782 0.654586 0.894591
C17   C     C_R   0.476907 0.499223 0.345414 0.894572
C18   C     C_R   0.539799 0.521606 0.741965 -0.186922
C19   C     C_R   0.460176 0.478338 0.258040 -0.186885
C20   C     C_R   0.404089 0.583039 0.776453 -0.253113
C21   C     C_R   0.595810 0.416750 0.223561 -0.253120
C22   C     C_R   0.410511 0.605040 0.858732 -0.041566
H1    H     H_    0.708017 0.385922 0.260832 0.187214
H2    H     H_    0.291867 0.613835 0.739185 0.187252
H3    H     H_    0.839221 0.524381 0.974777 0.368179
H4    H     H_    0.160610 0.475351 0.025274 0.368168
N1    N     N_1   0.073640 0.500030 0.499990 -0.025150
N2    N     N_1   0.926360 0.499970 0.500010 -0.025149
N3    N     N_2   0.547268 0.551433 0.991612 -0.171892
N4    N     N_2   0.452578 0.448252 0.008407 -0.171877
N5    N     N_1   0.845577 0.278767 0.081732 -0.143278
N6    N     N_1   0.154153 0.720739 0.918281 -0.143116
N7    N     N_1   0.949731 0.381396 0.731574 -0.188257
N8    N     N_1   0.050433 0.618975 0.268412 -0.188189
O1    O     O_R   0.636850 0.285340 0.500000 -0.614615
O2    O     O_3   0.156857 0.518830 0.079494 -0.753295
O3    O     O_R   0.363150 0.714660 0.500000 -0.614613
O4    O     O_R   0.363100 0.285350 0.500000 -0.611547
O5    O     O_R   0.636900 0.714650 0.500000 -0.611551
O6    O     O_R   0.652140 0.498630 0.616140 -0.621043
O7    O     O_R   0.347860 0.501370 0.383860 -0.621042
O8    O     O_R   0.378390 0.498650 0.616130 -0.611049
O9    O     O_R   0.621610 0.501350 0.383870 -0.611046
O10   O     O_3   0.843060 0.481053 0.920528 -0.753314
Zn1   Zn    Zn3+2 0.682780 0.499990 0.500010 1.001749
Zn2   Zn    Zn3+2 0.317220 0.500010 0.499990 1.001753

loop_
_geom_bond_atom_site_label_1
_geom_bond_atom_site_label_2
_ccdc_geom_bond_type
C2    C4    A    
O7    Zn2   S    
C17   O9    A    
N3    N4    D    
C14   N7    T    
C5    C7    A    
C9    C10   T    
C13   N6    T    
O5    Zn1   S    
C7    C18   A    
C12   O5    A    
C11   N5    T    
C16   C18   S    
O9    Zn1   S    
C1    O1    A    
C2    C21   A    
C10   C12   S    
C1    O4    A    
C16   O6    A    
C2    C11   S    
N1    Zn2   S    
H4    O2    S    
C17   C19   S    
C5    O10   S    
C20   C22   A    
C13   C22   S    
C8    C15   S    
C18   C20   A    
C21   H1    S    
O6    Zn1   S    
C17   O7    A    
N2    Zn1   S    
O4    Zn2   S    
C8    C19   A    
O1    Zn1   S    
C16   O8    A    
N1    N2    T    
C1    C9    S    
H3    O10   S    
C4    C6    A    
O8    Zn2   S    
C12   O3    A    
C3    N3    S    
C3    C22   A    
C6    C8    A    
C15   N8    T    
C19   C21   A    
O3    Zn2   S    
C7    C14   S    
C4    N4    S    
C20   H2    S    
C6    O2    S    
C3    C5    A    
