data_mof_unit_37424.cif
_audit_creation_date              2012-12-11T16:57:19-0500
_audit_creation_method            fapswitch 2.2
_symmetry_space_group_name_H-M    P1
_symmetry_Int_Tables_number       1
_space_group_crystal_system       triclinic
_cell_length_a                    14.540912
_cell_length_b                    16.306441
_cell_length_c                    6.97535
_cell_angle_alpha                 90.350027
_cell_angle_beta                  99.528398
_cell_angle_gamma                 89.653523
_cell_volume                      1631.05904962

loop_
_atom_site_label
_atom_site_type_symbol
_atom_type_description
_atom_site_fract_x
_atom_site_fract_y
_atom_site_fract_z
_atom_type_partial_charge
O1    O     O_R   0.584990 0.413650 0.534420 -0.537366
O2    O     O_R   0.584990 0.586350 0.534420 -0.539003
O3    O     O_R   0.596190 0.585230 0.208380 -0.527011
O4    O     O_R   0.596190 0.414770 0.208380 -0.527363
O5    O     O_R   0.415010 0.586420 0.976930 -0.544596
O6    O     O_R   0.415010 0.413580 0.976930 -0.544446
C1    C     C_R   0.616438 0.616455 0.385190 0.716066
C2    C     C_R   0.616243 0.383422 0.384397 0.729055
O7    O     O_3   0.440560 0.500000 0.319140 -0.364578
V1    V     V_3+5 0.511030 0.500000 0.068070 1.488203
O8    O     O_R   0.403810 0.414840 0.643540 -0.533874
O9    O     O_R   0.403810 0.585160 0.643540 -0.536591
C3    C     C_R   0.378195 0.389898 0.804897 0.674072
C4    C     C_R   0.379602 0.612859 0.806620 0.682188
V2    V     V_3+5 0.488970 0.500000 0.560620 1.482196
O10   O     O_3   0.559440 0.500000 0.859420 -0.360992
H1    H     H_    0.387695 0.747872 0.021779 0.087809
H2    H     H_    0.352375 0.260701 0.012689 0.130378
C5    C     C_2   0.305662 0.677376 0.806340 0.027635
C6    C     C_2   0.292160 0.341786 0.794430 0.034872
C7    C     C_2   0.319167 0.741416 0.934276 -0.156017
C8    C     C_2   0.288130 0.277726 0.917789 -0.192607
C9    C     C_2   0.206282 0.824381 0.104032 0.119587
C10   C     C_2   0.196639 0.181846 0.095336 0.084535
C11   C     C_2   0.251400 0.810787 0.946923 0.161257
C12   C     C_2   0.205242 0.224014 0.926681 0.193878
C13   C     C_R   0.748592 0.696513 0.593204 0.080321
C14   C     C_R   0.746328 0.302553 0.594249 0.075393
C15   C     C_R   0.683012 0.688226 0.421461 -0.107402
C16   C     C_R   0.682884 0.311639 0.419947 -0.108172
C17   C     C_R   0.686413 0.748777 0.279685 -0.146840
C18   C     C_R   0.687888 0.251466 0.276775 -0.149070
H3    H     H_    0.633442 0.748949 0.152849 0.167244
H4    H     H_    0.636209 0.251814 0.147956 0.171507
C19   C     C_R   0.754940 0.811338 0.304237 -0.136266
C20   C     C_R   0.756167 0.188401 0.302984 -0.139371
H5    H     H_    0.753072 0.857505 0.192799 0.124012
H6    H     H_    0.755671 0.142277 0.190581 0.124744
C21   C     C_R   0.821058 0.817044 0.476569 -0.115452
C22   C     C_R   0.820403 0.182253 0.477820 -0.113866
C23   C     C_R   0.818860 0.756283 0.615081 0.051166
C24   C     C_R   0.816790 0.242571 0.618194 0.062768
C25   C     C_3   0.819659 0.770241 0.824741 -0.064206
C26   C     C_3   0.813364 0.227710 0.825882 -0.059595
C27   C     C_3   0.734576 0.714484 0.798644 0.345516
C28   C     C_3   0.729202 0.285129 0.796862 0.339658
H7    H     H_    0.803693 0.834619 0.861489 0.106398
H8    H     H_    0.795728 0.163305 0.855873 0.101657
O11   O     O_R   0.921430 0.915960 0.371040 -0.534374
O12   O     O_R   0.921430 0.084040 0.371040 -0.530101
O13   O     O_R   0.910450 0.087500 0.697310 -0.547557
O14   O     O_R   0.910450 0.912500 0.697310 -0.549295
O15   O     O_R   0.091710 0.087460 0.928430 -0.533018
O16   O     O_R   0.091710 0.912540 0.928430 -0.521183
C29   C     C_R   0.887025 0.112861 0.517813 0.722313
C30   C     C_R   0.887604 0.886609 0.517400 0.700782
O17   O     O_3   0.065970 0.000000 0.586140 -0.339055
V3    V     V_3+5 0.995640 0.000000 0.837400 1.506544
O18   O     O_R   0.103020 0.915700 0.261710 -0.527393
O19   O     O_R   0.103020 0.084300 0.261710 -0.521383
C31   C     C_R   0.130683 0.889513 0.099875 0.714689
C32   C     C_R   0.125132 0.114774 0.098393 0.756709
V4    V     V_3+5 0.017940 0.000000 0.344880 1.534638
O20   O     O_3   0.947330 0.000000 0.046180 -0.383868
I1    I     I_    0.264021 0.906367 0.745562 -0.467664
I2    I     I_    0.117132 0.204290 0.648644 -0.289586
I3    I     I_    0.754272 0.608161 0.973918 -0.221307
I4    I     I_    0.749042 0.393139 0.968765 -0.218660
N1    N     N_2   0.226757 0.773342 0.271315 -0.470683
H9    H     H_    0.181197 0.780775 0.368399 0.301239
C33   C     C_3   0.323943 0.767943 0.363080 -0.475991
H10   H     H_    0.352123 0.706432 0.335040 0.210088
H11   H     H_    0.330648 0.775503 0.521760 0.204669
H12   H     H_    0.367144 0.816580 0.311591 0.174121
N2    N     N_2   0.260715 0.200416 0.267664 -0.533705
H13   H     H_    0.236393 0.242406 0.358184 0.304366
C34   C     C_3   0.313437 0.132651 0.364503 -0.532384
H14   H     H_    0.371417 0.157043 0.473239 0.197474
H15   H     H_    0.343760 0.094521 0.257757 0.195655
H16   H     H_    0.268730 0.094215 0.441713 0.232513
I5    I     I_    0.171154 0.652541 0.648843 -0.231801
I6    I     I_    0.175696 0.408154 0.642972 -0.193471
I7    I     I_    0.952459 0.731052 0.984631 -0.234015
I8    I     I_    0.942464 0.263684 0.005264 -0.246841
N3    N     N_2   0.651090 0.764112 0.808839 -0.564635
H17   H     H_    0.649489 0.821022 0.744104 0.243388
C35   C     C_3   0.560189 0.726814 0.779290 -0.518573
H18   H     H_    0.512496 0.766096 0.848657 0.167610
H19   H     H_    0.562770 0.665609 0.847105 0.236870
H20   H     H_    0.531220 0.723830 0.622139 0.179671
N4    N     N_2   0.644650 0.237122 0.801332 -0.570439
H21   H     H_    0.641917 0.181066 0.730894 0.242068
C36   C     C_3   0.554545 0.276401 0.778744 -0.509185
H22   H     H_    0.507184 0.238588 0.850948 0.157973
H23   H     H_    0.523779 0.280100 0.622600 0.185079
H24   H     H_    0.559370 0.337530 0.848247 0.240278

loop_
_geom_bond_atom_site_label_1
_geom_bond_atom_site_label_2
_ccdc_geom_bond_type
C35   H18   S    
C36   H22   S    
O11   V4    S    
C6    I6    S    
C13   C15   A    
O1    C2    A    
C25   I7    S    
C9    N1    S    
C27   N3    S    
O2    C1    A    
O4    C2    A    
C21   C23   A    
C34   H14   S    
C14   C28   S    
O19   V4    S    
C1    C15   S    
C18   C20   A    
C5    C7    D    
C10   C12   D    
O3    C1    A    
V2    O10   S    
O19   C32   A    
N1    C33   S    
O8    V2    S    
C27   I3    S    
C17   H3    S    
O1    V2    S    
O7    V1    S    
C13   C27   S    
N3    C35   S    
C36   H23   S    
O12   V4    S    
C23   C25   S    
C24   C26   S    
C26   C28   S    
O17   V4    S    
C34   H15   S    
V3    O20   S    
O18   C31   A    
C12   I2    S    
C20   C22   A    
C11   I1    S    
N4    H21   S    
C33   H11   S    
C28   N4    S    
N3    H17   S    
H1    C7    S    
C18   H4    S    
C19   C21   A    
N2    H13   S    
C28   I4    S    
N4    C36   S    
C25   C27   S    
O15   C32   A    
C13   C23   A    
C21   C30   S    
O9    V2    S    
C22   C29   S    
O13   V3    S    
O2    V2    S    
N2    C34   S    
O5    C4    A    
O14   V3    S    
O9    C4    A    
C36   H24   S    
C35   H19   S    
C17   C19   A    
O4    V1    S    
C20   H6    S    
O16   V3    S    
C34   H16   S    
C7    C11   S    
C10   C32   S    
C3    C6    S    
C19   H5    S    
H2    C8    S    
C4    C5    S    
C6    C8    D    
C22   C24   A    
C26   I8    S    
O6    V1    S    
C33   H12   S    
O15   V3    S    
C10   N2    S    
O16   C31   A    
O11   C30   A    
O18   V4    S    
O12   C29   A    
C2    C16   S    
C14   C16   A    
O7    V2    S    
O5    V1    S    
C15   C17   A    
O3    V1    S    
V1    O10   S    
O6    C3    A    
C16   C18   A    
O8    C3    A    
O17   V3    S    
C14   C24   A    
O13   C29   A    
C9    C11   D    
N1    H9    S    
V4    O20   S    
C26   H8    S    
C9    C31   S    
C33   H10   S    
C8    C12   S    
C35   H20   S    
C5    I5    S    
C25   H7    S    
O14   C30   A    
