data_mof_unit_66176.cif
_audit_creation_date              2013-03-05T16:38:31-0500
_audit_creation_method            fapswitch 2.2
_symmetry_space_group_name_H-M    P1
_symmetry_Int_Tables_number       1
_space_group_crystal_system       triclinic
_cell_length_a                    16.822441
_cell_length_b                    18.444138
_cell_length_c                    19.346993
_cell_angle_alpha                 91.033469
_cell_angle_beta                  90.222836
_cell_angle_gamma                 82.26427
_cell_volume                      5947.29272218

loop_
_atom_site_label
_atom_site_type_symbol
_atom_site_description
_atom_site_fract_x
_atom_site_fract_y
_atom_site_fract_z
_atom_type_partial_charge
O1    O     O_R   0.500000 0.439160 0.601820 -0.568096
O2    O     O_R   0.500000 0.560840 0.398180 -0.571056
O3    O     O_R   0.500030 0.560790 0.601820 -0.627397
O4    O     O_R   0.499970 0.439210 0.398180 -0.625234
C1    C     C_R   0.497640 0.501174 0.634562 0.997410
C2    C     C_R   0.502109 0.499022 0.365427 0.900086
O5    O     O_R   0.615780 0.432000 0.500010 -0.594422
O6    O     O_R   0.384220 0.568000 0.499990 -0.570822
O7    O     O_R   0.615820 0.553620 0.500010 -0.597471
O8    O     O_R   0.384180 0.446380 0.499990 -0.628562
C3    C     C_R   0.653079 0.487797 0.498015 0.966458
C4    C     C_R   0.346908 0.511957 0.497442 0.972976
Zn1   Zn    Zn3+2 0.499980 0.418790 0.500000 1.040546
Zn2   Zn    Zn3+2 0.500020 0.581210 0.500000 1.052410
C5    C     C_R   0.738886 0.474900 0.486306 -0.199716
C6    C     C_R   0.261261 0.523587 0.484129 -0.215182
C7    C     C_R   0.791429 0.503633 0.533160 -0.034495
C8    C     C_R   0.207170 0.504064 0.533954 -0.044714
C9    C     C_R   0.872248 0.497805 0.515934 -0.208566
C10   C     C_R   0.126295 0.509439 0.516362 -0.211646
C11   C     C_R   0.900726 0.464927 0.453453 0.004002
C12   C     C_R   0.099310 0.531996 0.450739 -0.003193
C13   C     C_R   0.849665 0.433344 0.407944 0.347201
C14   C     C_R   0.151957 0.553414 0.401649 0.360867
C15   C     C_R   0.768089 0.437584 0.424658 -0.147822
C16   C     C_R   0.233653 0.549410 0.418204 -0.151900
C17   C     C_2   0.985577 0.464883 0.437252 -0.105050
C18   C     C_2   0.014744 0.529887 0.434273 -0.111712
H1    H     H_    0.083358 0.494665 0.553512 0.182632
H2    H     H_    0.913923 0.519531 0.551091 0.179187
C19   C     C_R   0.539233 0.554497 0.255878 0.349608
C20   C     C_R   0.529399 0.445158 0.749194 0.335677
C21   C     C_R   0.535814 0.557658 0.184493 -0.195590
C22   C     C_R   0.536487 0.452523 0.820130 -0.203050
H3    H     H_    0.558680 0.602205 0.158524 0.199241
H4    H     H_    0.561555 0.405353 0.849583 0.184054
C23   C     C_R   0.506216 0.503036 0.145782 -0.064119
C24   C     C_R   0.509274 0.518544 0.853859 -0.043433
C25   C     C_R   0.480194 0.442367 0.177410 -0.061722
C26   C     C_R   0.474341 0.579789 0.816691 -0.077711
C27   C     C_R   0.480182 0.439525 0.250009 -0.121722
C28   C     C_R   0.464703 0.572708 0.744677 -0.146984
C29   C     C_R   0.508023 0.496916 0.289705 -0.240344
C30   C     C_R   0.494750 0.505419 0.710403 -0.266812
C31   C     C_R   0.580254 0.492103 0.036117 -0.145483
C32   C     C_R   0.437361 0.536570 0.964983 -0.132933
H5    H     H_    0.635359 0.474328 0.063785 0.180178
H6    H     H_    0.381473 0.551949 0.937656 0.157177
C33   C     C_R   0.581387 0.497163 0.964736 -0.127359
C34   C     C_R   0.436640 0.533155 0.036334 -0.056935
H7    H     H_    0.637458 0.483238 0.937175 0.166364
H8    H     H_    0.380690 0.547103 0.064097 0.180110
C35   C     C_R   0.509803 0.518983 0.929099 0.133422
C36   C     C_R   0.507658 0.509160 0.071457 0.104081
C37   C     C_R   0.446592 0.279456 0.460063 0.091500
C38   C     C_R   0.544982 0.720770 0.547810 0.062383
H9    H     H_    0.404291 0.313683 0.428464 0.135811
H10   H     H_    0.579798 0.686766 0.585082 0.156357
C39   C     C_R   0.446159 0.203489 0.459353 -0.233668
C40   C     C_R   0.546451 0.796661 0.549208 -0.244519
H11   H     H_    0.404042 0.180371 0.425890 0.150560
H12   H     H_    0.582107 0.820382 0.588081 0.163141
C41   C     C_R   0.500637 0.158458 0.500794 0.095050
C42   C     C_R   0.500715 0.841208 0.501281 0.094011
C43   C     C_R   0.554908 0.192509 0.541714 -0.229016
C44   C     C_R   0.454936 0.807275 0.452553 -0.233654
H13   H     H_    0.597227 0.160932 0.575458 0.159842
H14   H     H_    0.419702 0.839164 0.413995 0.163608
C45   C     C_R   0.553818 0.268627 0.540242 0.138822
C46   C     C_R   0.455800 0.731190 0.452589 0.099446
H15   H     H_    0.595777 0.294402 0.571658 0.174621
H16   H     H_    0.421363 0.705555 0.414432 0.193382
N1    N     N_R   0.499990 0.310560 0.500020 -0.108292
N2    N     N_R   0.500010 0.689440 0.499980 -0.110019
C47   C     C_R   0.572388 0.028955 0.510905 -0.144421
C48   C     C_R   0.429136 0.970051 0.492239 -0.152612
H17   H     H_    0.629125 0.049965 0.516703 0.152474
H18   H     H_    0.372742 0.948513 0.485677 0.152718
C49   C     C_R   0.572302 0.952873 0.511507 -0.142458
C50   C     C_R   0.429022 0.046128 0.492384 -0.145972
H19   H     H_    0.628694 0.917751 0.518128 0.155503
H20   H     H_    0.372262 0.080772 0.486410 0.148339
C51   C     C_R   0.500735 0.922349 0.501852 0.113253
C52   C     C_R   0.500708 0.076951 0.501392 0.119630
C53   C     C_2   0.764188 0.538901 0.600515 0.938658
O9    O     O_2   0.802645 0.583233 0.628149 -0.590930
O10   O     O_R   0.695971 0.520391 0.633410 -0.809975
H21   H     H_    0.683969 0.548134 0.678711 0.351837
C54   C     C_2   0.232637 0.477336 0.604146 0.962521
O11   O     O_2   0.188801 0.443512 0.637737 -0.589063
O12   O     O_R   0.305550 0.491454 0.632729 -0.780864
H22   H     H_    0.315340 0.470419 0.680552 0.359192
C55   C     C_2   0.289708 0.566721 0.363767 0.946389
O13   O     O_2   0.332267 0.614436 0.373944 -0.631083
O14   O     O_R   0.290251 0.531135 0.299348 -0.706569
H23   H     H_    0.329141 0.549064 0.265801 0.348574
C56   C     C_2   0.713377 0.407208 0.374860 0.988956
O15   O     O_2   0.704131 0.432719 0.317044 -0.555809
O16   O     O_R   0.675671 0.347277 0.393031 -0.751751
H24   H     H_    0.641479 0.330493 0.354225 0.379096
C57   C     C_2   0.962535 0.601084 0.423849 1.006343
O17   O     O_2   0.985558 0.658254 0.443187 -0.580842
O18   O     O_R   0.888495 0.603062 0.390259 -0.735397
H25   H     H_    0.859221 0.654580 0.386287 0.370383
C58   C     C_2   0.038135 0.392749 0.434401 1.007192
O19   O     O_2   0.015151 0.339006 0.459838 -0.583158
O20   O     O_R   0.112495 0.385734 0.401062 -0.751021
H26   H     H_    0.142002 0.334105 0.402598 0.354582
N3    N     N_R   0.880173 0.398743 0.344387 0.215353
O21   O     O_R   0.921998 0.432991 0.302500 -0.276039
O22   O     O_R   0.866587 0.332694 0.328368 -0.316117
N4    N     N_R   0.122743 0.577728 0.334822 0.222673
O23   O     O_R   0.080691 0.537697 0.297169 -0.270767
O24   O     O_R   0.138018 0.640114 0.311486 -0.321008
N5    N     N_R   0.577136 0.608957 0.292749 0.226473
O25   O     O_R   0.635339 0.589122 0.335779 -0.341617
O26   O     O_R   0.563217 0.677163 0.274822 -0.364262
N6    N     N_R   0.558300 0.375906 0.717593 0.208541
O27   O     O_R   0.507348 0.331941 0.699242 -0.373682
O28   O     O_R   0.634056 0.350395 0.722007 -0.362547
C59   C     C_2   0.455671 0.380967 0.134866 0.955998
O29   O     O_2   0.486854 0.318248 0.144974 -0.565734
O30   O     O_R   0.396688 0.394643 0.083967 -0.782156
H27   H     H_    0.385577 0.348433 0.058686 0.366691
C60   C     C_2   0.447997 0.650678 0.853346 0.950616
O31   O     O_2   0.492914 0.675321 0.894825 -0.577206
O32   O     O_R   0.371606 0.688492 0.841172 -0.772857
H28   H     H_    0.360814 0.735638 0.869364 0.366429
C61   C     C_2   0.446700 0.378280 0.282794 0.977578
O33   O     O_2   0.491825 0.325701 0.303744 -0.596846
O34   O     O_R   0.363637 0.379605 0.286841 -0.749477
H29   H     H_    0.347891 0.334128 0.308779 0.342530
C62   C     C_2   0.423640 0.636059 0.705975 1.027272
O35   O     O_2   0.364122 0.629225 0.671267 -0.562812
O36   O     O_R   0.453531 0.703210 0.709118 -0.792057
H30   H     H_    0.420930 0.741846 0.680219 0.349513

loop_
_geom_bond_atom_site_label_1
_geom_bond_atom_site_label_2
_geom_bond_distance
_ccdc_geom_bond_type
C44   H14   1.082723 S    
O10   H21   1.013961 S    
C41   C43   1.409073 A    
C55   O13   1.219893 D    
C37   C39   1.401960 A    
N5    O26   1.301340 A    
O14   H23   1.013848 S    
C14   N4    1.439053 S    
C50   C52   1.409671 A    
N4    O24   1.301194 A    
C56   O15   1.222595 D    
O36   H30   1.013884 S    
C25   C27   1.406506 A    
C44   C46   1.401444 A    
C53   O9    1.223467 D    
O5    C3    1.276617 A    
C58   O20   1.399042 S    
C34   C36   1.395388 A    
C19   C29   1.417660 A    
C28   C62   1.487743 S    
O1    C1    1.293419 A    
Zn2   N2    1.996193 S    
C12   C14   1.398827 A    
C9    C11   1.399410 A    
C48   H18   1.082884 S    
N3    O22   1.301202 A    
C43   C45   1.402377 A    
C47   C52   1.410098 A    
C5    C15   1.421784 A    
C17   C58   1.495309 S    
N5    O25   1.301452 A    
C40   H12   1.082643 S    
O4    Zn1   2.012250 S    
C45   H15   1.081777 S    
N6    O27   1.301006 A    
C7    C9    1.390661 A    
C3    C5    1.449038 S    
C18   C57   1.494690 S    
C4    C6    1.450569 S    
C43   H13   1.081994 S    
C46   N2    1.361159 A    
C34   H8    1.083673 S    
O20   H26   1.013765 S    
C19   C21   1.384007 A    
C45   N1    1.360661 A    
C54   O12   1.397721 S    
C8    C10   1.392119 A    
C16   C55   1.483679 S    
C31   H5    1.083527 S    
C11   C17   1.462483 S    
C57   O18   1.399058 S    
C24   C26   1.409184 A    
C12   C18   1.462104 S    
C27   C29   1.425109 A    
O2    C2    1.290751 A    
C28   C30   1.428121 A    
C48   C51   1.406524 A    
C19   N5    1.437839 S    
N4    O23   1.301330 A    
C56   O16   1.397248 S    
C10   H1    1.084735 S    
C53   O10   1.399108 S    
C6    C16   1.423736 A    
C55   O14   1.397557 S    
C13   N3    1.439146 S    
C32   H6    1.083358 S    
C39   H11   1.082012 S    
C38   N2    1.362166 A    
C57   O17   1.223288 D    
O30   H27   1.013767 S    
C50   H20   1.082090 S    
O12   H22   1.014035 S    
C49   H19   1.082858 S    
C33   H7    1.083402 S    
C21   C23   1.388782 A    
C38   C40   1.403055 A    
C42   C44   1.405839 A    
O7    Zn2   1.946005 S    
C42   C51   1.496459 S    
O7    C3    1.289159 A    
O16   H24   1.013198 S    
C49   C51   1.406489 A    
C31   C33   1.386204 A    
O6    C4    1.279627 A    
C20   C30   1.410889 A    
C47   H17   1.082074 S    
C59   O29   1.222959 D    
O3    Zn2   2.012248 S    
O8    C4    1.286951 A    
C23   C36   1.444982 S    
O4    C2    1.286815 A    
C1    C30   1.468613 S    
Zn1   N1    1.996193 S    
C31   C36   1.397565 A    
C2    C29   1.468230 S    
C37   H9    1.080869 S    
C62   O35   1.222679 D    
C7    C53   1.491670 S    
O1    Zn1   1.998759 S    
C10   C12   1.398143 A    
O34   H29   1.013602 S    
O18   H25   1.013752 S    
C60   O32   1.398431 S    
C61   O33   1.222539 D    
C15   C56   1.483808 S    
C5    C7    1.409398 A    
O6    Zn2   1.995494 S    
C22   C24   1.393476 A    
C8    C54   1.494490 S    
C48   C50   1.402873 A    
C20   N6    1.431306 S    
O3    C1    1.284199 A    
O8    Zn1   1.946005 S    
C58   O19   1.223303 D    
C32   C34   1.383168 A    
C39   C41   1.409217 A    
C25   C59   1.489840 S    
C41   C52   1.503420 S    
C40   C42   1.406619 A    
C11   C13   1.400962 A    
C23   C25   1.406006 A    
N3    O21   1.301278 A    
C27   C61   1.481719 S    
C14   C16   1.402472 A    
C60   O31   1.223158 D    
C24   C35   1.455547 S    
C33   C35   1.400193 A    
C26   C60   1.490582 S    
C32   C35   1.401555 A    
C26   C28   1.407792 A    
C21   H3    1.084871 S    
C38   H10   1.081906 S    
C22   H4    1.084761 S    
C13   C15   1.402690 A    
O2    Zn2   1.998760 S    
N6    O28   1.300755 A    
C59   O30   1.397101 S    
C37   N1    1.360502 A    
O5    Zn1   1.995493 S    
C6    C8    1.412253 A    
C17   C18   1.357428 D    
C62   O36   1.398290 S    
C46   H16   1.077949 S    
C54   O11   1.223737 D    
C9    H2    1.084821 S    
C47   C49   1.403729 A    
O32   H28   1.013786 S    
C20   C22   1.382933 A    
C61   O34   1.396723 S    
