data_mof_unit_47970.cif
_audit_creation_date              2012-12-11T16:53:36-0500
_audit_creation_method            fapswitch 2.2
_symmetry_space_group_name_H-M    P1
_symmetry_Int_Tables_number       1
_space_group_crystal_system       triclinic
_cell_length_a                    14.951257
_cell_length_b                    14.847068
_cell_length_c                    17.252083
_cell_angle_alpha                 108.901
_cell_angle_beta                  107.263776
_cell_angle_gamma                 107.334186
_cell_volume                      3113.43719957

loop_
_atom_site_label
_atom_site_type_symbol
_atom_type_description
_atom_site_fract_x
_atom_site_fract_y
_atom_site_fract_z
_atom_type_partial_charge
C1    C     C_R   0.094470 0.289310 0.072993 -0.128654
C2    C     C_R   0.024685 0.560606 0.740546 0.175064
C3    C     C_R   0.663591 0.222257 0.743469 -0.038061
C4    C     C_R   0.289856 0.462881 0.966163 0.048625
C5    C     C_R   0.216913 0.702572 0.263730 -0.126017
C6    C     C_R   0.707897 0.508419 0.923844 -0.093975
C7    C     C_R   0.891197 0.407432 0.178955 -0.155836
C8    C     C_R   0.078880 0.801006 0.007368 -0.115531
C9    C     C_R   0.908041 0.717813 0.935521 -0.143878
C10   C     C_R   0.065102 0.488241 0.255183 -0.153819
C11   C     C_R   0.222056 0.797618 0.186506 -0.138623
C12   C     C_R   0.934168 0.507207 0.742988 -0.000430
C13   C     C_R   0.701241 0.413785 0.001350 -0.145969
C14   C     C_R   0.238460 0.803786 0.272101 0.063795
C15   C     C_R   0.645620 0.451435 0.951795 0.070698
C16   C     C_R   0.973912 0.436802 0.257834 0.059961
C17   C     C_R   0.991083 0.814087 0.967567 0.147343
C18   C     C_R   0.410338 0.494258 0.896948 0.156146
C19   C     C_R   0.356277 0.431768 0.928703 0.014061
C20   C     C_R   0.377387 0.347082 0.932499 -0.150460
C21   C     C_R   0.469540 0.345252 0.930593 -0.178913
C22   C     C_R   0.538085 0.428187 0.924312 0.003331
C23   C     C_R   0.718308 0.217894 0.821783 -0.212903
C24   C     C_R   0.502706 0.496022 0.899609 0.127765
C25   C     C_3   0.550067 0.611871 0.923047 -0.089084
C26   C     C_3   0.446243 0.609199 0.918499 -0.577142
C27   C     C_R   0.968388 0.436055 0.337659 0.127214
C28   C     C_R   0.031868 0.557823 0.659950 -0.210477
C29   C     C_R   0.043644 0.640481 0.562957 -0.305953
C30   C     C_R   0.053136 0.648960 0.647324 0.467718
C31   C     C_R   0.006077 0.459030 0.591576 0.354477
C32   C     C_R   0.992165 0.449525 0.505758 0.044129
C33   C     C_R   0.011182 0.541456 0.492188 0.053454
C34   C     C_R   0.250637 0.528123 0.944934 -0.160241
C35   C     C_R   0.998655 0.533513 0.407856 -0.191155
C36   C     C_R   0.946580 0.344145 0.348132 -0.224056
C37   C     C_R   0.958554 0.350701 0.432679 -0.100962
C38   C     C_R   0.557114 0.146693 0.672510 0.147117
C39   C     C_R   0.281722 0.900661 0.356947 0.130753
C40   C     C_R   0.395935 0.087397 0.437774 -0.199400
C41   C     C_R   0.321982 0.999203 0.357429 -0.175985
C42   C     C_R   0.299445 0.895701 0.439930 -0.262760
C43   C     C_R   0.374735 0.984087 0.521162 0.181764
C44   C     C_R   0.428204 0.077607 0.518083 0.155217
C45   C     C_R   0.725820 0.316663 0.749288 0.441181
C46   C     C_R   0.519961 0.155583 0.591929 -0.205809
C47   C     C_R   0.496906 0.058685 0.678974 -0.154254
C48   C     C_R   0.406392 0.977179 0.603237 -0.199854
C49   C     C_R   0.132002 0.099656 0.081223 0.130016
C50   C     C_R   0.039002 0.112521 0.070764 0.011072
C51   C     C_R   0.977650 0.062246 0.106237 -0.223019
C52   C     C_R   0.013372 0.012371 0.157485 -0.158597
C53   C     C_R   0.111866 0.013391 0.176349 0.015004
C54   C     C_R   0.167181 0.050159 0.132083 0.015047
C55   C     C_3   0.278910 0.127996 0.172035 -0.217413
C56   C     C_R   0.266772 0.450483 0.036385 0.174790
C57   C     C_3   0.241907 0.175276 0.109753 0.272093
C58   C     C_R   0.107060 0.595929 0.821414 -0.067655
C59   C     C_R   0.924800 0.197470 0.994952 0.172007
C60   C     C_R   0.017721 0.190946 0.039914 0.034107
H1    H     H_    0.166072 0.324059 0.131688 0.084912
H2    H     H_    0.684447 0.536237 0.874093 0.141206
H3    H     H_    0.809602 0.361193 0.158083 0.101259
H4    H     H_    0.156583 0.855410 0.029769 0.091548
H5    H     H_    0.827740 0.695171 0.893111 0.117695
H6    H     H_    0.143365 0.513040 0.303861 0.102733
H7    H     H_    0.231118 0.861133 0.168044 0.093411
H8    H     H_    0.672150 0.355927 0.023746 0.096118
H9    H     H_    0.329426 0.289974 0.946281 0.208349
H10   H     H_    0.491250 0.286255 0.943216 0.152483
H11   H     H_    0.856066 0.475149 0.691264 0.164883
H12   H     H_    0.563744 0.623583 0.866317 0.139835
H13   H     H_    0.448598 0.659070 0.983549 0.196638
H14   H     H_    0.403287 0.619597 0.859781 0.192288
H15   H     H_    0.015493 0.603661 0.396983 0.126110
H16   H     H_    0.924175 0.269037 0.292214 0.126395
H17   H     H_    0.058890 0.710393 0.552028 0.180579
H18   H     H_    0.942343 0.278704 0.440034 0.184748
H19   H     H_    0.566604 0.216406 0.580866 0.187062
H20   H     H_    0.683284 0.167652 0.847623 0.132781
H21   H     H_    0.522275 0.049111 0.740095 0.121290
H22   H     H_    0.433795 0.160675 0.435696 0.139340
H23   H     H_    0.365063 0.906498 0.607270 0.139890
H24   H     H_    0.304404 0.007216 0.295439 0.119620
H25   H     H_    0.263814 0.821466 0.441157 0.117901
H26   H     H_    0.907375 0.070323 0.103048 0.137522
H27   H     H_    0.968097 0.980390 0.188906 0.135550
H28   H     H_    0.303448 0.183304 0.244139 0.114175
H29   H     H_    0.267814 0.259691 0.152276 0.032300
H30   H     H_    0.255884 0.555528 0.895368 0.132236
H31   H     H_    0.186993 0.649309 0.843680 0.107419
H32   H     H_    0.222949 0.678084 0.316642 0.096222
N1    N     N_R   0.055640 0.348550 0.045600 -0.055034
N2    N     N_R   0.798340 0.505430 0.954400 -0.042708
N3    N     N_R   0.931580 0.439470 0.128350 -0.040192
N4    N     N_R   0.051950 0.704140 0.002340 -0.052320
N5    N     N_R   0.944360 0.651450 0.954400 -0.043539
N6    N     N_R   0.039170 0.492150 0.176290 -0.039493
N7    N     N_R   0.188710 0.696600 0.128350 -0.043797
N8    N     N_R   0.794820 0.447010 0.002340 -0.044476
N9    N     N_R   0.960830 0.507850 0.823710 -0.045771
N10   N     N_R   0.811290 0.303400 0.871650 -0.054537
N11   N     N_R   0.205180 0.552990 0.997660 -0.058327
N12   N     N_R   0.814810 0.361830 0.823710 -0.065570
N13   N     N_R   0.201660 0.494570 0.045600 -0.061683
N14   N     N_R   0.068420 0.560530 0.871650 -0.054318
N15   N     N_R   0.948050 0.295860 0.997660 -0.055467
N16   N     N_R   0.185190 0.638170 0.176290 -0.044504
Ni1   Ni    Ni4+2 0.119330 0.493420 0.109950 0.202917
Ni2   Ni    Ni4+2 0.880670 0.506580 0.890050 0.276665
Ni3   Ni    Ni4+2 0.872590 0.372590 0.000000 0.206884
Ni4   Ni    Ni4+2 0.127410 0.627410 0.000000 0.213967
C61   C     C_3   0.643737 0.691971 0.016962 -0.348257
C62   C     C_3   0.639445 0.674438 0.099274 -0.232425
C63   C     C_3   0.737183 0.756544 0.186382 -0.916590
H33   H     H_    0.807370 0.750352 0.180499 0.264247
H34   H     H_    0.744950 0.837571 0.199886 0.260544
H35   H     H_    0.732015 0.742573 0.244709 0.257268
H36   H     H_    0.571139 0.680984 0.108839 0.188742
H37   H     H_    0.633837 0.595212 0.089565 0.204113
H38   H     H_    0.716586 0.692853 0.012894 0.177084
H39   H     H_    0.649354 0.772221 0.029425 0.188859
Cl1   Cl    Cl    0.086823 0.773044 0.734387 -0.634474
Cl2   Cl    Cl    0.991132 0.348277 0.614596 -0.666822
C64   C     C_3   0.367419 0.095335 0.167414 -0.289984
C65   C     C_3   0.342422 0.997003 0.082838 -0.164549
C66   C     C_3   0.433937 0.010940 0.058137 -0.887570
H40   H     H_    0.450334 0.076757 0.039182 0.286873
H41   H     H_    0.504503 0.028156 0.116504 0.244205
H42   H     H_    0.414685 0.937166 0.999187 0.255238
H43   H     H_    0.327219 0.928265 0.097906 0.149953
H44   H     H_    0.273607 0.978523 0.022762 0.263025
H45   H     H_    0.431517 0.165740 0.176840 0.212119
H46   H     H_    0.399556 0.083240 0.228075 0.141382
Cl3   Cl    Cl    0.269269 0.149625 0.012792 -0.702216
Cl4   Cl    Cl    0.680953 0.397133 0.708689 -0.764850
C67   C     C_3   0.334953 0.439074 0.113038 -0.469404
C68   C     C_3   0.448405 0.522112 0.157966 -0.272682
C69   C     C_3   0.514384 0.513797 0.239479 -0.875425
H47   H     H_    0.484843 0.528434 0.292102 0.259136
H48   H     H_    0.512666 0.433951 0.217764 0.265606
H49   H     H_    0.596223 0.573779 0.269713 0.250598
H50   H     H_    0.482346 0.510272 0.108662 0.204339
H51   H     H_    0.451966 0.602795 0.181006 0.202383
H52   H     H_    0.331543 0.359461 0.087401 0.236537
H53   H     H_    0.307231 0.451880 0.166710 0.187803
C70   C     C_3   0.817095 0.111723 0.956191 -0.441169
C71   C     C_3   0.757047 0.146492 0.008575 -0.280311
C72   C     C_3   0.648563 0.058347 0.970977 -0.914330
H54   H     H_    0.603391 0.034821 0.897994 0.260514
H55   H     H_    0.653960 0.988349 0.978480 0.262695
H56   H     H_    0.606837 0.086911 0.009420 0.255651
H57   H     H_    0.800116 0.168329 0.081587 0.194589
H58   H     H_    0.749583 0.216936 0.003938 0.198395
H59   H     H_    0.776811 0.088693 0.883025 0.195232
H60   H     H_    0.820791 0.039059 0.958365 0.193662

loop_
_geom_bond_atom_site_label_1
_geom_bond_atom_site_label_2
_ccdc_geom_bond_type
C64   H46   S    
C65   C66   S    
C56   C67   S    
C3    C23   A    
C19   C20   A    
C8    N4    A    
C2    C12   A    
C34   H30   S    
C62   C63   S    
N3    N6    A    
C39   C41   A    
N14   Ni4   S    
C53   C54   A    
N7    N16   A    
N4    Ni4   S    
C35   H15   S    
C57   H29   S    
C18   C24   A    
C67   H52   S    
C36   C37   A    
C31   Cl2   S    
C68   H50   S    
C72   H55   S    
C46   H19   S    
C69   H49   S    
C23   N10   A    
C49   C54   A    
C29   C33   A    
C26   H13   S    
C49   C57   S    
N16   Ni1   S    
C11   N7    A    
C18   C19   A    
C55   H28   S    
C10   N6    A    
C36   H16   S    
C70   C71   S    
C33   C35   A    
C14   C39   S    
C4    C19   S    
C15   C22   S    
C61   H39   S    
C55   C64   S    
C3    C38   S    
C44   C46   A    
C63   H34   S    
C18   C26   S    
N2    N8    A    
C23   H20   S    
C70   H59   S    
C43   C48   A    
C31   C32   A    
C62   H36   S    
C16   C27   S    
C6    C15   A    
C59   C60   A    
N6    Ni1   S    
C21   C22   A    
C4    C56   A    
N10   Ni3   S    
C71   H58   S    
C51   H26   S    
C11   H7    S    
C39   C42   A    
C10   H6    S    
C4    C34   A    
C28   C31   A    
C51   C52   A    
N3    Ni3   S    
C40   H22   S    
C67   H53   S    
C24   C25   S    
C1    C60   A    
C11   C14   A    
C42   H25   S    
C27   C35   A    
N9    Ni2   S    
C41   H24   S    
N2    Ni2   S    
C59   N15   A    
N11   Ni4   S    
C58   N14   A    
C43   C44   A    
C66   H41   S    
C29   C30   A    
C45   N12   A    
C25   C61   S    
C47   C48   A    
C65   H44   S    
C63   H35   S    
N4    N5    A    
C50   C51   A    
C38   C47   A    
C61   H38   S    
N11   N13   A    
C25   H12   S    
C32   C37   A    
C71   C72   S    
N10   N12   A    
C70   H60   S    
C7    H3    S    
C5    C14   A    
C8    H4    S    
C9    C17   A    
C7    C16   A    
C12   H11   S    
C55   C57   S    
C64   C65   S    
C22   C24   A    
C20   H9    S    
C72   H56   S    
C42   C43   A    
C66   H40   S    
C52   C53   A    
C61   C62   S    
C58   H31   S    
C64   H45   S    
N9    N14   A    
N13   Ni1   S    
C54   C55   S    
C40   C41   A    
C45   Cl4   S    
C9    N5    A    
N15   Ni3   S    
C52   H27   S    
C34   N11   A    
C1    H1    S    
C69   H47   S    
C2    C58   A    
C27   C36   A    
C7    N3    A    
C67   C68   S    
C8    C17   A    
C48   H23   S    
C21   H10   S    
C50   C60   S    
C32   C33   A    
C6    H2    S    
C13   N8    A    
C13   C15   A    
C25   C26   S    
C66   H42   S    
C12   N9    A    
C10   C16   A    
C72   H54   S    
N1    N15   A    
N12   Ni2   S    
N5    Ni2   S    
C69   H48   S    
C6    N2    A    
C65   H43   S    
C68   H51   S    
N7    Ni4   S    
C28   C30   A    
C26   H14   S    
C3    C45   A    
C47   H21   S    
C9    H5    S    
C56   N13   A    
C38   C46   A    
C5    H32   S    
C68   C69   S    
C40   C44   A    
C29   H17   S    
C20   C21   A    
N8    Ni3   S    
C1    N1    A    
C49   C50   A    
C71   H57   S    
C30   Cl1   S    
C57   Cl3   S    
C2    C28   S    
C37   H18   S    
C13   H8    S    
C62   H37   S    
C63   H33   S    
N1    Ni1   S    
C5    N16   A    
C59   C70   S    
