data_mof_unit_52763.cif
_audit_creation_date              2012-12-10T16:48:08-0500
_audit_creation_method            fapswitch 2.2
_symmetry_space_group_name_H-M    P1
_symmetry_Int_Tables_number       1
_space_group_crystal_system       triclinic
_cell_length_a                    15.878595
_cell_length_b                    8.682441
_cell_length_c                    7.495343
_cell_angle_alpha                 103.289552
_cell_angle_beta                  94.718751
_cell_angle_gamma                 92.847433
_cell_volume                      999.755301858

loop_
_atom_site_label
_atom_site_type_symbol
_atom_type_description
_atom_site_fract_x
_atom_site_fract_y
_atom_site_fract_z
_atom_type_partial_charge
C1    C     C_R   0.497413 0.199710 0.453017 0.862215
C2    C     C_R   0.502587 0.800289 0.546983 0.862215
C3    C     C_R   0.340207 0.499586 0.501426 0.798806
C4    C     C_R   0.659793 0.500414 0.498573 0.798806
C5    C     C_2   0.496266 0.031446 0.427011 -0.330827
C6    C     C_2   0.503734 0.968554 0.572989 -0.330826
C7    C     C_3   0.971930 0.394667 0.589881 0.248099
C8    C     C_3   0.028070 0.605333 0.410118 0.248098
C9    C     C_3   0.021105 0.355619 0.418289 0.229114
C10   C     C_3   0.978895 0.644380 0.581711 0.229114
C11   C     C_1   0.251031 0.499874 0.504459 -0.113597
C12   C     C_1   0.748969 0.500126 0.495540 -0.113597
C13   C     C_3   0.034608 0.539046 0.674274 0.232662
C14   C     C_3   0.965392 0.460953 0.325726 0.232661
C15   C     C_3   0.084427 0.500016 0.502754 -0.066623
C16   C     C_3   0.915573 0.499984 0.497246 -0.066623
C17   C     C_1   0.175750 0.499986 0.504684 0.185891
C18   C     C_1   0.824250 0.500014 0.495316 0.185891
Cu1   Cu    Cu3+1 0.509330 0.517380 0.684380 1.067036
Cu2   Cu    Cu3+1 0.490670 0.482620 0.315620 1.067036
H1    H     H_    0.489306 0.959054 0.286736 0.194868
H2    H     H_    0.510694 0.040946 0.713264 0.194868
N1    N     N_2   0.476600 0.456420 0.038510 0.141536
N2    N     N_2   0.523400 0.543580 0.961490 0.141536
O1    O     O_R   0.506070 0.286130 0.619780 -0.538718
O2    O     O_R   0.493930 0.713870 0.380220 -0.538718
O3    O     O_R   0.490300 0.256770 0.308360 -0.607111
O4    O     O_R   0.509700 0.743230 0.691640 -0.607112
O5    O     O_R   0.386960 0.514660 0.655680 -0.532621
O6    O     O_R   0.613040 0.485340 0.344320 -0.532622
O7    O     O_R   0.371190 0.485310 0.344260 -0.589089
O8    O     O_R   0.628810 0.514690 0.655740 -0.589089
O9    O     O_3   0.043982 0.204833 0.333175 -0.675090
H3    H     H_    0.989887 0.138928 0.295197 0.360047
O10   O     O_3   0.956018 0.795167 0.666825 -0.675091
H4    H     H_    0.010113 0.861072 0.704801 0.360047
O11   O     O_3   0.941741 0.284316 0.683128 -0.665654
H5    H     H_    0.992488 0.233947 0.722321 0.356311
O12   O     O_3   0.058259 0.715684 0.316872 -0.665654
H6    H     H_    0.007512 0.766053 0.277679 0.356311
O13   O     O_3   0.928431 0.420417 0.143908 -0.666628
H7    H     H_    0.975468 0.386867 0.068012 0.369914
O14   O     O_3   0.071569 0.579583 0.856092 -0.666628
H8    H     H_    0.024532 0.613133 0.931987 0.369914
O15   O     O_3   0.419852 0.352926 0.924332 -0.598883
H9    H     H_    0.390236 0.297358 0.005157 0.338345
O16   O     O_3   0.580148 0.647074 0.075668 -0.598883
H10   H     H_    0.609764 0.702642 0.994843 0.338345

loop_
_geom_bond_atom_site_label_1
_geom_bond_atom_site_label_2
_ccdc_geom_bond_type
C9    O9    S    
C9    C14   S    
C10   O10   S    
N1    O15   S    
Cu2   O3    S    
C4    C12   S    
O13   H7    S    
O10   H4    S    
Cu2   N1    S    
C7    C13   S    
N1    N2    D    
C1    O3    A    
C2    C6    S    
Cu1   N2    S    
C7    O11   S    
C10   C16   S    
C2    O2    A    
Cu2   O6    S    
O15   H9    S    
C3    O7    A    
C1    O1    A    
Cu1   O4    S    
C4    O8    A    
Cu2   O2    S    
C14   O13   S    
C1    C5    S    
Cu1   O8    S    
C16   C18   S    
C7    C16   S    
C8    O12   S    
O11   H5    S    
O9    H3    S    
C8    C15   S    
C13   C15   S    
O14   H8    S    
C9    C15   S    
C5    C6    D    
Cu1   O1    S    
C14   C16   S    
C3    C11   S    
Cu1   O5    S    
O16   H10   S    
C7    C9    S    
C13   O14   S    
C5    H1    S    
C3    O5    A    
C12   C18   T    
O12   H6    S    
C15   C17   S    
C11   C17   T    
C2    O4    A    
C8    C14   S    
N2    O16   S    
C10   C13   S    
C8    C10   S    
C4    O6    A    
Cu1   Cu2   S    
Cu2   O7    S    
C6    H2    S    
