data_mof_unit_28201.cif
_audit_creation_date              2012-12-11T14:30:01-0500
_audit_creation_method            fapswitch 2.2
_symmetry_space_group_name_H-M    P1
_symmetry_Int_Tables_number       1
_space_group_crystal_system       triclinic
_cell_length_a                    12.599553
_cell_length_b                    12.59955
_cell_length_c                    26.954957
_cell_angle_alpha                 90.000016
_cell_angle_beta                  90.0
_cell_angle_gamma                 120.007323
_cell_volume                      3705.50492799

loop_
_atom_site_label
_atom_site_type_symbol
_atom_type_description
_atom_site_fract_x
_atom_site_fract_y
_atom_site_fract_z
_atom_type_partial_charge
C1    C     C_R   0.556732 0.457784 0.821787 0.559387
C2    C     C_R   0.901034 0.443274 0.678207 0.553451
C3    C     C_R   0.542196 0.098923 0.821784 0.552523
C4    C     C_R   0.556731 0.457784 0.678213 0.559388
C5    C     C_R   0.901034 0.443275 0.821793 0.553451
C6    C     C_R   0.542196 0.098922 0.678216 0.552523
C7    C     C_R   0.457784 0.556731 0.321787 0.559390
C8    C     C_R   0.443275 0.901034 0.178207 0.553451
C9    C     C_R   0.098923 0.542196 0.321784 0.552523
C10   C     C_R   0.457784 0.556731 0.178213 0.559390
C11   C     C_R   0.443275 0.901034 0.321793 0.553451
C12   C     C_R   0.098923 0.542196 0.178216 0.552523
C13   C     C_R   0.996773 0.498607 0.973849 0.048270
C14   C     C_R   0.502175 0.004099 0.526090 0.048225
C15   C     C_R   0.501824 0.498098 0.973880 0.048320
C16   C     C_R   0.996773 0.498607 0.526151 0.048270
C17   C     C_R   0.502175 0.004100 0.973910 0.048225
C18   C     C_R   0.501823 0.498099 0.526120 0.048320
C19   C     C_R   0.498607 0.996773 0.473849 0.048270
C20   C     C_R   0.004099 0.502175 0.026090 0.048225
C21   C     C_R   0.498100 0.501822 0.473879 0.048320
C22   C     C_R   0.498608 0.996774 0.026151 0.048270
C23   C     C_R   0.004099 0.502175 0.473910 0.048225
C24   C     C_R   0.498101 0.501821 0.026121 0.048320
C25   C     C_R   0.991310 0.688964 0.974309 -0.119365
C26   C     C_R   0.697400 0.008278 0.525765 -0.117729
C27   C     C_R   0.311099 0.302532 0.974281 -0.119193
C28   C     C_R   0.991308 0.688964 0.525691 -0.119365
C29   C     C_R   0.697399 0.008277 0.974234 -0.117728
C30   C     C_R   0.311100 0.302531 0.525719 -0.119193
C31   C     C_R   0.688963 0.991308 0.474309 -0.119365
C32   C     C_R   0.008280 0.697401 0.025765 -0.117730
C33   C     C_R   0.302531 0.311100 0.474280 -0.119193
C34   C     C_R   0.688963 0.991307 0.025691 -0.119365
C35   C     C_R   0.008278 0.697400 0.474235 -0.117730
C36   C     C_R   0.302530 0.311101 0.025719 -0.119194
C37   C     C_R   0.964449 0.578149 0.896770 -0.134271
C38   C     C_R   0.613441 0.035331 0.603249 -0.133012
C39   C     C_R   0.422075 0.386368 0.896794 -0.127123
C40   C     C_R   0.964448 0.578149 0.603230 -0.134271
C41   C     C_R   0.613441 0.035331 0.896751 -0.133011
C42   C     C_R   0.422075 0.386367 0.603206 -0.127123
C43   C     C_R   0.578149 0.964448 0.396770 -0.134271
C44   C     C_R   0.035331 0.613441 0.103249 -0.133014
C45   C     C_R   0.386367 0.422074 0.396794 -0.127123
C46   C     C_R   0.578149 0.964447 0.103230 -0.134271
C47   C     C_R   0.035331 0.613441 0.396751 -0.133014
C48   C     C_R   0.386367 0.422074 0.103206 -0.127124
C49   C     C_R   0.036786 0.517560 0.129346 -0.014193
C50   C     C_R   0.480996 0.963321 0.370625 -0.017976
C51   C     C_R   0.482385 0.519181 0.129356 -0.011195
C52   C     C_R   0.036786 0.517560 0.370654 -0.014193
C53   C     C_R   0.480996 0.963321 0.129375 -0.017975
C54   C     C_R   0.482385 0.519182 0.370644 -0.011196
C55   C     C_R   0.517560 0.036786 0.629346 -0.014193
C56   C     C_R   0.963321 0.480996 0.870625 -0.017976
C57   C     C_R   0.519183 0.482385 0.629356 -0.011197
C58   C     C_R   0.517560 0.036786 0.870654 -0.014192
C59   C     C_R   0.963321 0.480996 0.629374 -0.017976
C60   C     C_R   0.519183 0.482385 0.870645 -0.011198
C61   C     C_R   0.986210 0.590328 0.948012 0.016499
C62   C     C_R   0.604058 0.013902 0.551995 0.017309
C63   C     C_R   0.409941 0.395946 0.948025 0.014112
C64   C     C_R   0.986209 0.590328 0.551988 0.016499
C65   C     C_R   0.604058 0.013902 0.948005 0.017310
C66   C     C_R   0.409941 0.395945 0.551975 0.014111
C67   C     C_R   0.590328 0.986209 0.448012 0.016499
C68   C     C_R   0.013902 0.604059 0.051994 0.017309
C69   C     C_R   0.395946 0.409940 0.448024 0.014111
C70   C     C_R   0.590328 0.986209 0.051988 0.016498
C71   C     C_R   0.013902 0.604059 0.448005 0.017309
C72   C     C_R   0.395946 0.409940 0.051975 0.014111
C73   C     C_R   0.997935 0.403407 0.895448 0.053471
C74   C     C_R   0.405625 0.002983 0.604466 0.053791
C75   C     C_R   0.597069 0.594505 0.895458 0.053360
C76   C     C_R   0.997935 0.403408 0.604552 0.053471
C77   C     C_R   0.405625 0.002984 0.895534 0.053791
C78   C     C_R   0.597067 0.594506 0.604543 0.053359
C79   C     C_R   0.403408 0.997936 0.395448 0.053471
C80   C     C_R   0.002982 0.405625 0.104466 0.053791
C81   C     C_R   0.594507 0.597065 0.395457 0.053359
C82   C     C_R   0.403409 0.997937 0.104552 0.053471
C83   C     C_R   0.002982 0.405625 0.395534 0.053791
C84   C     C_R   0.594507 0.597063 0.104544 0.053359
C85   C     C_R   0.000854 0.403678 0.947591 -0.005279
C86   C     C_R   0.403261 0.000512 0.552277 -0.008038
C87   C     C_R   0.596958 0.597066 0.947644 -0.007983
C88   C     C_R   0.000854 0.403678 0.552409 -0.005279
C89   C     C_R   0.403261 0.000513 0.947723 -0.008038
C90   C     C_R   0.596956 0.597067 0.552356 -0.007983
C91   C     C_R   0.403678 0.000855 0.447591 -0.005279
C92   C     C_R   0.000511 0.403260 0.052277 -0.008038
C93   C     C_R   0.597069 0.596954 0.447643 -0.007983
C94   C     C_R   0.403679 0.000856 0.052409 -0.005279
C95   C     C_R   0.000511 0.403260 0.447723 -0.008038
C96   C     C_R   0.597070 0.596952 0.052357 -0.007983
C97   C     C_R   0.997840 0.306239 0.025509 -0.134422
C98   C     C_R   0.309634 0.004319 0.474232 -0.131855
C99   C     C_R   0.694354 0.691131 0.025640 -0.133894
C100  C     C_R   0.997841 0.306239 0.474490 -0.134422
C101  C     C_R   0.309635 0.004321 0.025769 -0.131855
C102  C     C_R   0.694352 0.691134 0.474360 -0.133894
C103  C     C_R   0.306240 0.997842 0.525509 -0.134421
C104  C     C_R   0.004317 0.309633 0.974232 -0.131855
C105  C     C_R   0.691137 0.694349 0.525639 -0.133895
C106  C     C_R   0.306241 0.997844 0.974491 -0.134421
C107  C     C_R   0.004318 0.309634 0.525768 -0.131855
C108  C     C_R   0.691140 0.694347 0.974362 -0.133895
Cr1   Cr    Cr6+3 0.487630 0.241180 0.750000 1.110288
Cr2   Cr    Cr6+3 0.753550 0.512370 0.750000 1.090597
Cr3   Cr    Cr6+3 0.758820 0.246450 0.750000 1.085462
Cr4   Cr    Cr6+3 0.241180 0.487630 0.250000 1.110289
Cr5   Cr    Cr6+3 0.512370 0.753550 0.250000 1.090595
Cr6   Cr    Cr6+3 0.246450 0.758820 0.250000 1.085462
H1    H     H_    0.056030 0.697306 0.122376 0.175459
H2    H     H_    0.640925 0.943029 0.377729 0.170623
H3    H     H_    0.302218 0.359185 0.122255 0.178682
H4    H     H_    0.056030 0.697306 0.377624 0.175459
H5    H     H_    0.640924 0.943029 0.122271 0.170621
H6    H     H_    0.302219 0.359184 0.377745 0.178682
H7    H     H_    0.697306 0.056029 0.622376 0.175459
H8    H     H_    0.943031 0.640925 0.877729 0.170627
H9    H     H_    0.359184 0.302219 0.622255 0.178682
H10   H     H_    0.697305 0.056029 0.877624 0.175458
H11   H     H_    0.943030 0.640925 0.622271 0.170625
H12   H     H_    0.359183 0.302220 0.877745 0.178683
H13   H     H_    0.015365 0.776072 0.045128 0.135902
H14   H     H_    0.760324 0.983715 0.455005 0.132977
H15   H     H_    0.223685 0.239640 0.045049 0.131424
H16   H     H_    0.015364 0.776071 0.454872 0.135902
H17   H     H_    0.760323 0.983713 0.044995 0.132977
H18   H     H_    0.223686 0.239639 0.454951 0.131424
H19   H     H_    0.776071 0.015363 0.545128 0.135902
H20   H     H_    0.983717 0.760325 0.955005 0.132977
H21   H     H_    0.239638 0.223687 0.545049 0.131424
H22   H     H_    0.776070 0.015361 0.954872 0.135901
H23   H     H_    0.983716 0.760324 0.544995 0.132977
H24   H     H_    0.239637 0.223688 0.954951 0.131424
H25   H     H_    0.995552 0.228624 0.043520 0.152617
H26   H     H_    0.234875 0.007365 0.456038 0.155444
H27   H     H_    0.772073 0.766265 0.043695 0.152709
H28   H     H_    0.995554 0.228625 0.456480 0.152618
H29   H     H_    0.234877 0.007367 0.043962 0.155445
H30   H     H_    0.772071 0.766269 0.456305 0.152708
H31   H     H_    0.228625 0.995555 0.543520 0.152617
H32   H     H_    0.007362 0.234874 0.956038 0.155444
H33   H     H_    0.766273 0.772067 0.543694 0.152706
H34   H     H_    0.228627 0.995557 0.956480 0.152618
H35   H     H_    0.007364 0.234874 0.543962 0.155444
H36   H     H_    0.766276 0.772064 0.956306 0.152705
O1    O     O_R   0.460870 0.120930 0.805240 -0.471986
O2    O     O_R   0.660060 0.539130 0.694760 -0.474324
O3    O     O_R   0.879070 0.339940 0.805240 -0.469948
O4    O     O_R   0.460870 0.120930 0.694760 -0.471986
O5    O     O_R   0.660060 0.539130 0.805240 -0.474324
O6    O     O_R   0.879070 0.339940 0.694760 -0.469948
O7    O     O_R   0.120930 0.460870 0.305240 -0.471986
O8    O     O_R   0.539130 0.660060 0.194760 -0.474325
O9    O     O_R   0.339940 0.879070 0.305240 -0.469947
O10   O     O_R   0.120930 0.460870 0.194760 -0.471986
O11   O     O_R   0.539130 0.660060 0.305240 -0.474325
O12   O     O_R   0.339940 0.879070 0.194760 -0.469947
O13   O     O_R   0.498910 0.350470 0.801870 -0.493419
O14   O     O_R   0.851560 0.501090 0.698130 -0.501444
O15   O     O_R   0.649530 0.148440 0.801870 -0.501788
O16   O     O_R   0.498910 0.350470 0.698130 -0.493420
O17   O     O_R   0.851560 0.501090 0.801870 -0.501444
O18   O     O_R   0.649530 0.148440 0.698130 -0.501788
O19   O     O_R   0.350470 0.498910 0.301870 -0.493420
O20   O     O_R   0.501090 0.851560 0.198130 -0.501446
O21   O     O_R   0.148440 0.649530 0.301870 -0.501788
O22   O     O_R   0.350470 0.498910 0.198130 -0.493420
O23   O     O_R   0.501090 0.851560 0.301870 -0.501445
O24   O     O_R   0.148440 0.649530 0.198130 -0.501788
O25   O     O_3   0.666667 0.333333 0.750000 -0.271423
O26   O     O_3   0.333333 0.666667 0.250000 -0.271423
C109  C     C_2   0.967407 0.291755 0.133147 0.595415
O27   O     O_2   0.029747 0.242353 0.131207 -0.540878
O28   O     O_R   0.865148 0.245084 0.164290 -0.660895
H37   H     H_    0.850209 0.168290 0.182410 0.344940
C110  C     C_2   0.323548 0.031736 0.366986 0.594825
O29   O     O_2   0.370291 0.122957 0.340657 -0.473280
O30   O     O_R   0.196078 0.956967 0.368691 -0.727301
H38   H     H_    0.152290 0.989254 0.347273 0.351843
C111  C     C_2   0.708324 0.675206 0.133286 0.593951
O31   O     O_2   0.757891 0.786973 0.131363 -0.544291
O32   O     O_R   0.754780 0.619460 0.164449 -0.659513
H39   H     H_    0.831588 0.681231 0.182589 0.341612
C112  C     C_2   0.967407 0.291755 0.366853 0.595416
O33   O     O_2   0.029747 0.242353 0.368793 -0.540878
O34   O     O_R   0.865149 0.245084 0.335709 -0.660895
H40   H     H_    0.850209 0.168291 0.317590 0.344940
C113  C     C_2   0.323550 0.031737 0.133014 0.594825
O35   O     O_2   0.370292 0.122958 0.159343 -0.473279
O36   O     O_R   0.196079 0.956969 0.131309 -0.727301
H41   H     H_    0.152291 0.989257 0.152727 0.351844
C114  C     C_2   0.708324 0.675209 0.366714 0.593952
O37   O     O_2   0.757889 0.786976 0.368637 -0.544292
O38   O     O_R   0.754782 0.619464 0.335553 -0.659514
H42   H     H_    0.831590 0.681235 0.317412 0.341612
C115  C     C_2   0.291755 0.967408 0.633147 0.595416
O39   O     O_2   0.242354 0.029748 0.631207 -0.540878
O40   O     O_R   0.245083 0.865149 0.664290 -0.660896
H43   H     H_    0.168290 0.850209 0.682409 0.344940
C116  C     C_2   0.031735 0.323548 0.866986 0.594826
O41   O     O_2   0.122956 0.370290 0.840657 -0.473281
O42   O     O_R   0.956966 0.196077 0.868691 -0.727302
H44   H     H_    0.989254 0.152289 0.847273 0.351842
C117  C     C_2   0.675212 0.708323 0.633285 0.593951
O43   O     O_2   0.786979 0.757885 0.631363 -0.544291
O44   O     O_R   0.619468 0.754786 0.664444 -0.659516
H45   H     H_    0.681240 0.831595 0.682584 0.341612
C118  C     C_2   0.291755 0.967409 0.866853 0.595415
O45   O     O_2   0.242354 0.029750 0.868793 -0.540878
O46   O     O_R   0.245084 0.865150 0.835710 -0.660896
H46   H     H_    0.168290 0.850211 0.817590 0.344941
C119  C     C_2   0.031735 0.323548 0.633013 0.594825
O47   O     O_2   0.122956 0.370290 0.659343 -0.473280
O48   O     O_R   0.956966 0.196077 0.631309 -0.727302
H47   H     H_    0.989254 0.152289 0.652727 0.351843
C120  C     C_2   0.675215 0.708323 0.866716 0.593952
O49   O     O_2   0.786982 0.757882 0.868637 -0.544292
O50   O     O_R   0.619472 0.754789 0.835557 -0.659518
H48   H     H_    0.681245 0.831597 0.817417 0.341612

loop_
_geom_bond_atom_site_label_1
_geom_bond_atom_site_label_2
_ccdc_geom_bond_type
C44   C49   A    
O40   H43   S    
C82   C94   A    
C18   C21   A    
C22   C94   A    
C115  O39   D    
C5    C56   S    
O50   H48   S    
C6    C55   S    
O46   H46   S    
C50   C79   A    
C12   C49   S    
C11   O9    A    
C116  O41   D    
C78   C90   A    
C31   C67   A    
C99   C108  A    
C20   C92   A    
C77   C89   A    
C30   H21   S    
Cr3   O25   S    
C32   H13   S    
Cr5   O23   S    
C75   C120  S    
Cr1   O1    S    
C41   C58   A    
Cr2   O2    S    
C24   C96   A    
C81   C114  S    
C111  O32   S    
C118  O45   D    
C26   C31   A    
C10   C51   S    
C10   O22   A    
C98   C103  A    
C105  H33   S    
C96   C99   A    
C41   H10   S    
C106  H34   S    
C102  C105  A    
C112  O34   S    
C84   C96   A    
C114  O38   S    
C82   C113  S    
C73   C116  S    
Cr2   O5    S    
C58   C77   A    
C40   C59   A    
C55   C74   A    
C48   C51   A    
C38   C55   A    
O44   H45   S    
C94   C101  A    
C4    O16   A    
C109  O28   S    
C89   C106  A    
C42   H9    S    
C3    O15   A    
C19   C67   A    
Cr3   O15   S    
Cr5   O8    S    
Cr3   O6    S    
C34   C70   A    
C79   C91   A    
C13   C20   A    
C33   C69   A    
C32   C68   A    
C25   C32   A    
Cr6   O26   S    
C35   C71   A    
O38   H42   S    
C37   C56   A    
C39   H12   S    
Cr2   O25   S    
C115  O40   S    
C84   C111  S    
C112  O33   D    
C9    C52   S    
C102  H30   S    
C31   H14   S    
C48   C72   A    
C86   C103  A    
C14   C19   A    
C42   C57   A    
C1    C60   S    
C8    O20   A    
C92   C97   A    
C116  O42   S    
C24   C72   A    
Cr6   O21   S    
C4    O2    A    
C6    O18   A    
C11   O23   A    
C27   H24   S    
Cr4   O7    S    
C87   C108  A    
C77   C118  S    
O42   H44   S    
C18   C90   A    
C20   C68   A    
C104  H32   S    
C17   C89   A    
C14   C86   A    
Cr1   O13   S    
C110  O30   S    
C2    O14   A    
O48   H47   S    
C88   C107  A    
Cr2   O14   S    
C2    C59   S    
C41   C65   A    
Cr6   O12   S    
C113  O36   S    
C119  O47   D    
C110  O29   D    
C45   C69   A    
C29   C34   A    
C44   H1    S    
C74   C86   A    
C76   C88   A    
O36   H41   S    
C98   H26   S    
C53   C82   A    
C47   H4    S    
C80   C92   A    
C52   C83   A    
O30   H38   S    
C120  O49   D    
C25   H20   S    
C23   C71   A    
C43   H2    S    
C81   C93   A    
Cr2   O17   S    
Cr4   O19   S    
C78   C117  S    
C9    O7    A    
C76   C119  S    
C83   C95   A    
C101  H29   S    
C117  O43   D    
C25   C61   A    
C12   O10   A    
C7    O11   A    
Cr1   O4    S    
Cr3   O3    S    
C35   H16   S    
C47   C71   A    
C30   C66   A    
C85   C104  A    
C27   C63   A    
Cr5   O26   S    
C29   C65   A    
C39   C60   A    
C28   C64   A    
C45   H6    S    
C75   C87   A    
C15   C24   A    
Cr4   O26   S    
C45   C54   A    
C109  O27   D    
C16   C23   A    
C11   C50   S    
C7    O19   A    
C108  H36   S    
C44   C68   A    
C18   C66   A    
C21   C69   A    
C22   C70   A    
C103  H31   S    
C12   O24   A    
C73   C85   A    
C101  C106  A    
C28   C35   A    
C10   O8    A    
C33   H18   S    
C100  C107  A    
C2    O6    A    
C56   C73   A    
Cr4   O10   S    
C30   C33   A    
C95   C100  A    
C93   C102  A    
C3    O1    A    
C57   C78   A    
C83   C112  S    
C19   C91   A    
C42   C66   A    
C28   H23   S    
C90   C105  A    
C1    O5    A    
C8    C53   S    
C34   H17   S    
Cr5   O20   S    
C37   C61   A    
Cr1   O25   S    
C43   C50   A    
C99   H27   S    
C48   H3    S    
C74   C115  S    
C27   C36   A    
C119  O48   S    
C39   C63   A    
C60   C75   A    
C17   C65   A    
C17   C22   A    
C40   C64   A    
C49   C80   A    
C97   C104  A    
C80   C109  S    
C26   C62   A    
C118  O46   S    
O32   H39   S    
C120  O50   S    
C26   H19   S    
C100  H28   S    
C36   H15   S    
C6    O4    A    
C111  O31   D    
Cr4   O22   S    
C21   C93   A    
C5    O3    A    
C40   H11   S    
C59   C76   A    
C46   C53   A    
C117  O44   S    
C23   C95   A    
C46   H5    S    
C5    O17   A    
C91   C98   A    
C114  O37   D    
O34   H40   S    
Cr6   O9    S    
C46   C70   A    
C38   H7    S    
C9    O21   A    
Cr1   O16   S    
Cr5   O11   S    
C37   H8    S    
C107  H35   S    
C3    C58   S    
C79   C110  S    
Cr6   O24   S    
C29   H22   S    
C13   C61   A    
C1    O13   A    
C43   C67   A    
C113  O35   D    
C15   C87   A    
C13   C85   A    
C16   C88   A    
O28   H37   S    
C15   C63   A    
C47   C52   A    
C8    O12   A    
Cr3   O18   S    
C16   C64   A    
C7    C54   S    
C51   C84   A    
C97   H25   S    
C54   C81   A    
C36   C72   A    
C4    C57   S    
C38   C62   A    
C14   C62   A    
