data_mof_unit_51961.cif
_audit_creation_date              2012-12-10T19:04:13-0500
_audit_creation_method            fapswitch 2.2
_symmetry_space_group_name_H-M    P1
_symmetry_Int_Tables_number       1
_space_group_crystal_system       triclinic
_cell_length_a                    10.669683
_cell_length_b                    10.800794
_cell_length_c                    9.560372
_cell_angle_alpha                 89.672751
_cell_angle_beta                  89.498632
_cell_angle_gamma                 90.540305
_cell_volume                      1101.63762843

loop_
_atom_site_label
_atom_site_type_symbol
_atom_type_description
_atom_site_fract_x
_atom_site_fract_y
_atom_site_fract_z
_atom_type_partial_charge
C1    C     C_R   0.497520 0.262307 0.500168 0.795825
C2    C     C_3   0.961150 0.497138 0.367158 -0.274720
C3    C     C_3   0.039370 0.399414 0.446020 -0.187001
C4    C     C_3   0.123362 0.503836 0.501259 -0.147524
C5    C     C_R   0.448226 0.062545 0.617844 0.067421
C6    C     C_R   0.483367 0.129151 0.498233 -0.093107
C7    C     C_R   0.493420 0.064850 0.371145 -0.202938
C8    C     C_R   0.490274 0.935945 0.371121 -0.118819
C9    C     C_R   0.477924 0.870194 0.497724 -0.102439
C10   C     C_R   0.442391 0.935567 0.617157 0.150336
C11   C     C_3   0.475512 0.926295 0.768354 0.250731
C12   C     C_R   0.259615 0.499922 0.500537 0.873288
C13   C     C_3   0.487203 0.067674 0.767313 -0.534643
C14   C     C_R   0.574420 0.581721 0.072090 0.280953
C15   C     C_R   0.418133 0.428214 0.075681 -0.033628
C16   C     C_R   0.417708 0.428689 0.926897 -0.053609
C17   C     C_R   0.576529 0.578440 0.924559 0.277301
C18   C     C_3   0.715244 0.579422 0.916077 -0.473145
C19   C     C_3   0.714776 0.589071 0.074267 -0.259893
C20   C     C_R   0.494966 0.737495 0.499781 0.893162
C21   C     C_R   0.740721 0.505482 0.499518 0.861835
C22   C     C_3   0.041166 0.517879 0.632908 -0.232799
C23   C     C_3   0.954922 0.413164 0.577410 -0.198470
C24   C     C_3   0.877948 0.510832 0.499011 -0.156626
C25   C     C_3   0.963344 0.615082 0.553683 0.404517
C26   C     C_3   0.046966 0.600823 0.423517 0.402204
Cu1   Cu    Cu3+1 0.499990 0.499980 0.640670 1.001224
Cu2   Cu    Cu3+1 0.500010 0.500020 0.359330 0.992443
H1    H     H_    0.914993 0.335725 0.640925 0.161331
H2    H     H_    0.564847 0.877274 0.787593 0.098787
H3    H     H_    0.417538 0.116135 0.833988 0.233097
H4    H     H_    0.585480 0.100979 0.778917 0.175841
H5    H     H_    0.353758 0.367987 0.132404 0.144507
H6    H     H_    0.352763 0.369085 0.872175 0.138741
H7    H     H_    0.753519 0.489975 0.878677 0.196122
H8    H     H_    0.750199 0.660822 0.857629 0.266257
H9    H     H_    0.756163 0.506032 0.123871 0.179364
H10   H     H_    0.076143 0.525765 0.741577 0.192318
H11   H     H_    0.930279 0.488823 0.257409 0.166768
H12   H     H_    0.073385 0.310707 0.402352 0.165842
H13   H     H_    0.510827 0.113010 0.273095 0.172926
H14   H     H_    0.504724 0.888423 0.273560 0.198970
N1    N     N_R   0.500800 0.500930 0.147930 -0.202033
N2    N     N_R   0.500800 0.500890 0.852020 -0.179360
O1    O     O_R   0.500000 0.319640 0.618810 -0.590577
O2    O     O_R   0.500010 0.319680 0.381230 -0.601242
O3    O     O_R   0.316850 0.499950 0.618770 -0.572638
O4    O     O_R   0.316860 0.499990 0.381190 -0.549045
O5    O     O_R   0.499990 0.680320 0.618770 -0.542725
O6    O     O_R   0.500000 0.680360 0.381190 -0.572349
O7    O     O_R   0.683140 0.500010 0.618810 -0.579788
O8    O     O_R   0.683150 0.500050 0.381230 -0.610392
C27   C     C_3   0.769067 0.711940 0.131070 -0.279311
C28   C     C_3   0.711057 0.830842 0.070106 -0.354221
C29   C     C_3   0.757893 0.946466 0.145102 -0.771140
H15   H     H_    0.746101 0.936550 0.260161 0.271817
H16   H     H_    0.858233 0.963449 0.119597 0.279618
H17   H     H_    0.703770 0.027934 0.109466 0.225079
H18   H     H_    0.735773 0.841791 0.957861 0.243880
H19   H     H_    0.607669 0.826171 0.078978 0.236896
H20   H     H_    0.756857 0.711385 0.246643 0.229587
H21   H     H_    0.871073 0.712907 0.107505 0.268903
S1    S     S_3+6 0.918878 0.758900 0.631664 -0.000358
O9    O     O_2   0.780717 0.778356 0.613721 -0.384781
O10   O     O_2   0.949815 0.755264 0.784659 -0.311198
O11   O     O_3   0.997748 0.878118 0.558010 -0.431598
H22   H     H_    0.967296 0.952495 0.607475 0.370474
S2    S     S_3+6 0.116460 0.720255 0.317398 0.049265
O12   O     O_2   0.219659 0.781886 0.397736 -0.266277
O13   O     O_2   0.169484 0.664510 0.186213 -0.284275
O14   O     O_3   0.009305 0.826395 0.275110 -0.526633
H23   H     H_    0.057424 0.892702 0.226088 0.387146
S3    S     S_3+6 0.344747 0.870853 0.871162 0.029835
O15   O     O_2   0.372732 0.886970 0.023718 -0.304990
O16   O     O_2   0.229140 0.942566 0.835173 -0.245908
O17   O     O_3   0.319020 0.720172 0.838169 -0.499521
H24   H     H_    0.242576 0.697989 0.892623 0.395108

loop_
_geom_bond_atom_site_label_1
_geom_bond_atom_site_label_2
_ccdc_geom_bond_type
C29   H15   S    
S1    O10   D    
C11   C13   S    
S3    O15   D    
C13   H4    S    
C3    C23   S    
C12   O4    A    
C1    O1    A    
C7    C8    A    
C28   H19   S    
C27   C28   S    
Cu2   O2    S    
C23   H1    S    
C8    H14   S    
C5    C6    A    
C1    O2    A    
C15   C16   A    
C22   H10   S    
C18   C19   S    
C25   S1    S    
C20   O6    A    
C19   H9    S    
C16   H6    S    
C27   H20   S    
Cu1   N2    S    
C11   H2    S    
C8    C9    A    
C22   C25   S    
C23   C24   S    
C4    C12   S    
C18   H7    S    
C16   N2    A    
C5    C13   S    
C19   C27   S    
O11   H22   S    
S1    O11   S    
S3    O16   D    
C14   C17   A    
Cu2   O6    S    
C12   O3    A    
C2    H11   S    
Cu1   O7    S    
C28   H18   S    
C1    C6    S    
O17   H24   S    
C11   S3    S    
S2    O12   D    
C25   C26   S    
C20   O5    A    
C4    C22   S    
C27   H21   S    
C9    C20   S    
C17   C18   S    
C2    C26   S    
C24   C25   S    
C3    H12   S    
C29   H16   S    
C2    C24   S    
S3    O17   S    
C29   H17   S    
C3    C4    S    
C21   O7    A    
C9    C10   A    
Cu1   O3    S    
C28   C29   S    
Cu2   O4    S    
C14   C19   S    
C13   H3    S    
C4    C26   S    
C6    C7    A    
Cu2   N1    S    
C26   S2    S    
C2    C3    S    
C17   N2    A    
C15   N1    A    
O14   H23   S    
Cu2   O8    S    
Cu1   O1    S    
S2    O14   S    
C7    H13   S    
C10   C11   S    
S1    O9    D    
C5    C10   A    
S2    O13   D    
C21   C24   S    
Cu1   Cu2   S    
C22   C23   S    
C18   H8    S    
C15   H5    S    
C21   O8    A    
Cu1   O5    S    
C14   N1    A    
