data_mof_unit_21216.cif
_audit_creation_date              2013-03-05T16:10:39-0500
_audit_creation_method            fapswitch 2.2
_symmetry_space_group_name_H-M    P1
_symmetry_Int_Tables_number       1
_space_group_crystal_system       triclinic
_cell_length_a                    9.855787
_cell_length_b                    10.713221
_cell_length_c                    15.306861
_cell_angle_alpha                 90.035725
_cell_angle_beta                  68.696792
_cell_angle_gamma                 90.034781
_cell_volume                      1505.77442284

loop_
_atom_site_label
_atom_site_type_symbol
_atom_site_description
_atom_site_fract_x
_atom_site_fract_y
_atom_site_fract_z
_atom_type_partial_charge
O1    O     O_R   0.385370 0.683250 0.500010 -0.633197
O2    O     O_R   0.614630 0.316750 0.499990 -0.629952
O3    O     O_R   0.614700 0.683220 0.500000 -0.628826
O4    O     O_R   0.385300 0.316780 0.500000 -0.624994
C1    C     C_R   0.500039 0.740089 0.500049 0.867364
C2    C     C_R   0.499931 0.259925 0.500004 0.888616
O5    O     O_R   0.319830 0.500020 0.632250 -0.610158
O6    O     O_R   0.680170 0.499980 0.367750 -0.598646
O7    O     O_R   0.549160 0.499990 0.632240 -0.609329
O8    O     O_R   0.450840 0.500010 0.367760 -0.581094
C3    C     C_R   0.409499 0.498446 0.676362 0.880163
C4    C     C_R   0.590288 0.496968 0.323502 0.874442
Zn1   Zn    Zn3+2 0.346870 0.500020 0.500000 0.985966
Zn2   Zn    Zn3+2 0.653130 0.499980 0.500000 0.981581
C5    C     C_R   0.352704 0.482907 0.777992 -0.084459
C6    C     C_R   0.641746 0.466728 0.223486 -0.082700
C7    C     C_R   0.154970 0.488227 0.928164 -0.178898
C8    C     C_R   0.806597 0.356039 0.088726 -0.195361
C9    C     C_R   0.205414 0.503171 0.831334 -0.172836
C10   C     C_R   0.775511 0.407266 0.177939 -0.192916
C11   C     C_R   0.447126 0.441973 0.821382 -0.157211
C12   C     C_R   0.541029 0.474501 0.179191 -0.152860
C13   C     C_R   0.396370 0.417174 0.917555 0.122741
C14   C     C_R   0.561815 0.408924 0.096545 0.120936
C15   C     C_R   0.250412 0.448810 0.971810 0.105294
C16   C     C_R   0.700725 0.357791 0.047170 0.106272
C17   C     C_R   0.491529 0.375805 0.962294 -0.094109
C18   C     C_R   0.450266 0.400450 0.059217 -0.091154
C19   C     C_R   0.299862 0.418746 0.113924 0.322945
C20   C     C_R   0.627954 0.315821 0.914468 0.305051
C21   C     C_R   0.202280 0.443041 0.069017 -0.299767
C22   C     C_R   0.730486 0.307415 0.958109 -0.287583
H1    H     H_    0.853233 0.396924 0.212417 0.184015
H2    H     H_    0.130527 0.534009 0.798639 0.164852
H3    H     H_    0.042475 0.510431 0.969007 0.149954
H4    H     H_    0.911290 0.312014 0.053496 0.154280
C23   C     C_R   0.607485 0.936198 0.521802 -0.170399
C24   C     C_R   0.392351 0.063863 0.478447 -0.160451
H5    H     H_    0.690527 0.887542 0.539356 0.154265
H6    H     H_    0.309352 0.112519 0.460841 0.163697
C25   C     C_R   0.607408 0.064096 0.521826 -0.150223
C26   C     C_R   0.392362 0.935973 0.478498 -0.183116
C27   C     C_R   0.499877 0.127487 0.500098 -0.027384
C28   C     C_R   0.499989 0.872562 0.500114 -0.024452
C29   C     C_R   0.942818 0.396002 0.473939 0.024175
C30   C     C_R   0.056711 0.603623 0.526883 -0.076284
C31   C     C_R   0.086410 0.396003 0.474066 0.054465
C32   C     C_R   0.913039 0.603564 0.526916 -0.054847
H7    H     H_    0.152357 0.312881 0.452747 0.144280
H8    H     H_    0.846788 0.686462 0.548744 0.129368
N1    N     N_R   0.142780 0.500030 0.500020 -0.089833
N2    N     N_R   0.857220 0.499970 0.499980 -0.086061
H9    H     H_    0.088975 0.460676 0.110316 0.178252
H10   H     H_    0.834019 0.261762 0.922212 0.192755
H11   H     H_    0.443500 0.529280 0.211754 0.175237
H12   H     H_    0.561726 0.433832 0.779844 0.181122
N3    N     N_R   0.241697 0.399874 0.213693 0.188445
O9    O     O_R   0.289125 0.308503 0.250833 -0.415452
O10   O     O_R   0.128442 0.462927 0.265905 -0.440354
N4    N     N_R   0.656949 0.249633 0.827747 0.194826
O11   O     O_R   0.554177 0.185446 0.814142 -0.387375
O12   O     O_R   0.789573 0.240123 0.767456 -0.415395
H13   H     H_    0.690395 0.112961 0.539419 0.172131
H14   H     H_    0.309299 0.887126 0.460980 0.159056
H15   H     H_    0.900981 0.312918 0.452400 0.127388
H16   H     H_    0.098469 0.686602 0.548618 0.133745

loop_
_geom_bond_atom_site_label_1
_geom_bond_atom_site_label_2
_geom_bond_distance
_ccdc_geom_bond_type
C15   C21   1.389251 A    
C11   H12   1.079739 S    
O5    C3    1.292619 A    
O7    Zn2   1.907931 S    
C16   C22   1.394436 A    
C12   H11   1.081204 S    
C13   C17   1.418633 A    
C31   H7    1.080812 S    
O7    C3    1.294438 A    
C8    C16   1.405731 A    
C6    C10   1.400912 A    
O6    C4    1.296301 A    
C7    C15   1.402474 A    
C23   C28   1.397089 A    
C32   H8    1.080983 S    
C3    C5    1.458947 S    
C24   C27   1.396985 A    
C23   H5    1.083627 S    
Zn1   N1    2.011357 S    
C21   H9    1.081443 S    
C17   C20   1.428989 A    
C24   H6    1.083679 S    
C31   N1    1.366591 A    
C25   C27   1.397234 A    
N3    O9    1.301620 A    
O2    C2    1.283554 A    
O3    Zn2   1.999521 S    
C26   C28   1.397255 A    
O1    C1    1.283632 A    
C10   H1    1.082356 S    
O8    C4    1.293214 A    
C12   C14   1.395217 A    
C22   H10   1.084070 S    
C18   C19   1.426616 A    
C7    C9    1.390830 A    
C1    C28   1.419214 S    
C14   C16   1.412165 A    
C30   H16   1.081205 S    
C8    C10   1.398243 A    
C2    C27   1.418841 S    
C11   C13   1.397564 A    
C23   C25   1.370202 A    
O2    Zn2   1.999105 S    
C30   C32   1.415818 A    
C5    C11   1.396213 A    
N3    O10   1.301154 A    
O4    C2    1.283858 A    
O1    Zn1   1.999105 S    
C25   H13   1.083917 S    
C20   C22   1.402216 A    
C24   C26   1.370117 A    
C26   H14   1.083852 S    
C32   N2    1.366702 A    
C13   C15   1.416380 A    
N4    O12   1.301602 A    
C14   C18   1.414087 A    
C19   C21   1.395016 A    
C19   N3    1.437293 S    
C29   C31   1.415925 A    
C17   C18   1.413286 A    
O6    Zn2   1.943439 S    
O5    Zn1   1.943438 S    
C7    H3    1.083145 S    
C29   N2    1.366553 A    
C5    C9    1.400019 A    
C29   H15   1.081185 S    
C8    H4    1.083469 S    
C30   N1    1.366557 A    
C9    H2    1.083161 S    
Zn2   N2    2.011356 S    
C4    C6    1.463340 S    
O4    Zn1   1.999521 S    
C6    C12   1.393264 A    
N4    O11   1.301710 A    
O3    C1    1.283925 A    
O8    Zn1   1.907933 S    
C20   N4    1.438734 S    
