data_mof_unit_36095.cif
_audit_creation_date              2012-12-11T14:54:39-0500
_audit_creation_method            fapswitch 2.2
_symmetry_space_group_name_H-M    P1
_symmetry_Int_Tables_number       1
_space_group_crystal_system       triclinic
_cell_length_a                    18.965237
_cell_length_b                    10.88651
_cell_length_c                    18.818574
_cell_angle_alpha                 89.337898
_cell_angle_beta                  90.149251
_cell_angle_gamma                 89.923673
_cell_volume                      3885.10523295

loop_
_atom_site_label
_atom_site_type_symbol
_atom_type_description
_atom_site_fract_x
_atom_site_fract_y
_atom_site_fract_z
_atom_type_partial_charge
C1    C     C_R   0.711347 0.330097 0.638493 0.552546
C2    C     C_R   0.226845 0.801408 0.440787 0.070635
C3    C     C_R   0.969778 0.546067 0.473691 0.094146
C4    C     C_R   0.205798 0.333945 0.544362 0.072859
C5    C     C_R   0.726832 0.301416 0.440780 0.070708
C6    C     C_R   0.715736 0.809707 0.472415 -0.114097
C7    C     C_R   0.216429 0.770259 0.512308 -0.114850
C8    C     C_R   0.215740 0.309700 0.472419 -0.114034
C9    C     C_R   0.716415 0.270260 0.512301 -0.114871
C10   C     C_R   0.775651 0.854047 0.437083 0.005827
C11   C     C_R   0.226711 0.858832 0.564881 0.018463
C12   C     C_R   0.275652 0.354045 0.437085 0.005668
C13   C     C_R   0.287599 0.331656 0.361828 0.561902
C14   C     C_R   0.726708 0.358825 0.564878 0.017752
C15   C     C_R   0.827287 0.916920 0.474917 -0.131423
C16   C     C_R   0.249643 0.976711 0.546712 -0.089825
C17   C     C_R   0.327286 0.416923 0.474917 -0.131476
C18   C     C_R   0.749651 0.476699 0.546712 -0.089882
C19   C     C_R   0.818377 0.941009 0.545697 -0.151307
C20   C     C_R   0.262993 0.005907 0.476491 -0.125706
C21   C     C_R   0.318377 0.441011 0.545697 -0.151295
C22   C     C_R   0.763000 0.505899 0.476492 -0.125496
C23   C     C_R   0.756166 0.906383 0.580592 0.023677
C24   C     C_R   0.211348 0.830101 0.638493 0.551691
C25   C     C_R   0.249591 0.920581 0.423286 0.055877
C26   C     C_R   0.256169 0.406378 0.580595 0.023734
C27   C     C_R   0.749591 0.420582 0.423285 0.056506
C28   C     C_R   0.536394 0.060371 0.973426 -0.123507
C29   C     C_R   0.527831 0.065051 0.045937 -0.128593
C30   C     C_R   0.033042 0.558505 0.972660 -0.128343
C31   C     C_R   0.025186 0.563069 0.045180 -0.133726
C32   C     C_R   0.498639 0.169647 0.076493 0.031041
C33   C     C_R   0.518046 0.161658 0.930288 0.034394
C34   C     C_R   0.998312 0.669031 0.076320 0.031371
C35   C     C_R   0.787598 0.831658 0.361827 0.561647
C36   C     C_R   0.017026 0.661516 0.929982 0.033937
C37   C     C_R   0.484013 0.274159 0.034280 -0.138662
C38   C     C_R   0.494163 0.270323 0.961140 -0.146061
C39   C     C_R   0.985407 0.774730 0.034557 -0.130363
C40   C     C_R   0.995378 0.771200 0.961358 -0.134145
C41   C     C_R   0.530314 0.156486 0.647595 0.562154
C42   C     C_R   0.466140 0.152212 0.354992 0.559621
C43   C     C_R   0.030314 0.656485 0.647594 0.561808
C44   C     C_R   0.966142 0.652212 0.354991 0.560121
C45   C     C_R   0.788485 0.025489 0.972670 -0.128441
C46   C     C_3   0.529750 0.377781 0.446275 -0.255508
C47   C     C_R   0.203912 0.011279 0.028783 -0.127357
C48   C     C_R   0.298907 0.504934 0.969395 -0.132814
C49   C     C_R   0.683546 0.435228 0.042925 -0.135198
C50   C     C_R   0.789458 0.013039 0.045360 -0.135131
C51   C     C_R   0.203374 0.001606 0.956147 -0.131556
C52   C     C_R   0.298967 0.498254 0.042055 -0.137190
C53   C     C_R   0.678253 0.424869 0.970408 -0.128012
C54   C     C_R   0.749508 0.920821 0.077713 0.029788
C55   C     C_R   0.248628 0.918655 0.923056 0.031928
C56   C     C_R   0.251531 0.420489 0.076941 0.035338
C57   C     C_3   0.532451 0.388899 0.526891 -0.246552
C58   C     C_R   0.737953 0.395935 0.929620 0.032036
C59   C     C_R   0.702987 0.849049 0.037261 -0.140304
C60   C     C_R   0.299376 0.854041 0.963189 -0.130811
C61   C     C_R   0.198963 0.359146 0.038445 -0.140573
C62   C     C_R   0.802463 0.371475 0.962892 -0.147685
C63   C     C_R   0.701088 0.863137 0.963978 -0.148030
C64   C     C_R   0.301600 0.867152 0.036588 -0.132358
C65   C     C_R   0.197156 0.369724 0.964854 -0.144824
C66   C     C_R   0.808093 0.383944 0.036040 -0.137215
C67   C     C_R   0.745673 0.948663 0.931364 0.033983
C68   C     C_3   0.029753 0.877782 0.446277 -0.255269
C69   C     C_R   0.252574 0.943775 0.069788 0.036904
C70   C     C_R   0.248030 0.441226 0.930023 0.037879
C71   C     C_R   0.748989 0.420315 0.075793 0.033196
C72   C     C_R   0.742078 0.966255 0.648345 0.546708
C73   C     C_R   0.257638 0.964776 0.351037 0.562387
C74   C     C_R   0.242079 0.466252 0.648347 0.545766
C75   C     C_R   0.757639 0.464779 0.351038 0.560801
C76   C     C_R   0.727447 0.372993 0.854714 0.558267
C77   C     C_R   0.269761 0.380009 0.148047 0.567598
C78   C     C_R   0.230144 0.878962 0.852152 0.559572
C79   C     C_3   0.032452 0.888897 0.526894 -0.246656
C80   C     C_R   0.769576 0.879872 0.148155 0.567402
C81   C     C_R   0.535449 0.156124 0.855395 0.547973
C82   C     C_R   0.468520 0.158070 0.147009 0.554750
C83   C     C_R   0.035101 0.656149 0.855227 0.549922
C84   C     C_R   0.968469 0.657997 0.146974 0.555188
C85   C     C_R   0.740089 0.975858 0.856303 0.544770
C86   C     C_R   0.259517 0.974858 0.144182 0.556750
C87   C     C_R   0.240727 0.473461 0.855598 0.544907
C88   C     C_R   0.758595 0.469801 0.146191 0.555621
C89   C     C_R   0.490801 0.146492 0.428201 0.010449
C90   C     C_R   0.705792 0.833958 0.544357 0.072788
C91   C     C_R   0.501201 0.166935 0.576730 -0.008112
C92   C     C_R   0.990806 0.646490 0.428198 0.010256
C93   C     C_R   0.001204 0.666927 0.576728 -0.007844
C94   C     C_R   0.527555 0.242751 0.458550 -0.010679
C95   C     C_R   0.533728 0.251375 0.530811 -0.023176
C96   C     C_R   0.027556 0.742750 0.458549 -0.010793
C97   C     C_R   0.033728 0.751372 0.530811 -0.023175
C98   C     C_R   0.468533 0.062882 0.547607 0.084589
C99   C     C_R   0.469767 0.046077 0.473696 0.094194
C100  C     C_R   0.968543 0.562868 0.547602 0.084706
Cr1   Cr    Cr6+3 0.771950 0.169480 0.750100 1.051811
Cr2   Cr    Cr6+3 0.383410 0.010620 0.249390 1.063973
Cr3   Cr    Cr6+3 0.116590 0.510620 0.750610 1.068464
Cr4   Cr    Cr6+3 0.883410 0.510620 0.249390 1.061075
Cr5   Cr    Cr6+3 0.228050 0.169480 0.249900 1.035490
Cr6   Cr    Cr6+3 0.271950 0.669480 0.750100 1.051637
Cr7   Cr    Cr6+3 0.728050 0.669480 0.249900 1.035254
Cr8   Cr    Cr6+3 0.614930 0.323340 0.749170 1.032011
Cr9   Cr    Cr6+3 0.385070 0.323340 0.250830 1.027895
Cr10  Cr    Cr6+3 0.114930 0.823340 0.749170 1.034992
Cr11  Cr    Cr6+3 0.885070 0.823340 0.250830 1.031080
Cr12  Cr    Cr6+3 0.616590 0.010620 0.750610 1.070060
H1    H     H_    0.821088 0.096556 0.949052 0.138611
H2    H     H_    0.334979 0.789714 0.938416 0.125311
H3    H     H_    0.161553 0.299042 0.064744 0.119335
H4    H     H_    0.848277 0.344818 0.932431 0.124135
H5    H     H_    0.665896 0.806564 0.932919 0.124650
H6    H     H_    0.341050 0.817488 0.067205 0.123782
H7    H     H_    0.156337 0.322719 0.935417 0.115317
H8    H     H_    0.859375 0.371996 0.060658 0.135902
H9    H     H_    0.981577 0.915278 0.421146 0.153559
H10   H     H_    0.082207 0.930697 0.546150 0.179940
H11   H     H_    0.481574 0.415276 0.421145 0.153512
H12   H     H_    0.166762 0.074243 0.052448 0.130691
H13   H     H_    0.582205 0.430702 0.546146 0.179877
H14   H     H_    0.579585 0.406895 0.420121 0.167878
H15   H     H_    0.483619 0.428260 0.549920 0.145651
H16   H     H_    0.079589 0.906896 0.420124 0.168112
H17   H     H_    0.983620 0.928256 0.549921 0.145656
H18   H     H_    0.676744 0.756154 0.444290 0.166750
H19   H     H_    0.198220 0.679009 0.526663 0.127920
H20   H     H_    0.176749 0.256143 0.444295 0.166811
H21   H     H_    0.698197 0.179015 0.526652 0.127921
H22   H     H_    0.873589 0.952843 0.449186 0.149296
H23   H     H_    0.338081 0.563328 0.944454 0.129353
H24   H     H_    0.258184 0.045394 0.587059 0.164253
H25   H     H_    0.373587 0.452850 0.449185 0.149288
H26   H     H_    0.758201 0.545376 0.587061 0.164725
H27   H     H_    0.858824 0.994720 0.571563 0.159966
H28   H     H_    0.283430 0.095849 0.463229 0.104231
H29   H     H_    0.358822 0.494727 0.571562 0.159979
H30   H     H_    0.783441 0.595840 0.463232 0.104294
H31   H     H_    0.558088 0.977085 0.951319 0.138308
H32   H     H_    0.540224 0.984023 0.077597 0.133004
H33   H     H_    0.052623 0.473938 0.950252 0.135132
H34   H     H_    0.637198 0.461765 0.072658 0.131466
H35   H     H_    0.036172 0.480907 0.076382 0.131026
H36   H     H_    0.461026 0.355892 0.057009 0.132596
H37   H     H_    0.482186 0.350611 0.928752 0.120879
H38   H     H_    0.964099 0.857461 0.057719 0.135481
H39   H     H_    0.985095 0.852637 0.929349 0.126305
H40   H     H_    0.824905 0.070326 0.075737 0.132993
H41   H     H_    0.164224 0.053666 0.926419 0.132020
H42   H     H_    0.339632 0.547657 0.070443 0.128349
H43   H     H_    0.626759 0.438645 0.946548 0.139747
H44   H     H_    0.671507 0.777044 0.061509 0.136460
I1    I     I_    0.415488 0.933227 0.616430 -0.270758
I2    I     I_    0.446236 0.862429 0.437803 -0.252170
I3    I     I_    0.915506 0.433192 0.616419 -0.270232
I4    I     I_    0.946253 0.362418 0.437793 -0.251706
I5    I     I_    0.614496 0.754506 0.591421 -0.306417
I6    I     I_    0.205150 0.669264 0.362072 -0.334865
I7    I     I_    0.114518 0.254462 0.591439 -0.308480
I8    I     I_    0.705120 0.169306 0.362047 -0.338029
O1    O     O_R   0.787510 0.042610 0.670410 -0.525246
O2    O     O_R   0.454250 0.051070 0.169440 -0.515954
O3    O     O_R   0.045750 0.551070 0.830560 -0.518953
O4    O     O_R   0.954250 0.551070 0.169440 -0.520191
O5    O     O_R   0.681210 0.959150 0.825320 -0.504432
O6    O     O_R   0.318790 0.959150 0.174680 -0.498545
O7    O     O_R   0.181210 0.459150 0.825320 -0.504613
O8    O     O_R   0.818790 0.459150 0.174680 -0.502939
O9    O     O_3   0.667820 0.167810 0.749960 -0.288674
O10   O     O_3   0.332180 0.167810 0.250040 -0.283539
O11   O     O_3   0.167820 0.667810 0.749960 -0.285503
O12   O     O_R   0.212490 0.042610 0.329590 -0.528535
O13   O     O_3   0.832180 0.667810 0.250040 -0.282483
O14   O     O_R   0.765670 0.292090 0.675090 -0.457365
O15   O     O_R   0.234330 0.292090 0.324910 -0.484840
O16   O     O_R   0.265670 0.792090 0.675090 -0.458978
O17   O     O_R   0.734330 0.792090 0.324910 -0.485021
O18   O     O_R   0.670220 0.409020 0.668560 -0.503164
O19   O     O_R   0.329780 0.409020 0.331440 -0.489616
O20   O     O_R   0.170220 0.909020 0.668560 -0.505822
O21   O     O_R   0.829780 0.909020 0.331440 -0.489937
O22   O     O_R   0.556580 0.251590 0.674980 -0.520528
O23   O     O_R   0.287510 0.542610 0.670410 -0.525579
O24   O     O_R   0.443420 0.251590 0.325020 -0.527311
O25   O     O_R   0.056580 0.751590 0.674980 -0.521092
O26   O     O_R   0.943420 0.751590 0.325020 -0.526999
O27   O     O_R   0.545890 0.049670 0.670030 -0.457691
O28   O     O_R   0.454110 0.049670 0.329970 -0.477680
O29   O     O_R   0.045890 0.549670 0.670030 -0.458053
O30   O     O_R   0.954110 0.549670 0.329970 -0.477249
O31   O     O_R   0.681340 0.957860 0.676500 -0.467257
O32   O     O_R   0.318660 0.957860 0.323500 -0.469796
O33   O     O_R   0.181340 0.457860 0.676500 -0.468016
O34   O     O_R   0.712490 0.542610 0.329590 -0.529852
O35   O     O_R   0.818660 0.457860 0.323500 -0.470100
O36   O     O_R   0.787380 0.044010 0.830940 -0.526287
O37   O     O_R   0.212620 0.044010 0.169060 -0.524833
O38   O     O_R   0.287380 0.544010 0.830940 -0.527506
O39   O     O_R   0.712620 0.544010 0.169060 -0.523574
O40   O     O_R   0.765540 0.293390 0.823910 -0.498223
O41   O     O_R   0.234460 0.293390 0.176090 -0.500409
O42   O     O_R   0.265540 0.793390 0.823910 -0.498541
O43   O     O_R   0.734460 0.793390 0.176090 -0.499180
O44   O     O_R   0.670090 0.410410 0.829090 -0.518575
O45   O     O_R   0.556450 0.252890 0.823790 -0.509463
O46   O     O_R   0.329910 0.410410 0.170910 -0.516869
O47   O     O_R   0.170090 0.910410 0.829090 -0.516023
O48   O     O_R   0.829910 0.910410 0.170910 -0.514410
O49   O     O_R   0.443550 0.252890 0.176210 -0.505413
O50   O     O_R   0.056450 0.752890 0.823790 -0.502882
O51   O     O_R   0.943550 0.752890 0.176210 -0.503078
O52   O     O_R   0.545750 0.051070 0.830560 -0.516317

loop_
_geom_bond_atom_site_label_1
_geom_bond_atom_site_label_2
_ccdc_geom_bond_type
C58   C62   A    
C81   O45   A    
C21   C26   A    
Cr2   O6    S    
C88   O8    A    
C24   O20   A    
C72   O1    A    
C14   C18   A    
C48   H23   S    
C60   H2    S    
C2    C7    A    
C6    H18   S    
C59   H44   S    
C2    I6    S    
C72   O31   A    
Cr8   O45   S    
Cr1   O36   S    
C58   C76   S    
C15   H22   S    
Cr10  O11   S    
C7    C11   A    
C39   H38   S    
C50   C54   A    
C89   C99   A    
Cr8   O22   S    
C28   C29   A    
Cr10  O50   S    
C25   C73   S    
Cr11  O51   S    
Cr6   O23   S    
C29   C32   A    
Cr9   O49   S    
C10   C15   A    
C57   H13   S    
C30   C31   A    
C63   H5    S    
C81   O52   A    
Cr4   O4    S    
C20   C25   A    
C36   C83   S    
C52   H42   S    
C65   C70   A    
C79   H17   S    
C11   C24   S    
C92   C96   A    
C64   H6    S    
C76   O44   A    
C86   O6    A    
Cr3   O33   S    
C4    C8    A    
C18   H26   S    
C45   H1    S    
C91   C98   A    
Cr11  O48   S    
C47   C69   A    
Cr1   O14   S    
C44   O26   A    
C5    C27   A    
Cr1   O9    S    
C3    C100  A    
Cr4   O13   S    
C13   O19   A    
Cr5   O12   S    
C30   C36   A    
C12   C17   A    
C8    H20   S    
Cr2   O28   S    
Cr6   O11   S    
C74   O33   A    
C10   C35   S    
C68   H16   S    
C87   O38   A    
Cr7   O43   S    
C44   C92   S    
C84   O51   A    
C16   C20   A    
C80   O48   A    
C31   H35   S    
Cr9   O19   S    
C68   C79   S    
Cr12  O9    S    
Cr10  O20   S    
C37   H36   S    
C50   H40   S    
C66   H8    S    
C55   C60   A    
C96   C97   A    
C1    O18   A    
Cr3   O7    S    
Cr6   O42   S    
C34   C84   S    
Cr5   O15   S    
C27   C75   S    
C70   C87   S    
C43   C93   S    
Cr6   O16   S    
C79   C97   S    
C57   H15   S    
C54   C80   S    
C54   C59   A    
Cr9   O24   S    
C79   H10   S    
C63   C67   A    
C4    C26   A    
C67   C85   S    
Cr11  O21   S    
C62   C66   A    
C90   I5    S    
C86   O37   A    
C34   C39   A    
C5    I8    S    
C36   C40   A    
C22   C27   A    
C39   C40   A    
C55   C78   S    
C41   O27   A    
C61   H3    S    
C47   C51   A    
C64   C69   A    
C6    C90   A    
C29   H32   S    
C83   O3    A    
C85   O5    A    
C56   C77   S    
C40   H39   S    
C3    C92   A    
C15   C19   A    
C9    C14   A    
C78   O42   A    
Cr12  O31   S    
C5    C9    A    
C37   C38   A    
C84   O4    A    
Cr8   O18   S    
C77   O41   A    
Cr6   O38   S    
C82   O49   A    
C1    O14   A    
C85   O36   A    
Cr5   O37   S    
Cr12  O5    S    
C46   C94   S    
C98   I1    S    
C8    C12   A    
C87   O7    A    
Cr8   O9    S    
C22   H30   S    
Cr3   O11   S    
C65   H7    S    
C4    I7    S    
C28   H31   S    
C68   C96   S    
C32   C37   A    
Cr1   O1    S    
C93   C100  A    
Cr2   O2    S    
C66   C71   A    
C77   O46   A    
C41   C91   S    
Cr7   O17   S    
C28   C33   A    
C53   H43   S    
Cr5   O10   S    
C46   C57   S    
C57   C95   S    
C3    I4    S    
Cr4   O35   S    
C46   H11   S    
C73   O32   A    
C35   O17   A    
Cr9   O46   S    
C16   H24   S    
C93   C97   A    
C83   O50   A    
C31   C34   A    
C19   C23   A    
C30   H33   S    
C74   O23   A    
C82   O2    A    
C75   O34   A    
C42   O24   A    
Cr8   O44   S    
C51   H41   S    
C38   H37   S    
Cr9   O10   S    
C44   O30   A    
C23   C72   S    
C46   H14   S    
C48   C70   A    
Cr1   O40   S    
Cr2   O32   S    
C68   H9    S    
C89   C94   A    
Cr7   O34   S    
C61   C65   A    
C53   C58   A    
C76   O40   A    
Cr5   O41   S    
C45   C67   A    
C75   O35   A    
Cr2   O10   S    
Cr7   O39   S    
C43   O29   A    
Cr10  O25   S    
C59   C63   A    
C33   C38   A    
Cr4   O8    S    
C60   C64   A    
C42   C89   S    
C20   H28   S    
Cr10  O47   S    
C18   C22   A    
C21   H29   S    
C7    H19   S    
C13   O15   A    
C35   O21   A    
C32   C82   S    
C23   C90   A    
C100  I3    S    
C47   H12   S    
C45   C50   A    
C73   O12   A    
C49   C53   A    
C24   O16   A    
C26   C74   S    
C49   H34   S    
C2    C25   A    
C51   C55   A    
Cr12  O52   S    
C88   O39   A    
C94   C95   A    
Cr3   O3    S    
C11   C16   A    
C6    C10   A    
C91   C95   A    
C71   C88   S    
C42   O28   A    
C48   C52   A    
C80   O43   A    
C12   C13   S    
C43   O25   A    
Cr11  O26   S    
C19   H27   S    
C98   C99   A    
C49   C71   A    
C99   I2    S    
C41   O22   A    
Cr11  O13   S    
Cr4   O30   S    
C56   C61   A    
C17   H25   S    
C1    C14   S    
Cr3   O29   S    
C33   C81   S    
C78   O47   A    
Cr7   O13   S    
C69   C86   S    
C52   C56   A    
C9    H21   S    
Cr12  O27   S    
C62   H4    S    
C17   C21   A    
