data_mof_unit_29042.cif
_audit_creation_date              2012-12-10T17:43:18-0500
_audit_creation_method            fapswitch 2.2
_symmetry_space_group_name_H-M    P1
_symmetry_Int_Tables_number       1
_space_group_crystal_system       triclinic
_cell_length_a                    15.082946
_cell_length_b                    13.714748
_cell_length_c                    10.631347
_cell_angle_alpha                 90.236523
_cell_angle_beta                  89.952802
_cell_angle_gamma                 89.999086
_cell_volume                      2199.16823488

loop_
_atom_site_label
_atom_site_type_symbol
_atom_type_description
_atom_site_fract_x
_atom_site_fract_y
_atom_site_fract_z
_atom_type_partial_charge
C1    C     C_R   0.328499 0.500001 0.500324 0.815814
C2    C     C_R   0.671501 0.499998 0.499676 0.815815
C3    C     C_R   0.953525 0.499999 0.499748 0.063181
C4    C     C_R   0.046475 0.500001 0.500251 0.063181
C5    C     C_R   0.907102 0.410681 0.499893 0.104534
C6    C     C_R   0.092898 0.589319 0.500107 0.104534
C7    C     C_R   0.953779 0.677687 0.498946 -0.194825
C8    C     C_R   0.046221 0.322313 0.501054 -0.194825
C9    C     C_R   0.046216 0.677690 0.499494 -0.194900
C10   C     C_R   0.953784 0.322310 0.500506 -0.194900
C11   C     C_R   0.443183 0.793125 0.576799 0.023480
C12   C     C_R   0.556817 0.206875 0.423201 0.023480
C13   C     C_R   0.556849 0.792639 0.423251 0.029821
C14   C     C_R   0.443151 0.207361 0.576749 0.029821
C15   C     C_R   0.558784 0.895970 0.420779 -0.058361
C16   C     C_R   0.441216 0.104030 0.579221 -0.058361
C17   C     C_R   0.441236 0.896475 0.579256 -0.057680
C18   C     C_R   0.558764 0.103525 0.420744 -0.057680
C19   C     C_R   0.500004 0.948194 0.500007 0.063356
C20   C     C_R   0.499996 0.051806 0.499993 0.063356
C21   C     C_R   0.617647 0.947859 0.341593 -0.062957
C22   C     C_R   0.382353 0.052141 0.658407 -0.062957
C23   C     C_R   0.382368 0.948875 0.658431 -0.063545
C24   C     C_R   0.617632 0.051125 0.341569 -0.063545
C25   C     C_R   0.500024 0.499760 0.259108 0.793732
C26   C     C_R   0.499976 0.500240 0.740892 0.793732
C27   C     C_3   0.426635 0.544986 0.042407 -0.161194
C28   C     C_3   0.573365 0.455014 0.957593 -0.161194
C29   C     C_3   0.498933 0.592830 0.960061 -0.124823
C30   C     C_3   0.501067 0.407170 0.039938 -0.124823
C31   C     C_3   0.427674 0.453000 0.957777 -0.166649
C32   C     C_3   0.572326 0.547000 0.042223 -0.166649
C33   C     C_3   0.499975 0.500755 0.877713 0.008025
C34   C     C_3   0.500025 0.499245 0.122286 0.008025
C35   C     C_R   0.814732 0.411295 0.499581 -0.233914
C36   C     C_R   0.185268 0.588705 0.500419 -0.233914
C37   C     C_R   0.768360 0.499996 0.499289 -0.079314
C38   C     C_R   0.231640 0.500004 0.500711 -0.079315
C39   C     C_R   0.814729 0.588695 0.498801 -0.233827
C40   C     C_R   0.185271 0.411304 0.501199 -0.233827
C41   C     C_R   0.907099 0.589313 0.499108 0.104572
C42   C     C_R   0.092900 0.410687 0.500892 0.104572
Cu1   Cu    Cu3+1 0.500000 0.597420 0.500000 0.943972
Cu2   Cu    Cu3+1 0.500000 0.402580 0.500000 0.943972
H1    H     H_    0.368557 0.414596 0.919984 0.143910
H2    H     H_    0.631442 0.585404 0.080015 0.143910
H3    H     H_    0.366641 0.581713 0.080303 0.143177
H4    H     H_    0.633359 0.418287 0.919697 0.143177
H5    H     H_    0.498005 0.668895 0.924729 0.150404
H6    H     H_    0.501995 0.331105 0.075271 0.150404
H7    H     H_    0.779088 0.342624 0.499736 0.160165
H8    H     H_    0.220912 0.657376 0.500264 0.160165
H9    H     H_    0.779084 0.657364 0.498328 0.159998
H10   H     H_    0.220916 0.342636 0.501672 0.159998
H11   H     H_    0.918802 0.746708 0.498444 0.153004
H12   H     H_    0.081198 0.253292 0.501556 0.153004
H13   H     H_    0.081191 0.746715 0.499395 0.152958
H14   H     H_    0.918809 0.253285 0.500605 0.152958
H15   H     H_    0.399419 0.750996 0.636090 0.139215
H16   H     H_    0.600581 0.249004 0.363910 0.139215
H17   H     H_    0.600648 0.750138 0.364002 0.138741
H18   H     H_    0.399352 0.249862 0.635998 0.138741
N1    N     N_R   0.500000 0.743810 0.500000 -0.190158
N2    N     N_R   0.500000 0.256190 0.500000 -0.190158
O1    O     O_R   0.370260 0.582280 0.500030 -0.590119
O2    O     O_R   0.629740 0.417720 0.499970 -0.590119
O3    O     O_R   0.629740 0.582280 0.499970 -0.590475
O4    O     O_R   0.370260 0.417720 0.500030 -0.590475
O5    O     O_R   0.499980 0.582260 0.316850 -0.583547
O6    O     O_R   0.500020 0.417740 0.683150 -0.583547
O7    O     O_R   0.500020 0.582260 0.683150 -0.588181
O8    O     O_R   0.499980 0.417740 0.316850 -0.588181
C43   C     C_1   0.678579 0.895561 0.259831 0.222364
N3    N     N_1   0.727147 0.853849 0.194676 -0.281584
C44   C     C_1   0.321421 0.104439 0.740169 0.222364
N4    N     N_1   0.272853 0.146150 0.805324 -0.281584
C45   C     C_1   0.321454 0.897108 0.740223 0.221020
N5    N     N_1   0.272898 0.855824 0.805404 -0.279391
C46   C     C_1   0.678546 0.102892 0.259777 0.221020
N6    N     N_1   0.727102 0.144176 0.194596 -0.279391

loop_
_geom_bond_atom_site_label_1
_geom_bond_atom_site_label_2
_ccdc_geom_bond_type
C21   C43   S    
C27   C29   S    
C43   N3    T    
Cu2   O2    S    
C19   C20   A    
C7    H11   S    
Cu1   Cu2   S    
C8    H12   S    
C6    C9    A    
Cu1   N1    S    
C39   C41   A    
C29   H5    S    
C45   N5    T    
Cu2   N2    S    
C15   C19   A    
C17   C23   A    
C18   C24   A    
C10   H14   S    
C8    C42   A    
C29   C32   S    
C11   N1    A    
C30   C31   S    
C12   N2    A    
C14   H18   S    
C29   C33   S    
C1    O4    A    
C26   C33   S    
C11   C17   A    
C1    O1    A    
C31   C33   S    
Cu2   O6    S    
C9    H13   S    
C36   H8    S    
Cu1   O1    S    
C25   C34   S    
C40   C42   A    
C30   H6    S    
Cu1   O5    S    
C26   O7    A    
C28   H4    S    
C22   C44   S    
C11   H15   S    
C27   C34   S    
C30   C34   S    
C27   C31   S    
C28   C32   S    
C4    C6    A    
C2    O3    A    
C2    O2    A    
C16   C22   A    
C32   C34   S    
C44   N4    T    
C24   C46   S    
C13   N1    A    
C16   C20   A    
C14   N2    A    
C25   O8    A    
C23   C45   S    
C1    C38   S    
Cu1   O3    S    
C28   C33   S    
C40   H10   S    
C13   C15   A    
C35   H7    S    
C26   O6    A    
C14   C16   A    
Cu2   O4    S    
C25   O5    A    
C3    C4    A    
C27   H3    S    
C7    C9    A    
C3    C41   A    
Cu1   O7    S    
C35   C37   A    
C32   H2    S    
C3    C5    A    
C28   C30   S    
C5    C10   A    
C37   C39   A    
C38   C40   A    
C2    C37   S    
C39   H9    S    
C4    C42   A    
C5    C35   A    
C36   C38   A    
C17   C19   A    
C6    C36   A    
Cu2   O8    S    
C18   C20   A    
C7    C41   A    
C46   N6    T    
C12   H16   S    
C15   C21   A    
C13   H17   S    
C8    C10   A    
C31   H1    S    
C21   C24   A    
C12   C18   A    
C22   C23   A    
