data_mof_unit_34218.cif
_audit_creation_date              2013-03-05T16:23:15-0500
_audit_creation_method            fapswitch 2.2
_symmetry_space_group_name_H-M    P1
_symmetry_Int_Tables_number       1
_space_group_crystal_system       triclinic
_cell_length_a                    27.319833
_cell_length_b                    10.49056
_cell_length_c                    9.744004
_cell_angle_alpha                 90.337696
_cell_angle_beta                  89.462051
_cell_angle_gamma                 90.073886
_cell_volume                      2792.46121131

loop_
_atom_site_label
_atom_site_type_symbol
_atom_site_description
_atom_site_fract_x
_atom_site_fract_y
_atom_site_fract_z
_atom_type_partial_charge
O1    O     O_R   0.500000 0.313960 0.616610 -0.620862
O2    O     O_R   0.500000 0.686040 0.383390 -0.621862
O3    O     O_R   0.500020 0.313950 0.383350 -0.626321
O4    O     O_R   0.499980 0.686050 0.616650 -0.627411
C1    C     C_R   0.499578 0.257460 0.499513 0.839062
C2    C     C_R   0.499910 0.742576 0.500498 0.860505
O5    O     O_R   0.428750 0.500030 0.616610 -0.608358
O6    O     O_R   0.571250 0.499970 0.383390 -0.611565
O7    O     O_R   0.428770 0.500020 0.383360 -0.620433
O8    O     O_R   0.571230 0.499980 0.616640 -0.612255
C3    C     C_R   0.405974 0.499476 0.500642 0.872535
C4    C     C_R   0.593959 0.497159 0.499277 0.870358
Zn1   Zn    Zn3+2 0.499990 0.500010 0.655740 0.941569
Zn2   Zn    Zn3+2 0.500010 0.499990 0.344260 0.935949
C5    C     C_R   0.181713 0.338200 0.398147 0.515644
C6    C     C_R   0.819773 0.375707 0.623240 0.549970
O9    O     O_2   0.208483 0.321307 0.282329 -0.550749
O10   O     O_2   0.792857 0.378923 0.740103 -0.550776
N1    N     N_R   0.204109 0.374659 0.516873 -0.352675
N2    N     N_R   0.797762 0.393924 0.499394 -0.342141
C7    C     C_R   0.178489 0.389350 0.637081 0.486573
C8    C     C_R   0.823398 0.383212 0.378592 0.488079
C9    C     C_R   0.269838 0.518843 0.449375 -0.137185
C10   C     C_R   0.714636 0.336847 0.434460 -0.166874
C11   C     C_R   0.319240 0.552786 0.442208 0.186940
C12   C     C_R   0.664500 0.360024 0.432900 0.174684
C13   C     C_R   0.339064 0.359394 0.567640 -0.256336
C14   C     C_R   0.677980 0.558457 0.558950 -0.340277
C15   C     C_R   0.289951 0.323221 0.570584 0.289120
C16   C     C_R   0.728463 0.536837 0.556398 0.288395
C17   C     C_R   0.255056 0.405523 0.513239 0.189195
C18   C     C_R   0.746649 0.423705 0.495811 0.230731
C19   C     C_R   0.103627 0.337009 0.518067 -0.051359
C20   C     C_R   0.897668 0.347021 0.506333 -0.054694
C21   C     C_R   0.130941 0.320515 0.395956 -0.024758
C22   C     C_R   0.870273 0.354477 0.629221 -0.031278
C23   C     C_R   0.107004 0.289293 0.274276 -0.137460
C24   C     C_R   0.893831 0.341990 0.755023 -0.135824
C25   C     C_R   0.127941 0.367685 0.640675 -0.019326
C26   C     C_R   0.873659 0.357684 0.379754 -0.020465
C27   C     C_R   0.353897 0.472177 0.503135 -0.144272
C28   C     C_R   0.646171 0.471658 0.496738 -0.116323
H1    H     H_    0.366111 0.298100 0.614198 0.155941
H2    H     H_    0.663574 0.644255 0.606859 0.150767
H3    H     H_    0.127325 0.272417 0.179889 0.190464
H4    H     H_    0.873373 0.343411 0.850834 0.189301
C29   C     C_R   0.976115 0.320319 0.385401 0.047267
C30   C     C_R   0.024984 0.339534 0.641310 0.046293
C31   C     C_R   0.973217 0.332913 0.638547 0.047206
C32   C     C_R   0.027716 0.308617 0.389868 0.046264
C33   C     C_R   0.949141 0.332032 0.510099 0.071646
C34   C     C_R   0.051947 0.326911 0.516687 0.071143
C35   C     C_R   0.950639 0.327225 0.259936 -0.216058
C36   C     C_R   0.050752 0.365008 0.763741 -0.218135
C37   C     C_R   0.900411 0.346412 0.257477 -0.137506
C38   C     C_R   0.101238 0.379893 0.762907 -0.137245
O11   O     O_2   0.800446 0.399760 0.257908 -0.558321
O12   O     O_2   0.201892 0.426124 0.752157 -0.550706
C39   C     C_R   0.056270 0.283552 0.270969 -0.218344
C40   C     C_R   0.944424 0.331511 0.759894 -0.215294
H5    H     H_    0.728858 0.249233 0.390264 0.167529
H6    H     H_    0.242596 0.580146 0.403967 0.162567
H7    H     H_    0.882736 0.354271 0.158790 0.185938
H8    H     H_    0.119190 0.402921 0.858618 0.191059
H9    H     H_    0.968755 0.324340 0.161266 0.133393
H10   H     H_    0.032759 0.380471 0.861286 0.138500
H11   H     H_    0.040436 0.258520 0.173542 0.139285
H12   H     H_    0.959940 0.321625 0.860569 0.133798
C41   C     C_3   0.539831 0.043228 0.563946 -0.184994
C42   C     C_3   0.459446 0.956878 0.435977 -0.181383
C43   C     C_3   0.540049 0.957620 0.434543 -0.176716
C44   C     C_3   0.459235 0.042551 0.565380 -0.175277
H13   H     H_    0.572921 0.918351 0.381519 0.138220
H14   H     H_    0.426454 0.082114 0.618547 0.127586
H15   H     H_    0.572499 0.083309 0.615734 0.136678
H16   H     H_    0.426805 0.916774 0.384119 0.135996
C45   C     C_3   0.499747 0.877710 0.501488 0.028469
C46   C     C_3   0.499545 0.122392 0.498451 0.031372
C47   C     C_3   0.499528 0.960674 0.631057 -0.133010
C48   C     C_3   0.499759 0.039473 0.368868 -0.135766
H17   H     H_    0.499437 0.924602 0.737956 0.134275
H18   H     H_    0.499909 0.075668 0.262013 0.134666
C49   C     C_3   0.499793 0.384900 0.047862 -0.083241
C50   C     C_3   0.500223 0.615077 0.952179 -0.076140
C51   C     C_3   0.538141 0.442064 0.949906 -0.077285
C52   C     C_3   0.461863 0.557906 0.050120 -0.059947
H19   H     H_    0.570209 0.393190 0.902700 0.130683
H20   H     H_    0.429809 0.606732 0.097475 0.123667
H21   H     H_    0.499718 0.288002 0.093047 0.121105
H22   H     H_    0.500403 0.712001 0.907071 0.118592
N3    N     N_3   0.499960 0.500030 0.863290 -0.074719
N4    N     N_3   0.500040 0.499970 0.136710 -0.074676
C53   C     C_3   0.461608 0.442843 0.952064 -0.058570
C54   C     C_3   0.538402 0.557103 0.047959 -0.077364
H23   H     H_    0.429332 0.394720 0.906527 0.130970
H24   H     H_    0.570708 0.605057 0.093507 0.126962
N5    N     N_2   0.276291 0.205010 0.631765 -0.285737
H25   H     H_    0.240053 0.196285 0.660032 0.249423
C55   C     C_3   0.294224 0.092637 0.560869 -0.806408
H26   H     H_    0.283090 0.006332 0.618780 0.250037
H27   H     H_    0.334789 0.093578 0.553410 0.237983
H28   H     H_    0.278493 0.087101 0.456211 0.259155
N6    N     N_2   0.760681 0.627499 0.616814 -0.281306
H29   H     H_    0.744847 0.680741 0.694715 0.234349
C56   C     C_3   0.786794 0.706371 0.519253 -0.763261
H30   H     H_    0.812223 0.770652 0.574897 0.243262
H31   H     H_    0.760599 0.765352 0.460506 0.236430
H32   H     H_    0.808733 0.646988 0.446987 0.257149
N7    N     N_2   0.633012 0.265755 0.375528 -0.311933
H33   H     H_    0.598672 0.259993 0.419368 0.221853
C57   C     C_3   0.632374 0.261950 0.227188 -0.726962
H34   H     H_    0.608454 0.182614 0.192464 0.219179
H35   H     H_    0.669813 0.245431 0.185382 0.253888
H36   H     H_    0.617789 0.352869 0.186384 0.247797
N8    N     N_2   0.333052 0.667663 0.374658 -0.299725
H37   H     H_    0.367773 0.668879 0.332653 0.232425
C58   C     C_3   0.321830 0.782858 0.450661 -0.813899
H38   H     H_    0.331422 0.867064 0.387316 0.243414
H39   H     H_    0.343391 0.786530 0.546799 0.239332
H40   H     H_    0.282133 0.787595 0.475862 0.259181

loop_
_geom_bond_atom_site_label_1
_geom_bond_atom_site_label_2
_geom_bond_distance
_ccdc_geom_bond_type
C10   H5    1.083663 S    
C13   C15   1.393978 A    
C57   H34   1.110695 S    
N1    C17   1.428781 S    
C8    O11   1.350079 S    
N5    H25   1.029231 S    
C51   N3    1.481342 S    
C57   H35   1.110840 S    
C19   C34   1.415910 A    
C5    N1    1.366182 A    
C49   N4    1.481391 S    
C56   H31   1.111620 S    
C20   C33   1.416025 A    
C19   C25   1.407811 A    
C31   C40   1.414131 A    
O1    C1    1.282797 A    
C32   C39   1.414169 A    
C21   C23   1.396472 A    
C10   C12   1.391652 A    
C44   C47   1.543127 S    
N7    C57   1.446012 S    
C46   C48   1.529030 S    
C11   N8    1.425303 S    
N8    H37   1.029663 S    
C49   C53   1.534846 S    
O4    Zn1   1.990687 S    
C41   C43   1.543687 S    
C4    C28   1.451594 S    
C39   H11   1.077856 S    
C9    H6    1.083515 S    
C55   H26   1.110303 S    
C31   C33   1.419340 A    
C37   H7    1.083709 S    
C16   N6    1.423677 S    
C32   C34   1.419261 A    
C38   H8    1.083658 S    
C41   H15   1.110397 S    
C50   N3    1.481430 S    
C35   H9    1.077498 S    
C20   C22   1.407950 A    
C6    N2    1.367860 A    
C29   C35   1.414713 A    
C45   C47   1.529183 S    
C53   H23   1.110324 S    
Zn1   N3    2.022358 S    
C42   C45   1.526863 S    
C41   C46   1.526450 S    
O2    C2    1.282913 A    
C50   H22   1.110087 S    
C5    C21   1.399543 A    
C43   C48   1.542912 S    
N5    C55   1.446540 S    
C29   C32   1.416313 A    
C35   C37   1.387598 A    
C49   H21   1.110139 S    
C56   H32   1.109513 S    
C36   C38   1.387817 A    
C51   H19   1.110321 S    
C42   C48   1.543400 S    
C44   H14   1.110126 S    
C58   H40   1.110825 S    
C11   C27   1.408041 A    
C43   H13   1.110346 S    
C58   H39   1.111695 S    
C2    C45   1.417617 S    
C29   C33   1.419935 A    
N8    C58   1.445321 S    
C14   H2    1.084183 S    
C9    C17   1.402259 A    
C30   C36   1.414823 A    
O5    C3    1.295068 A    
O7    Zn2   1.979688 S    
C10   C18   1.397815 A    
C52   C53   1.535093 S    
N3    C53   1.481041 S    
C51   C54   1.534870 S    
C13   C27   1.400672 A    
C25   C38   1.396172 A    
C7    C25   1.399408 A    
C30   C34   1.419957 A    
O6    C4    1.294012 A    
C26   C37   1.396412 A    
C8    C26   1.399493 A    
N4    C54   1.480854 S    
N6    C56   1.446471 S    
C50   C54   1.534740 S    
C54   H24   1.110226 S    
O7    C3    1.296366 A    
C12   N7    1.425077 S    
Zn2   N4    2.022359 S    
C23   C39   1.387964 A    
O3    Zn2   1.990689 S    
O8    C4    1.296367 A    
C24   C40   1.387974 A    
C48   H18   1.110341 S    
C30   C31   1.416384 A    
C49   C51   1.534469 S    
N2    C8    1.368167 A    
C42   H16   1.110176 S    
C20   C26   1.407477 A    
C41   C47   1.542954 S    
O4    C2    1.280830 A    
O1    Zn1   1.986456 S    
C23   H3    1.083587 S    
C22   C24   1.396761 A    
C43   C45   1.526802 S    
C12   C28   1.412876 A    
C47   H17   1.110306 S    
N2    C18   1.432109 S    
C5    O9    1.349935 S    
O6    Zn2   1.986774 S    
C55   H27   1.109961 S    
C50   C52   1.534641 S    
O3    C1    1.280683 A    
O8    Zn1   1.979691 S    
C36   H10   1.077480 S    
C56   H30   1.110369 S    
C15   N5    1.426841 S    
C14   C16   1.397973 A    
C7    O12   1.350043 S    
C15   C17   1.408665 A    
C52   N4    1.480990 S    
C58   H38   1.110316 S    
C6    C22   1.399583 A    
C16   C18   1.411266 A    
C14   C28   1.397537 A    
C19   C21   1.408461 A    
C3    C27   1.450932 S    
C57   H36   1.111295 S    
C52   H20   1.110362 S    
C9    C11   1.396607 A    
O2    Zn2   1.986454 S    
C24   H4    1.083621 S    
C13   H1    1.084547 S    
O5    Zn1   1.986769 S    
C55   H28   1.111528 S    
C40   H12   1.077909 S    
C6    O10   1.349966 S    
C44   C46   1.526514 S    
N6    H29   1.031857 S    
C42   C44   1.544091 S    
C1    C46   1.416910 S    
N7    H33   1.029035 S    
N1    C7    1.366875 A    
