data_mof_unit_46306.cif
_audit_creation_date              2012-12-11T15:39:30-0500
_audit_creation_method            fapswitch 2.2
_symmetry_space_group_name_H-M    P1
_symmetry_Int_Tables_number       1
_space_group_crystal_system       triclinic
_cell_length_a                    14.300132
_cell_length_b                    14.815158
_cell_length_c                    33.27199
_cell_angle_alpha                 98.004756
_cell_angle_beta                  90.525302
_cell_angle_gamma                 118.69293
_cell_volume                      6099.64203205

loop_
_atom_site_label
_atom_site_type_symbol
_atom_type_description
_atom_site_fract_x
_atom_site_fract_y
_atom_site_fract_z
_atom_type_partial_charge
C1    C     C_R   0.616525 0.910029 0.436843 0.593524
C2    C     C_R   0.711707 0.436505 0.949403 0.575137
C3    C     C_R   0.560555 0.785276 0.768328 0.450235
C4    C     C_R   0.565137 0.800122 0.727872 0.403972
C5    C     C_R   0.634020 0.779419 0.703449 0.012570
C6    C     C_R   0.696442 0.741075 0.719202 0.452736
C7    C     C_R   0.694215 0.727332 0.759987 0.272101
C8    C     C_R   0.625696 0.750533 0.784971 -0.024044
C9    C     C_R   0.571551 0.730359 0.629939 0.271793
C10   C     C_R   0.567916 0.761291 0.592078 0.363124
C11   C     C_R   0.713428 0.934898 0.617977 -0.185647
C12   C     C_R   0.709978 0.739332 0.950260 0.550219
C13   C     C_R   0.795880 0.374476 0.154103 0.454464
C14   C     C_R   0.786710 0.391000 0.114206 0.212676
C15   C     C_R   0.706734 0.292315 0.235605 0.472810
C16   C     C_R   0.694776 0.274576 0.275749 0.001569
C17   C     C_R   0.736850 0.358758 0.308014 -0.002882
C18   C     C_R   0.795987 0.460832 0.300118 -0.101397
C19   C     C_R   0.808621 0.478798 0.259976 -0.091828
C20   C     C_R   0.761319 0.394897 0.227491 0.109173
C21   C     C_R   0.756151 0.415445 0.185740 -0.016926
C22   C     C_R   0.602426 0.308556 0.357928 0.359621
C23   C     C_R   0.593744 0.204903 0.456297 0.597396
C24   C     C_R   0.564952 0.271979 0.394514 0.198575
C25   C     C_R   0.744197 0.305770 0.415472 0.389198
C26   C     C_R   0.781408 0.341785 0.379119 0.220578
C27   C     C_R   0.708467 0.339146 0.349419 -0.080347
C28   C     C_R   0.635318 0.265742 0.422658 -0.041705
C29   C     C_R   0.240364 0.877276 0.393825 -0.053089
C30   C     C_R   0.250706 0.966783 0.379613 -0.116858
C31   C     C_R   0.228189 0.964655 0.338583 0.402633
C32   C     C_R   0.717992 0.905004 0.655816 0.234808
C33   C     C_R   0.194088 0.872713 0.310918 -0.021142
C34   C     C_R   0.175248 0.781007 0.324854 -0.101665
C35   C     C_R   0.294022 0.892081 0.434583 0.537226
C36   C     C_R   0.195304 0.781403 0.366223 0.256051
C37   C     C_R   0.182860 0.793445 0.163586 0.342477
C38   C     C_R   0.157933 0.775005 0.121786 -0.105438
C39   C     C_R   0.117951 0.918342 0.128264 0.217241
C40   C     C_R   0.139048 0.934068 0.171193 0.266841
C41   C     C_R   0.167982 0.868657 0.188467 0.033096
C42   C     C_1   0.177107 0.873599 0.231920 0.157094
C43   C     C_R   0.644055 0.803884 0.661973 0.136370
C44   C     C_1   0.183786 0.873608 0.268007 0.105871
C45   C     C_R   0.117373 0.831181 0.103857 -0.084845
C46   C     C_R   0.634883 0.877728 0.394757 0.029854
C47   C     C_R   0.614524 0.905226 0.551430 0.574649
C48   C     C_R   0.545611 0.812702 0.366370 0.334904
C49   C     C_R   0.557700 0.803994 0.324903 -0.124767
C50   C     C_R   0.658517 0.856254 0.310916 -0.017679
C51   C     C_R   0.750332 0.911680 0.338374 0.246267
C52   C     C_R   0.738547 0.925722 0.380859 0.182804
C53   C     C_R   0.772744 0.922966 0.174935 0.375939
C54   C     C_R   0.635361 0.865193 0.586708 -0.030648
C55   C     C_R   0.791413 0.910894 0.133542 0.207058
C56   C     C_R   0.614238 0.757841 0.119892 0.405822
C57   C     C_R   0.595210 0.770703 0.160807 0.216775
C58   C     C_R   0.677798 0.850599 0.188780 -0.060564
C59   C     C_R   0.590034 0.199620 0.571077 0.581091
C60   C     C_1   0.671056 0.853740 0.231912 0.100466
C61   C     C_1   0.666085 0.854708 0.267949 0.109838
C62   C     C_R   0.714171 0.823281 0.106321 -0.035326
C63   C     C_R   0.623297 0.249597 0.614422 0.022060
C64   C     C_R   0.549393 0.265134 0.637777 -0.123386
C65   C     C_R   0.053731 0.782121 0.063638 0.546459
C66   C     C_R   0.564738 0.285849 0.680020 -0.113327
C67   C     C_R   0.654874 0.293112 0.699941 -0.000518
C68   C     C_R   0.736208 0.288349 0.677241 0.267673
C69   C     C_R   0.720060 0.266471 0.634065 0.294370
C70   C     C_R   0.761284 0.338823 0.845634 0.213672
C71   C     C_R   0.289660 0.887498 0.548679 0.601580
C72   C     C_R   0.771197 0.367628 0.888187 -0.160263
C73   C     C_R   0.588123 0.335819 0.885999 0.449783
C74   C     C_R   0.577824 0.306950 0.843737 0.392702
C75   C     C_R   0.665555 0.313104 0.823457 0.028345
C76   C     C_R   0.744317 0.487283 0.066246 0.557841
C77   C     C_1   0.660777 0.303369 0.779838 0.149020
C78   C     C_1   0.658379 0.298819 0.743457 0.050320
C79   C     C_R   0.687364 0.372844 0.908336 -0.066542
C80   C     C_R   0.068824 0.753435 0.908377 0.036338
C81   C     C_R   0.110121 0.854027 0.897751 0.181723
C82   C     C_R   0.134411 0.867895 0.857065 0.292246
C83   C     C_R   0.739702 0.452766 0.106054 -0.065893
C84   C     C_R   0.109334 0.780099 0.827563 0.004286
C85   C     C_R   0.075407 0.682713 0.839012 -0.120847
C86   C     C_R   0.056947 0.669454 0.879114 0.337815
C87   C     C_R   0.742935 0.789774 0.066401 0.595843
C88   C     C_R   0.180198 0.756984 0.761753 -0.087966
C89   C     C_R   0.188986 0.765167 0.720699 0.271405
C90   C     C_R   0.127724 0.801711 0.701123 -0.018994
C91   C     C_R   0.059405 0.830148 0.723673 0.284498
C92   C     C_R   0.055392 0.824298 0.765126 0.524149
C93   C     C_R   0.115985 0.788416 0.784202 -0.035860
C94   C     C_R   0.206680 0.924438 0.653225 -0.126873
C95   C     C_R   0.698533 0.493081 0.137961 0.224073
C96   C     C_R   0.247962 0.946452 0.616181 0.327142
C97   C     C_R   0.152859 0.760935 0.587956 0.186177
C98   C     C_R   0.021676 0.731862 0.947416 0.607694
C99   C     C_R   0.114348 0.738470 0.626522 0.236706
C100  C     C_R   0.144878 0.821263 0.659073 -0.062386
C101  C     C_R   0.226313 0.864762 0.584058 0.039147
C102  C     C_R   0.660490 0.740602 0.911373 -0.077549
C103  C     C_R   0.604552 0.646565 0.883611 0.326240
C104  C     C_R   0.586562 0.648389 0.842136 0.204712
C105  C     C_R   0.625637 0.744930 0.828801 -0.005906
C106  C     C_R   0.671385 0.837752 0.856983 0.457972
C107  C     C_R   0.706167 0.473003 0.177517 0.317073
C108  C     C_R   0.686755 0.836389 0.898282 0.212772
Cr1   Cr    Cr6+3 0.424820 0.846020 0.489780 1.196702
Cr2   Cr    Cr6+3 0.657880 0.078580 0.505700 1.164446
Cr3   Cr    Cr6+3 0.417280 0.075360 0.504550 1.116010
Cr4   Cr    Cr6+3 0.903360 0.812540 0.006510 1.139134
Cr5   Cr    Cr6+3 0.914630 0.587050 0.006280 1.106117
Cr6   Cr    Cr6+3 0.673560 0.582680 0.008540 1.218459
F1    F     F_    0.843636 0.317884 0.161974 -0.501457
F2    F     F_    0.018335 0.571989 0.888258 -0.613650
F3    F     F_    0.990446 0.852060 0.786751 -0.517014
F4    F     F_    0.316311 0.047359 0.613077 -0.617684
F5    F     F_    0.576072 0.553867 0.895997 -0.568384
F6    F     F_    0.658323 0.210094 0.204798 -0.558321
F7    F     F_    0.504339 0.837257 0.712640 -0.547480
F8    F     F_    0.494039 0.806818 0.791662 -0.530093
F9    F     F_    0.762327 0.720227 0.695216 -0.532330
F10   F     F_    0.495599 0.691624 0.561248 -0.596414
F11   F     F_    0.705545 0.930790 0.844037 -0.510307
F12   F     F_    0.814793 0.306165 0.443219 -0.537414
F13   F     F_    0.664402 0.509177 0.208168 -0.601669
F14   F     F_    0.534351 0.309904 0.329488 -0.562463
F15   F     F_    0.214180 0.732349 0.180110 -0.582062
F16   F     F_    0.245246 0.053837 0.325575 -0.554385
F17   F     F_    0.849647 0.001633 0.202265 -0.558779
F18   F     F_    0.444746 0.764351 0.378157 -0.562600
F19   F     F_    0.535649 0.677568 0.093697 -0.521513
F20   F     F_    0.484206 0.279420 0.822290 -0.553111
F21   F     F_    0.503289 0.334552 0.904439 -0.500058
H1    H     H_    0.162629 0.710621 0.103873 0.208092
H2    H     H_    0.229930 0.987845 0.678500 0.189887
H3    H     H_    0.058758 0.615536 0.816374 0.177967
H4    H     H_    0.766213 0.014701 0.613980 0.167293
H5    H     H_    0.828350 0.526323 0.324878 0.150630
H6    H     H_    0.850841 0.558344 0.254129 0.155642
H7    H     H_    0.631748 0.578992 0.155281 0.396048
H8    H     H_    0.420418 0.246247 0.379891 0.415766
H9    H     H_    0.154998 0.690690 0.406773 0.355797
H10   H     H_    0.106712 0.048982 0.181116 0.401958
H11   H     H_    0.122587 0.992180 0.084245 0.360433
H12   H     H_    0.145897 0.708934 0.303467 0.174968
H13   H     H_    0.790733 0.340348 0.057393 0.331632
H14   H     H_    0.930652 0.037616 0.141988 0.406822
H15   H     H_    0.902224 0.956301 0.343355 0.348833
H16   H     H_    0.881176 0.043689 0.395785 0.363358
H17   H     H_    0.489428 0.723265 0.200744 0.336826
H18   H     H_    0.904954 0.397899 0.346896 0.340004
H19   H     H_    0.906831 0.361011 0.845005 0.381176
H20   H     H_    0.835296 0.324977 0.725403 0.365332
H21   H     H_    0.859197 0.272592 0.627864 0.381649
H22   H     H_    0.113217 0.986778 0.913727 0.364266
H23   H     H_    0.282741 0.040887 0.399781 0.204764
H24   H     H_    0.069343 0.590364 0.614957 0.357955
H25   H     H_    0.275023 0.764390 0.675242 0.356706
H26   H     H_    0.226271 0.018095 0.868826 0.363621
H27   H     H_    0.994162 0.852256 0.676738 0.348624
H28   H     H_    0.049286 0.627452 0.556798 0.353377
H29   H     H_    0.714171 0.916701 0.952519 0.337961
H30   H     H_    0.835122 0.042156 0.678636 0.356064
H31   H     H_    0.513867 0.496706 0.827471 0.418301
H32   H     H_    0.764540 0.700581 0.804011 0.335363
H33   H     H_    0.456278 0.588140 0.612001 0.393287
H34   H     H_    0.487301 0.758933 0.303494 0.178166
H35   H     H_    0.847252 0.393468 0.905031 0.208659
H36   H     H_    0.475661 0.254609 0.623550 0.212988
H37   H     H_    0.503260 0.291384 0.697297 0.183409
H38   H     H_    0.648429 0.195445 0.281722 0.158400
H39   H     H_    0.226878 0.729169 0.776639 0.208303
O1    O     O_R   0.318160 0.824460 0.443680 -0.439331
O2    O     O_R   0.668160 0.499860 0.053480 -0.419871
O3    O     O_R   0.689170 0.693840 0.050110 -0.437772
O4    O     O_R   0.525040 0.857250 0.449830 -0.437834
O5    O     O_R   0.803860 0.812940 0.962540 -0.498638
O6    O     O_R   0.982950 0.787950 0.964120 -0.458709
O7    O     O_R   0.007050 0.649970 0.960540 -0.442445
O8    O     O_R   0.807910 0.482370 0.965590 -0.511617
O9    O     O_R   0.643310 0.460980 0.963840 -0.395608
O10   O     O_R   0.666140 0.657800 0.967020 -0.423725
O11   O     O_3   0.830520 0.660760 0.007110 -0.315090
O12   O     O_R   0.645130 0.163230 0.552140 -0.439129
O13   O     O_R   0.684760 0.998800 0.456360 -0.446641
O14   O     O_R   0.647540 0.166310 0.470260 -0.448689
O15   O     O_R   0.500960 0.181750 0.467450 -0.451632
O16   O     O_R   0.331100 0.981120 0.457080 -0.514794
O17   O     O_R   0.315560 0.821140 0.532010 -0.446398
O18   O     O_R   0.522630 0.854180 0.531710 -0.433321
O19   O     O_R   0.682160 0.995480 0.544690 -0.506011
O20   O     O_3   0.654998 0.555083 0.129969 -0.616918
O21   O     O_3   0.459314 0.237043 0.402362 -0.638718
O22   O     O_3   0.171883 0.687704 0.377987 -0.598301
O23   O     O_R   0.498360 0.178430 0.555780 -0.486505
O24   O     O_3   0.130882 0.011160 0.197035 -0.595238
O25   O     O_3   0.095201 0.986411 0.111535 -0.636777
O26   O     O_3   0.824283 0.345277 0.084333 -0.578700
O27   O     O_3   0.886228 0.979920 0.119621 -0.585280
O28   O     O_3   0.849096 0.952065 0.322829 -0.621294
O29   O     O_3   0.825290 0.988476 0.409004 -0.648321
O30   O     O_3   0.497105 0.700393 0.172167 -0.560224
O31   O     O_3   0.887769 0.373693 0.373438 -0.578129
O32   O     O_3   0.845580 0.341008 0.824998 -0.635297
O33   O     O_3   0.829515 0.300506 0.695808 -0.674453
O34   O     O_R   0.328690 0.978040 0.538950 -0.452942
O35   O     O_3   0.795738 0.258510 0.610425 -0.652084
O36   O     O_3   0.122428 0.935576 0.927122 -0.658125
O37   O     O_3   0.054108 0.637846 0.634284 -0.638885
O38   O     O_3   0.260410 0.739246 0.701657 -0.571022
O39   O     O_3   0.182070 0.964883 0.845166 -0.601896
O40   O     O_3   0.996702 0.865329 0.706801 -0.548818
O41   O     O_3   0.121994 0.684284 0.554079 -0.649651
O42   O     O_3   0.731537 0.930415 0.924490 -0.576141
O43   O     O_3   0.789701 0.974571 0.687866 -0.610809
O44   O     O_3   0.537018 0.558186 0.813646 -0.629663
O45   O     O_3   0.499990 0.999990 0.500010 -0.324238
O46   O     O_3   0.761918 0.694093 0.774016 -0.558190
O47   O     O_3   0.502535 0.630851 0.637191 -0.644583
O48   O     O_R   0.828710 0.851830 0.052170 -0.437802
O49   O     O_R   0.005980 0.823990 0.047210 -0.473364
O50   O     O_R   0.031900 0.688850 0.050170 -0.503090
O51   O     O_R   0.830940 0.518420 0.048680 -0.506669

loop_
_geom_bond_atom_site_label_1
_geom_bond_atom_site_label_2
_ccdc_geom_bond_type
C16   H38   S    
C41   C42   S    
Cr5   O51   S    
C73   C74   A    
C105  C106  A    
C19   C20   A    
C65   O49   A    
H33   O47   S    
C25   F12   S    
C8    C105  S    
C64   H36   S    
C56   F19   S    
C90   C91   A    
H20   O33   S    
C88   H39   S    
C7    C8    A    
C12   O10   A    
C99   O37   S    
C77   C78   T    
C56   C57   A    
C25   C28   A    
C106  F11   S    
Cr2   O14   S    
C26   C27   A    
C29   C30   A    
Cr6   O11   S    
C42   C44   T    
C5    C43   S    
C6    F9    S    
C22   C24   A    
C96   F4    S    
Cr1   O17   S    
C72   C79   A    
C10   F10   S    
C5    C6    A    
Cr6   O10   S    
C1    C46   S    
Cr1   O18   S    
C58   C60   S    
C15   C16   A    
C55   O27   S    
C55   C62   A    
C46   C52   A    
H11   O25   S    
H24   O37   S    
C15   F6    S    
C59   O12   A    
C86   F2    S    
C18   C19   A    
C2    O8    A    
C47   O18   A    
C11   H4    S    
C38   C45   A    
C80   C86   A    
C2    C79   S    
C103  C104  A    
C23   O14   A    
H28   O41   S    
Cr1   O4    S    
Cr5   O7    S    
C63   C69   A    
C16   C17   A    
C17   C18   A    
H17   O30   S    
C31   C33   A    
C102  C108  A    
C53   F17   S    
C38   H1    S    
C9    C10   A    
H31   O44   S    
C32   O43   S    
C91   C92   A    
C51   O28   S    
H30   O43   S    
Cr4   O6    S    
C106  C108  A    
C53   C55   A    
C81   O36   S    
C71   C101  S    
H8    O21   S    
H22   O36   S    
C19   H6    S    
C96   C101  A    
H26   O39   S    
C31   F16   S    
C67   C78   S    
Cr3   O45   S    
C14   C83   A    
C68   O33   S    
C76   C83   S    
C90   C100  S    
C104  C105  A    
C97   C99   A    
C81   C82   A    
C89   O38   S    
C1    O13   A    
H7    O20   S    
C15   C20   A    
H25   O38   S    
C46   C48   A    
Cr2   O13   S    
C9    C43   A    
C74   C75   A    
C67   C68   A    
C17   C27   S    
C87   O48   A    
C73   F21   S    
C76   O2    A    
C66   C67   A    
C84   C85   A    
C103  F5    S    
C3    C8    A    
Cr4   O11   S    
C68   C69   A    
C24   O21   S    
C50   C51   A    
C25   C26   A    
C85   C86   A    
C14   O26   S    
H29   O42   S    
C51   C52   A    
C60   C61   T    
C72   H35   S    
C18   H5    S    
C92   F3    S    
C36   O22   S    
Cr5   O50   S    
C12   C102  S    
C37   C38   A    
Cr1   O45   S    
C87   O3    A    
C82   O39   S    
C1    O4    A    
C94   H2    S    
C22   F14   S    
Cr5   O8    S    
C29   C36   A    
C94   C100  A    
Cr6   O3    S    
C83   C95   A    
C95   O20   S    
Cr2   O19   S    
Cr1   O1    S    
C33   C34   A    
C73   C79   A    
C13   C21   A    
H19   O32   S    
C23   C28   S    
C20   C21   S    
C94   C96   A    
Cr2   O45   S    
C75   C77   S    
C104  O44   S    
C108  O42   S    
C11   C54   A    
C95   C107  A    
C47   C54   S    
H18   O31   S    
C7    O46   S    
C40   C41   A    
C21   C107  A    
C11   C32   A    
Cr3   O15   S    
C35   O16   A    
C82   C84   A    
C22   C27   A    
Cr4   O5    S    
C45   C65   S    
Cr4   O49   S    
C56   C62   A    
C26   O31   S    
C34   H12   S    
H15   O28   S    
C98   O6    A    
C3    C4    A    
H14   O27   S    
H32   O46   S    
C23   O15   A    
H27   O40   S    
Cr2   O12   S    
C66   H37   S    
C30   H23   S    
C39   O25   S    
C88   C93   A    
C71   O34   A    
C80   C98   S    
H21   O35   S    
C33   C44   S    
Cr4   O48   S    
C47   O19   A    
H13   O26   S    
C24   C28   A    
H16   O29   S    
C80   C81   A    
C53   C58   A    
C3    F8    S    
C6    C7    A    
H9    O22   S    
C70   O32   S    
C13   F1    S    
C62   C87   S    
C29   C35   S    
C59   C63   S    
C84   C93   S    
C99   C100  A    
C39   C45   A    
C52   O29   S    
C35   O1    A    
C98   O7    A    
C107  F13   S    
H10   O24   S    
Cr3   O23   S    
C49   H34   S    
C57   C58   A    
C30   C31   A    
C40   O24   S    
C91   O40   S    
C59   O23   A    
C48   C49   A    
C74   F20   S    
C57   O30   S    
Cr6   O2    S    
C92   C93   A    
C32   C43   A    
C37   F15   S    
C4    F7    S    
C76   O51   A    
C34   C36   A    
C2    O9    A    
C37   C41   A    
C102  C103  A    
C10   C54   A    
C63   C64   A    
C39   C40   A    
C9    O47   S    
C4    C5    A    
C12   O5    A    
C69   O35   S    
C88   C89   A    
C70   C75   A    
Cr3   O16   S    
C49   C50   A    
C97   O41   S    
Cr5   O11   S    
C50   C61   S    
C48   F18   S    
C70   C72   A    
C85   H3    S    
C71   O17   A    
C89   C90   A    
C13   C14   A    
Cr3   O34   S    
C65   O50   A    
C97   C101  A    
Cr6   O9    S    
C64   C66   A    
