data_mof_unit_35317.cif
_audit_creation_date              2012-10-26T19:40:03-0400
_audit_creation_method            fapswitch 2.2
_symmetry_space_group_name_H-M    P1
_symmetry_Int_Tables_number       1
_space_group_crystal_system       triclinic
_cell_length_a                    15.0393
_cell_length_b                    8.667228
_cell_length_c                    7.507012
_cell_angle_alpha                 102.905853
_cell_angle_beta                  95.435878
_cell_angle_gamma                 93.480735
_cell_volume                      946.137352434

loop_
_atom_site_label
_atom_site_type_symbol
_atom_type_description
_atom_site_fract_x
_atom_site_fract_y
_atom_site_fract_z
_atom_type_partial_charge
C1    C     C_R   0.495349 0.199800 0.453418 0.529555
C2    C     C_R   0.175697 0.442296 0.335856 -0.145862
C3    C     C_R   0.767929 0.498957 0.499326 -0.014827
C4    C     C_R   0.231818 0.496627 0.501172 -0.014261
C5    C     C_R   0.804536 0.445694 0.333882 -0.139637
C6    C     C_R   0.195160 0.549072 0.666843 -0.147159
C7    C     C_R   0.896961 0.442603 0.333585 0.004122
C8    C     C_R   0.102625 0.549200 0.667899 0.003776
C9    C     C_R   0.953225 0.495776 0.500610 0.062673
C10   C     C_R   0.046339 0.495026 0.501116 0.062802
C11   C     C_R   0.916464 0.550107 0.667036 0.007527
C12   C     C_R   0.502208 0.800140 0.546814 0.523630
C13   C     C_R   0.083078 0.440654 0.334673 0.010234
C14   C     C_R   0.934037 0.387269 0.169294 -0.142358
C15   C     C_R   0.065472 0.603458 0.832485 -0.146137
C16   C     C_3   0.347158 0.298775 0.965913 0.057202
C17   C     C_3   0.294660 0.174890 0.807450 -0.281834
C18   C     C_3   0.196704 0.149642 0.838936 -0.495294
C19   C     C_3   0.604037 0.778273 0.083071 0.068803
C20   C     C_3   0.684716 0.836751 0.998884 -0.277512
C21   C     C_3   0.696430 0.018101 0.041616 -0.483377
C22   C     C_R   0.026638 0.386078 0.169961 -0.139660
C23   C     C_R   0.972796 0.604028 0.832013 -0.139119
C24   C     C_2   0.489627 0.031526 0.428210 -0.171323
C25   C     C_2   0.503764 0.968409 0.573041 -0.164519
C26   C     C_R   0.328758 0.498758 0.500403 0.525666
C27   C     C_R   0.671161 0.500136 0.499583 0.528129
C28   C     C_R   0.823898 0.549905 0.665415 -0.145506
Cu1   Cu    Cu3+1 0.510010 0.517380 0.684380 1.034137
Cu2   Cu    Cu3+1 0.489990 0.482620 0.315620 1.013116
H1    H     H_    0.795621 0.590436 0.793486 0.124979
H2    H     H_    0.517787 0.040755 0.712466 0.150712
H3    H     H_    0.312001 0.409910 0.987310 0.129809
H4    H     H_    0.350297 0.249471 0.090325 0.163873
H5    H     H_    0.297663 0.214097 0.676762 0.182490
H6    H     H_    0.325773 0.060219 0.793196 0.160037
H7    H     H_    0.191479 0.114572 0.971389 0.143406
H8    H     H_    0.161841 0.053980 0.725690 0.161916
H9    H     H_    0.163267 0.260471 0.840089 0.148723
H10   H     H_    0.614339 0.834862 0.232128 0.140960
H11   H     H_    0.541049 0.820137 0.026994 0.132472
H12   H     H_    0.203893 0.400600 0.208098 0.104855
H13   H     H_    0.746474 0.792052 0.055508 0.156149
H14   H     H_    0.675809 0.791515 0.847724 0.190866
H15   H     H_    0.635528 0.066025 0.986548 0.167342
H16   H     H_    0.754584 0.057081 0.976881 0.146410
H17   H     H_    0.708940 0.067417 0.192499 0.152617
H18   H     H_    0.761178 0.405022 0.205743 0.146913
H19   H     H_    0.238552 0.591621 0.794581 0.119070
H20   H     H_    0.891493 0.345646 0.040360 0.115372
H21   H     H_    0.108033 0.645279 0.961349 0.113419
H22   H     H_    0.053995 0.343435 0.041551 0.115063
H23   H     H_    0.945168 0.646728 0.960457 0.119185
H24   H     H_    0.473784 0.959349 0.289339 0.108941
N1    N     N_2   0.474890 0.456420 0.038520 0.082062
N2    N     N_2   0.525110 0.543580 0.961480 0.096545
O1    O     O_R   0.506510 0.286130 0.619770 -0.449977
O2    O     O_3   0.601108 0.612305 0.066128 -0.462708
O3    O     O_R   0.493490 0.713870 0.380230 -0.506889
O4    O     O_R   0.489600 0.256770 0.308360 -0.517327
O5    O     O_R   0.510400 0.743230 0.691640 -0.535136
O6    O     O_R   0.378710 0.514640 0.655720 -0.498836
O7    O     O_R   0.621290 0.485360 0.344280 -0.459506
O8    O     O_R   0.361800 0.485290 0.344300 -0.550608
O9    O     O_R   0.638200 0.514710 0.655700 -0.508316
O10   O     O_3   0.433638 0.326914 0.918685 -0.467871

loop_
_geom_bond_atom_site_label_1
_geom_bond_atom_site_label_2
_ccdc_geom_bond_type
C2    C4    A    
C18   H9    S    
Cu1   Cu2   S    
C27   O9    A    
C17   H6    S    
Cu2   O8    S    
C16   H3    S    
C9    C10   A    
C4    C26   S    
C19   C20   S    
C12   C25   S    
N1    N2    D    
C16   H4    S    
Cu2   O3    S    
C14   C22   A    
C25   H2    S    
C15   C23   A    
C17   C18   S    
C26   O6    A    
C3    C5    A    
C6    H19   S    
Cu1   O5    S    
C1    O1    A    
C24   C25   D    
C12   O5    A    
C9    C11   A    
C14   H20   S    
C27   O7    A    
C11   C28   A    
C2    H12   S    
Cu1   O9    S    
C3    C27   S    
C3    C28   A    
Cu1   N2    S    
C18   H7    S    
N2    O2    S    
C13   C22   A    
C23   H23   S    
C8    C15   A    
C21   H15   S    
C7    C14   A    
C19   O2    S    
C18   H8    S    
C8    C10   A    
C5    H18   S    
C15   H21   S    
C20   H13   S    
C16   O10   S    
C19   H10   S    
C22   H22   S    
C24   H24   S    
C7    C9    A    
N1    O10   S    
C20   C21   S    
C1    C24   S    
C4    C6    A    
C21   H16   S    
Cu2   N1    S    
C1    O4    A    
C11   C23   A    
C5    C7    A    
C2    C13   A    
C26   O8    A    
Cu1   O6    S    
C6    C8    A    
C17   H5    S    
C20   H14   S    
Cu2   O7    S    
C12   O3    A    
C28   H1    S    
C19   H11   S    
Cu1   O1    S    
C16   C17   S    
C21   H17   S    
C10   C13   A    
Cu2   O4    S    
