data_mof_unit_24171.cif
_audit_creation_date              2012-12-10T17:58:44-0500
_audit_creation_method            fapswitch 2.2
_symmetry_space_group_name_H-M    P1
_symmetry_Int_Tables_number       1
_space_group_crystal_system       triclinic
_cell_length_a                    15.161814
_cell_length_b                    15.622327
_cell_length_c                    9.648752
_cell_angle_alpha                 89.154129
_cell_angle_beta                  89.001588
_cell_angle_gamma                 90.516377
_cell_volume                      2284.73636229

loop_
_atom_site_label
_atom_site_type_symbol
_atom_type_description
_atom_site_fract_x
_atom_site_fract_y
_atom_site_fract_z
_atom_type_partial_charge
C1    C     C_R   0.124292 0.386493 0.500439 0.917585
C2    C     C_R   0.997013 0.574816 0.924566 0.390500
C3    C     C_R   0.995576 0.574533 0.071687 0.388707
C4    C     C_R   0.001213 0.424771 0.927615 0.353563
C5    C     C_R   0.500877 0.924714 0.075372 0.418107
C6    C     C_R   0.497325 0.074926 0.924747 0.377108
C7    C     C_R   0.498088 0.074761 0.071966 0.366239
C8    C     C_R   0.500442 0.924857 0.927622 0.415291
C9    C     C_R   0.756453 0.305725 0.380622 0.295702
C10   C     C_R   0.245369 0.693562 0.606839 0.193087
C11   C     C_R   0.212032 0.730334 0.367692 0.288140
C12   C     C_R   0.882357 0.620141 0.500572 0.893681
C13   C     C_R   0.772092 0.284062 0.628078 0.248887
C14   C     C_R   0.204604 0.269314 0.619793 0.318083
C15   C     C_R   0.839784 0.769250 0.430782 0.299498
C16   C     C_R   0.746901 0.692194 0.597327 0.220076
C17   C     C_R   0.269795 0.325437 0.406046 0.229862
C18   C     C_R   0.252359 0.811100 0.384497 0.299945
C19   C     C_R   0.738175 0.201142 0.616770 0.237747
C20   C     C_R   0.722021 0.222726 0.368527 0.293553
C21   C     C_R   0.282746 0.774473 0.625197 0.281022
C22   C     C_R   0.705439 0.769322 0.622198 0.315567
C23   C     C_R   0.874590 0.387177 0.501695 0.837699
C24   C     C_R   0.339496 0.268205 0.429977 0.293926
C25   C     C_R   0.244167 0.191030 0.593583 0.230292
C26   C     C_R   0.769048 0.825677 0.408391 0.221051
C27   C     C_R   0.198122 0.676817 0.486808 -0.321698
C28   C     C_R   0.795961 0.329435 0.505428 -0.318062
C29   C     C_R   0.820007 0.692056 0.503793 -0.306696
C30   C     C_R   0.199552 0.326640 0.505907 -0.320470
C31   C     C_R   0.700467 0.175610 0.491759 -0.330832
C32   C     C_R   0.298379 0.827515 0.507315 -0.327157
C33   C     C_R   0.318730 0.191038 0.502707 -0.311786
C34   C     C_R   0.124428 0.613853 0.496588 0.952331
C35   C     C_R   0.698615 0.825296 0.507297 -0.317495
C36   C     C_R   0.623049 0.884987 0.500903 0.914571
C37   C     C_R   0.381440 0.119368 0.500519 0.911458
C38   C     C_R   0.375607 0.886275 0.502166 0.862838
C39   C     C_R   0.625733 0.112811 0.497570 0.946374
C40   C     C_R   0.002117 0.424690 0.075372 0.417369
Cl1   Cl    Cl    0.001895 0.324736 0.163265 -0.387838
Cl2   Cl    Cl    0.994135 0.674267 0.837409 -0.345154
Cl3   Cl    Cl    0.984790 0.672459 0.154048 -0.362641
Cl4   Cl    Cl    0.995382 0.325658 0.843025 -0.377212
Cl5   Cl    Cl    0.501816 0.824873 0.163223 -0.378149
Cl6   Cl    Cl    0.494078 0.174529 0.837846 -0.332995
Cl7   Cl    Cl    0.498586 0.173297 0.155265 -0.361606
Cl8   Cl    Cl    0.497959 0.826130 0.842497 -0.338612
Cu1   Cu    Cu3+1 1.000000 0.500000 0.640660 1.163029
Cu2   Cu    Cu3+1 1.000000 0.500000 0.359340 1.162003
Cu3   Cu    Cu3+1 0.500000 0.000000 0.640660 1.170372
Cu4   Cu    Cu3+1 0.500000 0.000000 0.359340 1.157115
H1    H     H_    0.698827 0.517915 0.245402 0.399361
H2    H     H_    0.678066 0.133491 0.903720 0.396888
H3    H     H_    0.728704 0.058202 0.100780 0.406973
H4    H     H_    0.270630 0.937791 0.898865 0.420038
H5    H     H_    0.734672 0.930323 0.893957 0.409160
H6    H     H_    0.563319 0.287749 0.563577 0.379000
H7    H     H_    0.263578 0.998973 0.582005 0.347406
H8    H     H_    0.703964 0.834116 0.136535 0.387089
H9    H     H_    0.183668 0.648938 0.870543 0.397223
H10   H     H_    0.227332 0.563985 0.100603 0.414732
H11   H     H_    0.827614 0.388253 0.906909 0.397983
H12   H     H_    0.231579 0.427521 0.897795 0.408329
H13   H     H_    0.058720 0.797194 0.579487 0.388359
H14   H     H_    0.764875 0.499926 0.580042 0.336618
H15   H     H_    0.193551 0.344932 0.130184 0.385899
H16   H     H_    0.253359 0.031198 0.240037 0.387897
N1    N     N_R   0.000000 0.500000 0.852070 -0.270630
N2    N     N_R   1.000000 0.500000 0.147930 -0.267196
N3    N     N_R   0.500000 0.000000 0.852070 -0.275060
N4    N     N_R   0.500000 0.000000 0.147930 -0.278878
O1    O     O_R   0.090170 0.409820 0.618740 -0.505365
O2    O     O_R   0.409830 0.090180 0.381260 -0.554555
O3    O     O_R   0.409830 0.090180 0.618740 -0.515830
O4    O     O_R   0.590170 0.909820 0.381260 -0.511068
O5    O     O_R   0.409830 0.909820 0.381260 -0.511437
O6    O     O_R   0.590170 0.090180 0.618740 -0.506920
O7    O     O_R   0.590170 0.090180 0.381260 -0.499135
O8    O     O_R   0.409830 0.909820 0.618740 -0.527457
O9    O     O_2   0.810827 0.399950 0.158307 -0.274433
O10   O     O_2   0.656828 0.352808 0.164628 -0.111219
O11   O     O_3   0.703099 0.476512 0.323691 -0.486134
O12   O     O_R   0.909830 0.590180 0.381260 -0.556006
O13   O     O_2   0.282011 0.527122 0.630511 -0.195291
O14   O     O_2   0.367070 0.623432 0.774014 -0.121756
O15   O     O_3   0.203831 0.591287 0.845240 -0.509576
O16   O     O_2   0.168078 0.738855 0.097618 -0.143717
O17   O     O_2   0.317214 0.695165 0.155650 -0.160879
O18   O     O_3   0.192141 0.584463 0.180576 -0.456142
O19   O     O_2   0.645756 0.385829 0.725797 -0.139112
O20   O     O_2   0.703074 0.283326 0.888424 -0.190157
O21   O     O_3   0.799238 0.415919 0.826991 -0.446873
O22   O     O_2   0.176127 0.255849 0.896875 -0.185667
O23   O     O_R   0.909830 0.590180 0.618740 -0.518473
O24   O     O_2   0.323109 0.297478 0.814601 -0.168727
O25   O     O_3   0.202055 0.411534 0.811085 -0.444043
O26   O     O_2   0.994863 0.822323 0.312397 -0.142346
O27   O     O_2   0.936161 0.904940 0.504525 -0.145595
O28   O     O_3   0.007539 0.759686 0.559922 -0.520136
O29   O     O_2   0.770673 0.585211 0.811739 -0.188857
O30   O     O_2   0.618329 0.618298 0.752749 -0.112624
O31   O     O_3   0.703670 0.519495 0.588609 -0.421500
O32   O     O_2   0.291761 0.489602 0.339025 -0.183680
O33   O     O_2   0.361818 0.388446 0.182100 -0.143849
O34   O     O_R   0.090170 0.409820 0.381260 -0.510627
O35   O     O_3   0.194439 0.403178 0.169149 -0.520558
O36   O     O_2   0.302818 0.880030 0.138717 -0.238147
O37   O     O_2   0.146600 0.891732 0.201794 -0.122429
O38   O     O_3   0.256285 0.991499 0.320807 -0.544130
O39   O     O_2   0.809930 0.047842 0.657383 -0.157515
O40   O     O_2   0.845757 0.157693 0.825337 -0.152088
O41   O     O_3   0.690309 0.086888 0.838680 -0.514047
O42   O     O_2   0.789116 0.227256 0.105573 -0.152464
O43   O     O_2   0.847467 0.123502 0.266302 -0.157874
O44   O     O_3   0.692927 0.094377 0.163090 -0.474187
O45   O     O_R   0.909830 0.409820 0.381260 -0.513246
O46   O     O_2   0.167820 0.812246 0.824437 -0.208847
O47   O     O_2   0.313074 0.766262 0.898449 -0.132147
O48   O     O_3   0.295780 0.920564 0.808316 -0.473851
O49   O     O_2   0.677079 0.760204 0.898590 -0.195269
O50   O     O_2   0.825127 0.797190 0.815364 -0.173047
O51   O     O_3   0.707431 0.914268 0.805407 -0.445379
O52   O     O_2   0.494837 0.325472 0.314789 -0.143154
O53   O     O_2   0.435390 0.401947 0.513017 -0.136145
O54   O     O_3   0.507046 0.255728 0.557273 -0.512568
O55   O     O_2   0.267357 0.090398 0.814233 -0.233723
O56   O     O_R   0.090170 0.590180 0.618740 -0.519192
O57   O     O_2   0.115242 0.119017 0.749871 -0.116144
O58   O     O_3   0.201548 0.013614 0.599414 -0.431515
O59   O     O_2   0.762362 0.989359 0.358261 -0.220532
O60   O     O_2   0.865446 0.912558 0.208121 -0.122432
O61   O     O_3   0.699397 0.894879 0.163088 -0.524360
O62   O     O_R   0.090170 0.590180 0.381260 -0.502468
O63   O     O_R   0.909830 0.409820 0.618740 -0.538004
O64   O     O_R   0.590170 0.909820 0.618740 -0.514716
S1    S     S_3+6 0.731914 0.383813 0.250870 0.137631
S2    S     S_3+6 0.773926 0.122282 0.736615 0.142310
S3    S     S_3+6 0.764319 0.167118 0.222406 0.168173
S4    S     S_3+6 0.265096 0.818162 0.792620 0.125469
S5    S     S_3+6 0.728585 0.809836 0.789578 0.131977
S6    S     S_3+6 0.446139 0.314999 0.450450 0.153410
S7    S     S_3+6 0.206627 0.102318 0.694325 0.148152
S8    S     S_3+6 0.777591 0.907990 0.281992 0.118062
S9    S     S_3+6 0.277475 0.606876 0.715253 0.149291
S10   S     S_3+6 0.221461 0.687288 0.197316 0.159446
S11   S     S_3+6 0.728493 0.342066 0.770262 0.146132
S12   S     S_3+6 0.226223 0.308116 0.789456 0.140719
S13   S     S_3+6 0.946561 0.816126 0.448793 0.145450
S14   S     S_3+6 0.709253 0.602726 0.694381 0.172329
S15   S     S_3+6 0.282125 0.403909 0.272433 0.118709
S16   S     S_3+6 0.238707 0.893754 0.256217 0.126937

loop_
_geom_bond_atom_site_label_1
_geom_bond_atom_site_label_2
_ccdc_geom_bond_type
C10   C27   A    
O60   S8    D    
C37   O2    A    
C11   C18   A    
C12   C29   S    
Cu2   O45   S    
C35   C36   S    
O11   S1    S    
C19   C31   A    
O19   S11   D    
Cu2   O12   S    
H7    O58   S    
C17   S15   S    
O9    S1    D    
C22   C35   A    
O27   S13   D    
C3    Cl3   S    
C40   N2    A    
O51   S5    S    
O47   S4    D    
C20   S3    S    
Cu3   O3    S    
O10   S1    D    
Cu4   O2    S    
C26   S8    S    
H3    O44   S    
C34   O62   A    
H2    O41   S    
C14   S12   S    
O29   S14   D    
C12   O12   A    
O15   S9    S    
Cu3   O8    S    
C36   O4    A    
O31   S14   S    
O36   S16   D    
C9    S1    S    
C4    C40   A    
C24   S6    S    
C8    N3    A    
C13   C28   A    
O48   S4    S    
C32   C38   S    
C2    N1    A    
H9    O15   S    
C1    O34   A    
O44   S3    S    
O35   S15   S    
Cu1   O63   S    
C10   C21   A    
Cu1   N1    S    
O20   S11   D    
C17   C30   A    
H4    O48   S    
O52   S6    D    
C25   S7    S    
Cu3   N3    S    
C14   C30   A    
O46   S4    D    
C36   O64   A    
C4    N1    A    
C15   C29   A    
C27   C34   S    
O22   S12   D    
O17   S10   D    
O33   S15   D    
C21   C32   A    
C17   C24   A    
C13   C19   A    
Cu3   Cu4   S    
C39   O6    A    
O49   S5    D    
C3    N2    A    
Cu2   O62   S    
C7    N4    A    
C15   C26   A    
H16   O38   S    
C4    Cl4   S    
C16   C29   A    
O42   S3    D    
C5    Cl5   S    
O54   S6    S    
C33   C37   S    
O24   S12   D    
C7    Cl7   S    
C8    Cl8   S    
Cu4   N4    S    
O40   S2    D    
H5    O51   S    
Cu3   O64   S    
C9    C20   A    
C11   C27   A    
O53   S6    D    
O37   S16   D    
C12   O23   A    
O55   S7    D    
C23   C28   S    
Cu1   O23   S    
O58   S7    S    
O30   S14   D    
C40   Cl1   S    
O43   S3    D    
H6    O54   S    
O25   S12   S    
Cu1   O1    S    
C18   C32   A    
C13   S11   S    
Cu4   O5    S    
Cu4   O7    S    
O14   S9    D    
C15   S13   S    
O32   S15   D    
Cu1   O56   S    
H12   O25   S    
O61   S8    S    
C16   C22   A    
C6    Cl6   S    
H14   O31   S    
H13   O28   S    
O13   S9    D    
C6    N3    A    
Cu4   O4    S    
C23   O45   A    
C5    C8    A    
C11   S10   S    
C6    C7    A    
O57   S7    D    
C38   O5    A    
O28   S13   S    
C5    N4    A    
H11   O21   S    
O38   S16   S    
C24   C33   A    
O50   S5    D    
C23   O63   A    
H1    O11   S    
C1    O1    A    
C2    C3    A    
Cu2   N2    S    
Cu3   O6    S    
O18   S10   S    
H15   O35   S    
C38   O8    A    
C2    Cl2   S    
C19   S2    S    
H10   O18   S    
C22   S5    S    
C1    C30   S    
C31   C39   S    
O21   S11   S    
C14   C25   A    
C37   O3    A    
C10   S9    S    
C26   C35   A    
O39   S2    D    
C34   O56   A    
Cu1   Cu2   S    
C25   C33   A    
Cu2   O34   S    
O16   S10   D    
O41   S2    S    
C16   S14   S    
C21   S4    S    
H8    O61   S    
O26   S13   D    
O59   S8    D    
C9    C28   A    
C39   O7    A    
C18   S16   S    
C20   C31   A    
