data_mof_unit_64550.cif
_audit_creation_date              2012-12-10T18:54:04-0500
_audit_creation_method            fapswitch 2.2
_symmetry_space_group_name_H-M    P1
_symmetry_Int_Tables_number       1
_space_group_crystal_system       triclinic
_cell_length_a                    19.373704
_cell_length_b                    19.435341
_cell_length_c                    19.444352
_cell_angle_alpha                 85.000733
_cell_angle_beta                  95.181717
_cell_angle_gamma                 89.864166
_cell_volume                      7263.42391584

loop_
_atom_site_label
_atom_site_type_symbol
_atom_type_description
_atom_site_fract_x
_atom_site_fract_y
_atom_site_fract_z
_atom_type_partial_charge
C1    C     C_R   0.311659 0.492886 0.492476 0.542036
C2    C     C_2   0.489033 0.983650 0.490826 -0.077307
C3    C     C_2   0.536030 0.017984 0.529019 -0.079398
C4    C     C_R   0.688230 0.506911 0.508203 0.507498
C5    C     C_R   0.515828 0.236497 0.515647 -0.002312
C6    C     C_R   0.763852 0.504544 0.515321 0.000561
C7    C     C_R   0.797938 0.443528 0.503812 -0.119372
C8    C     C_R   0.869738 0.440439 0.509157 -0.086287
C9    C     C_R   0.908510 0.499055 0.523563 0.064023
C10   C     C_R   0.874680 0.559581 0.538154 0.251731
C11   C     C_R   0.802374 0.561978 0.534200 -0.074921
C12   C     C_R   0.491407 0.908332 0.487803 0.001742
C13   C     C_R   0.122440 0.542819 0.467393 -0.105922
C14   C     C_R   0.194174 0.548869 0.473523 0.230196
C15   C     C_R   0.205077 0.423888 0.495218 -0.120785
C16   C     C_R   0.508640 0.492027 0.688773 0.512748
C17   C     C_R   0.133160 0.418006 0.488545 0.257155
C18   C     C_R   0.091832 0.477847 0.474730 0.015751
C19   C     C_2   0.984176 0.496685 0.523575 -0.065582
C20   C     C_2   0.016446 0.474195 0.471281 0.264474
C21   C     C_R   0.236058 0.488969 0.487393 0.000715
C22   C     C_R   0.487169 0.508668 0.235841 0.042198
C23   C     C_R   0.430279 0.874845 0.466525 -0.055045
C24   C     C_R   0.507877 0.450040 0.205787 -0.106796
C25   C     C_R   0.507340 0.450857 0.134412 -0.086043
C26   C     C_R   0.487847 0.511265 0.091834 0.042989
C27   C     C_R   0.464781 0.569180 0.121912 -0.099394
C28   C     C_R   0.491361 0.507459 0.311148 0.502085
C29   C     C_R   0.464107 0.567848 0.193648 -0.105013
C30   C     C_R   0.538444 0.538268 0.872228 -0.142582
C31   C     C_R   0.534167 0.543639 0.800242 -0.122953
C32   C     C_R   0.500592 0.423325 0.800938 -0.071496
C33   C     C_R   0.506302 0.417264 0.873075 0.258122
C34   C     C_R   0.428901 0.803138 0.466078 0.238699
C35   C     C_R   0.524122 0.475333 0.908870 0.043678
C36   C     C_2   0.490483 0.515580 0.016137 -0.118333
C37   C     C_2   0.526463 0.470705 0.984388 -0.083778
C38   C     C_R   0.514305 0.486443 0.764315 0.001041
C39   C     C_R   0.508848 0.311787 0.508858 0.507133
C40   C     C_R   0.491369 0.688377 0.491671 0.535002
C41   C     C_R   0.489848 0.764069 0.487295 0.040631
C42   C     C_R   0.551474 0.798155 0.506222 -0.149221
C43   C     C_R   0.552545 0.869541 0.505892 -0.110740
C44   C     C_R   0.472552 0.123925 0.553662 0.256481
C45   C     C_R   0.465970 0.195632 0.547252 -0.074100
C46   C     C_R   0.573543 0.205060 0.492199 -0.126604
C47   C     C_R   0.580813 0.133582 0.499354 -0.145763
C48   C     C_R   0.529944 0.092829 0.528747 0.035891
Cl1   Cl    Cl    0.228746 0.632641 0.467398 -0.428569
Cl2   Cl    Cl    0.972406 0.449077 0.394030 -0.489299
Cl3   Cl    Cl    0.921087 0.634127 0.558257 -0.540940
Cl4   Cl    Cl    0.096396 0.335453 0.499569 -0.484865
Cl5   Cl    Cl    0.487855 0.337147 0.916878 -0.547407
Cl6   Cl    Cl    0.408815 0.074794 0.594084 -0.526803
Cl7   Cl    Cl    0.348853 0.765224 0.442232 -0.440006
H1    H     H_    0.599288 0.769451 0.521166 0.150327
H2    H     H_    0.521935 0.403768 0.113592 0.136859
H3    H     H_    0.613178 0.235678 0.468561 0.154542
H4    H     H_    0.580713 0.992712 0.558201 0.131532
H5    H     H_    0.382953 0.904447 0.451785 0.167960
H6    H     H_    0.445391 0.012114 0.462520 0.161767
H7    H     H_    0.236849 0.377536 0.505729 0.174477
H8    H     H_    0.090238 0.588964 0.457695 0.191487
H9    H     H_    0.014829 0.517148 0.566696 0.148111
H10   H     H_    0.486012 0.378588 0.773541 0.173976
H11   H     H_    0.555604 0.428057 0.012716 0.165768
H12   H     H_    0.625148 0.109900 0.480181 0.136660
H13   H     H_    0.553034 0.583109 0.899441 0.134719
H14   H     H_    0.447533 0.613479 0.216176 0.149099
H15   H     H_    0.462151 0.557565 0.985107 0.134828
H16   H     H_    0.601499 0.893620 0.519563 0.127908
H17   H     H_    0.769023 0.397955 0.491196 0.152037
H18   H     H_    0.776353 0.609077 0.543994 0.166015
H19   H     H_    0.895098 0.392431 0.501135 0.190761
H20   H     H_    0.421574 0.219271 0.566323 0.178425
H21   H     H_    0.524187 0.403249 0.237572 0.144268
H22   H     H_    0.545172 0.592669 0.772666 0.155198
H23   H     H_    0.448478 0.615864 0.089969 0.126290
O1    O     O_3   0.500000 0.500000 0.500000 -0.467613
O2    O     O_R   0.467830 0.341070 0.546160 -0.541889
O3    O     O_R   0.450560 0.655630 0.450550 -0.472910
O4    O     O_R   0.545840 0.347670 0.467560 -0.545637
O5    O     O_R   0.535760 0.655640 0.535740 -0.554103
O6    O     O_R   0.545870 0.536170 0.656040 -0.536216
O7    O     O_R   0.450550 0.545430 0.340370 -0.536847
O8    O     O_R   0.347960 0.451240 0.536460 -0.544720
O9    O     O_R   0.655630 0.467150 0.467130 -0.537388
O10   O     O_R   0.340780 0.536140 0.450970 -0.471284
O11   O     O_R   0.655640 0.545460 0.545430 -0.543030
O12   O     O_R   0.467850 0.451260 0.656340 -0.534872
O13   O     O_R   0.535740 0.467130 0.347260 -0.542859
Zn1   Zn    Zn3+2 0.558310 0.558310 0.558290 0.958550
Zn2   Zn    Zn3+2 0.446830 0.436990 0.558720 0.971480
Zn3   Zn    Zn3+2 0.558290 0.446420 0.446420 0.946654
Zn4   Zn    Zn3+2 0.436570 0.558290 0.436570 1.034726

loop_
_geom_bond_atom_site_label_1
_geom_bond_atom_site_label_2
_ccdc_geom_bond_type
C1    C21   S    
O4    Zn3   S    
C22   C29   A    
C27   C29   A    
C41   C42   A    
C19   C20   D    
C27   H23   S    
C2    C12   S    
C7    C8    A    
C4    O9    A    
C16   O12   A    
O5    Zn1   S    
C12   C23   A    
C26   C27   A    
C13   C18   A    
C14   C21   A    
C36   C37   D    
C35   C37   S    
O1    Zn2   S    
C12   C43   A    
C30   C31   A    
O3    Zn4   S    
C14   Cl1   S    
O9    Zn3   S    
C3    C48   S    
C16   O6    A    
C20   Cl2   S    
C42   H1    S    
C9    C19   S    
C8    C9    A    
C32   C38   A    
C9    C10   A    
C2    H6    S    
C1    O10   A    
O10   Zn4   S    
C34   Cl7   S    
C22   C28   S    
C13   C14   A    
C46   H3    S    
C40   O5    A    
C34   C41   A    
C25   H2    S    
C10   Cl3   S    
C17   Cl4   S    
C47   H12   S    
C36   H15   S    
C31   H22   S    
C29   H14   S    
C33   Cl5   S    
C23   H5    S    
C24   C25   A    
O1    Zn3   S    
C4    C6    S    
C11   H18   S    
C7    H17   S    
C24   H21   S    
C25   C26   A    
C5    C45   A    
O1    Zn4   S    
O8    Zn2   S    
C47   C48   A    
C13   H8    S    
C19   H9    S    
C23   C34   A    
C37   H11   S    
C8    H19   S    
C17   C18   A    
O11   Zn1   S    
O1    Zn1   S    
C30   C35   A    
C26   C36   S    
C40   C41   S    
C5    C39   S    
C22   C24   A    
C42   C43   A    
C6    C11   A    
C44   C45   A    
O12   Zn2   S    
C4    O11   A    
C1    O8    A    
C15   C17   A    
C46   C47   A    
C43   H16   S    
C40   O3    A    
C39   O4    A    
C6    C7    A    
C5    C46   A    
C31   C38   A    
C45   H20   S    
C39   O2    A    
C2    C3    D    
C32   C33   A    
O13   Zn3   S    
O7    Zn4   S    
C33   C35   A    
C15   H7    S    
C28   O13   A    
C18   C20   S    
C10   C11   A    
C44   Cl6   S    
C15   C21   A    
C28   O7    A    
O6    Zn1   S    
O2    Zn2   S    
C30   H13   S    
C44   C48   A    
C16   C38   S    
C32   H10   S    
C3    H4    S    
