data_mof_unit_32428.cif
_audit_creation_date              2012-12-11T17:07:27-0500
_audit_creation_method            fapswitch 2.2
_symmetry_space_group_name_H-M    P1
_symmetry_Int_Tables_number       1
_space_group_crystal_system       triclinic
_cell_length_a                    6.952588
_cell_length_b                    14.536299
_cell_length_c                    16.071397
_cell_angle_alpha                 89.976781
_cell_angle_beta                  89.995558
_cell_angle_gamma                 90.079487
_cell_volume                      1624.25239702

loop_
_atom_site_label
_atom_site_type_symbol
_atom_type_description
_atom_site_fract_x
_atom_site_fract_y
_atom_site_fract_z
_atom_type_partial_charge
O1    O     O_R   0.505720 0.583900 0.413310 -0.548043
O2    O     O_R   0.175940 0.594920 0.586080 -0.520512
O3    O     O_R   0.005640 0.416100 0.586690 -0.522963
C1    C     C_R   0.345012 0.617567 0.614386 0.733676
O4    O     O_R   0.176000 0.594930 0.413930 -0.522397
O5    O     O_R   0.005700 0.416110 0.413310 -0.516398
C2    C     C_R   0.344661 0.616602 0.384909 0.808346
O6    O     O_R   0.505660 0.583890 0.586690 -0.559447
O7    O     O_3   0.339200 0.441330 0.500000 -0.360936
V1    V     V_3+5 0.064350 0.510880 0.500000 1.581289
O8    O     O_R   0.675980 0.405080 0.413920 -0.523320
C3    C     C_R   0.844843 0.383579 0.384756 0.855660
O9    O     O_R   0.675920 0.405070 0.586070 -0.554092
C4    C     C_R   0.844529 0.382455 0.614133 0.791563
V2    V     V_3+5 0.564340 0.489120 0.500000 1.518220
O10   O     O_3   0.839360 0.558670 0.500000 -0.383445
C5    C     C_R   0.685163 0.420515 0.776471 -0.163593
C6    C     C_R   0.613139 0.442987 0.854717 -0.077981
C7    C     C_R   0.630301 0.381258 0.920218 -0.068605
C8    C     C_R   0.718544 0.296429 0.907769 -0.119996
C9    C     C_R   0.790892 0.271133 0.828605 0.069061
C10   C     C_R   0.775791 0.334839 0.761625 0.050342
C11   C     C_R   0.880641 0.184809 0.816157 -0.141330
C12   C     C_R   0.956115 0.162207 0.736674 0.010095
C13   C     C_R   0.940584 0.225485 0.668998 -0.043723
C14   C     C_R   0.853055 0.312919 0.682127 -0.177908
C15   C     C_R   0.043439 0.075672 0.722723 -0.159737
C16   C     C_R   0.113888 0.051520 0.644836 -0.215931
C17   C     C_R   0.096001 0.111880 0.578526 -0.163717
C18   C     C_R   0.009128 0.197391 0.589391 0.586664
H1    H     H_    0.575570 0.399274 0.981129 0.161007
C19   C     C_R   0.744403 0.175812 0.247514 -0.105728
C20   C     C_R   0.882724 0.183903 0.184398 -0.201142
C21   C     C_R   0.020567 0.254877 0.192622 0.619696
C22   C     C_R   0.007955 0.319053 0.258237 -0.152195
H2    H     H_    0.108981 0.375711 0.260109 0.222507
C23   C     C_R   0.858613 0.314294 0.317411 -0.143148
C24   C     C_R   0.732527 0.239324 0.312209 0.022070
C25   C     C_3   0.518164 0.236580 0.311748 0.532107
C26   C     C_3   0.531116 0.166561 0.241680 -0.381625
C27   C     C_R   0.502851 0.680939 0.743066 -0.119861
C28   C     C_R   0.353645 0.684107 0.684334 -0.185944
C29   C     C_R   0.209285 0.750984 0.695845 0.586305
C30   C     C_R   0.218256 0.813217 0.762834 -0.190976
C31   C     C_R   0.375719 0.813519 0.818034 -0.225993
C32   C     C_R   0.514331 0.744697 0.807948 0.097509
C33   C     C_3   0.726242 0.754953 0.798120 0.539624
C34   C     C_3   0.714210 0.685760 0.727767 -0.391268
H3    H     H_    0.771335 0.825118 0.778693 0.031480
H4    H     H_    0.789259 0.620198 0.741612 0.190714
H5    H     H_    0.745554 0.715541 0.665655 0.203147
C35   C     C_R   0.490931 0.755650 0.316238 -0.003682
C36   C     C_R   0.351603 0.685964 0.317372 -0.285676
C37   C     C_R   0.212168 0.686836 0.253389 0.523407
C38   C     C_R   0.224010 0.750863 0.187423 0.531597
C39   C     C_R   0.376108 0.815366 0.183534 -0.288238
C40   C     C_R   0.502861 0.818533 0.251180 -0.011164
C41   C     C_3   0.717275 0.819242 0.253655 -0.333281
C42   C     C_3   0.704117 0.750694 0.325065 -0.318140
H6    H     H_    0.781650 0.789801 0.196355 0.250128
H7    H     H_    0.754367 0.779318 0.385401 0.164940
H8    H     H_    0.761169 0.681538 0.309418 0.238078
O11   O     O_R   0.229140 0.916090 0.913340 -0.531581
O12   O     O_R   0.558860 0.905090 0.086080 -0.539066
O13   O     O_R   0.729100 0.083920 0.086690 -0.551907
C43   C     C_R   0.389668 0.882564 0.114416 0.797202
O14   O     O_R   0.558860 0.905090 0.913930 -0.538959
O15   O     O_R   0.729100 0.083920 0.913310 -0.549900
C44   C     C_R   0.389697 0.883204 0.885072 0.746244
O16   O     O_R   0.229140 0.916080 0.086720 -0.519376
O17   O     O_3   0.395570 0.058660 0.000020 -0.378627
V3    V     V_3+5 0.670450 0.989140 0.000000 1.513828
O18   O     O_R   0.058810 0.094980 0.913910 -0.540627
C45   C     C_R   0.890143 0.116890 0.885405 0.672335
O19   O     O_R   0.058810 0.094980 0.086060 -0.520728
C46   C     C_R   0.890091 0.117413 0.114500 0.737754
V4    V     V_3+5 0.170450 0.010950 0.999970 1.543555
O20   O     O_3   0.895460 0.941370 0.999990 -0.343029
H9    H     H_    0.147766 0.091765 0.517652 0.141057
F1    F     F_    0.441410 0.319397 0.285610 -0.661279
H10   H     H_    0.455032 0.209442 0.370373 0.043980
H11   H     H_    0.474051 0.191639 0.181245 0.251773
H12   H     H_    0.481128 0.096847 0.260266 0.105251
F2    F     F_    0.069644 0.762162 0.637945 -0.727075
H13   H     H_    0.107354 0.864822 0.768399 0.134145
F3    F     F_    0.824139 0.720991 0.866516 -0.634763
H14   H     H_    0.668498 0.471270 0.728043 0.105892
F4    F     F_    0.073659 0.621022 0.250835 -0.664541
F5    F     F_    0.095176 0.745004 0.124177 -0.632917
H15   H     H_    0.775671 0.887243 0.272794 0.149425
H16   H     H_    0.544607 0.508923 0.864626 0.156351
H17   H     H_    0.730730 0.251561 0.961200 0.117944
H18   H     H_    0.057139 0.025194 0.771597 0.116429
H19   H     H_    0.180247 0.984955 0.635607 0.163165
F6    F     F_    0.987793 0.249744 0.520267 -0.727856
F7    F     F_    0.158538 0.266807 0.133870 -0.671199

loop_
_geom_bond_atom_site_label_1
_geom_bond_atom_site_label_2
_ccdc_geom_bond_type
C38   C39   A    
O18   C45   A    
C7    C8    A    
C12   C15   A    
C1    O6    A    
O12   V3    S    
C7    H1    S    
C33   H3    S    
V4    O20   S    
C35   C36   A    
C8    H17   S    
C17   C18   A    
O13   C46   A    
C6    H16   S    
C16   C17   A    
C22   C23   A    
C21   F7    S    
C21   C22   A    
O5    C3    A    
C24   C25   S    
C41   H6    S    
V2    O10   S    
C39   C40   A    
C18   F6    S    
C16   H19   S    
O14   V3    S    
C27   C28   A    
C3    C23   S    
V3    O20   S    
C32   C33   S    
O8    V2    S    
C34   H5    S    
O11   C44   A    
C27   C32   A    
O1    V2    S    
C19   C24   A    
O7    V1    S    
C34   H4    S    
C5    H14   S    
O9    C4    A    
O16   V4    S    
C29   F2    S    
C26   H12   S    
C20   C21   A    
C42   H7    S    
C31   C44   S    
C33   F3    S    
C26   H11   S    
C12   C13   A    
C25   H10   S    
C25   C26   S    
O4    C2    A    
C6    C7    A    
C41   C42   S    
C36   C37   A    
O14   C44   A    
C22   H2    S    
O12   C43   A    
O2    C1    A    
O19   C46   A    
C23   C24   A    
C35   C42   S    
O19   V4    S    
C20   C46   S    
C33   C34   S    
C17   H9    S    
O15   V3    S    
C5    C6    A    
C4    C14   S    
C41   H15   S    
O3    C4    A    
O6    V2    S    
C9    C11   A    
C29   C30   A    
C15   H18   S    
C28   C29   A    
C2    C36   S    
C11   C45   S    
C30   H13   S    
O2    V1    S    
O17   V4    S    
C30   C31   A    
O11   V4    S    
C13   C18   A    
C37   C38   A    
C42   H8    S    
O1    C2    A    
O5    V1    S    
O8    C3    A    
O13   V3    S    
C5    C10   A    
C19   C20   A    
O9    V2    S    
C13   C14   A    
O17   V3    S    
C38   F5    S    
O3    V1    S    
V1    O10   S    
C25   F1    S    
C37   F4    S    
C40   C41   S    
C43   O16   A    
C1    C28   S    
C39   C43   S    
C27   C34   S    
C19   C26   S    
O7    V2    S    
C35   C40   A    
C11   C12   A    
C31   C32   A    
O4    V1    S    
C8    C9    A    
C10   C14   A    
C15   C16   A    
O18   V4    S    
C9    C10   A    
O15   C45   A    
