data_mof_unit_57386.cif
_audit_creation_date              2012-12-10T16:45:19-0500
_audit_creation_method            fapswitch 2.2
_symmetry_space_group_name_H-M    P1
_symmetry_Int_Tables_number       1
_space_group_crystal_system       triclinic
_cell_length_a                    7.418537
_cell_length_b                    8.694728
_cell_length_c                    15.825235
_cell_angle_alpha                 94.264035
_cell_angle_beta                  74.537565
_cell_angle_gamma                 103.251224
_cell_volume                      957.525741659

loop_
_atom_site_label
_atom_site_type_symbol
_atom_type_description
_atom_site_fract_x
_atom_site_fract_y
_atom_site_fract_z
_atom_type_partial_charge
C1    C     C_R   0.545172 0.800238 0.502607 0.887711
C2    C     C_R   0.454829 0.199762 0.497393 0.887706
C3    C     C_R   0.281545 0.394122 0.080185 -0.192748
C4    C     C_R   0.718405 0.606308 0.919869 -0.192738
C5    C     C_R   0.150781 0.355124 0.029634 -0.205539
C6    C     C_R   0.849152 0.645323 0.970428 -0.205519
C7    C     C_2   0.570590 0.968142 0.503923 -0.349381
C8    C     C_2   0.429411 0.031858 0.496076 -0.349389
C9    C     C_R   0.381910 0.485184 0.666560 0.819346
C10   C     C_R   0.618092 0.514830 0.333442 0.819356
C11   C     C_R   0.307408 0.464488 0.762389 -0.104310
C12   C     C_R   0.692607 0.535611 0.237621 -0.104303
C13   C     C_R   0.068773 0.352537 0.892211 -0.204232
C14   C     C_R   0.931167 0.647822 0.107844 -0.204245
C15   C     C_R   0.118572 0.384662 0.802917 0.142336
C16   C     C_R   0.881384 0.615595 0.197125 0.142311
C17   C     C_R   0.438472 0.515436 0.813666 -0.250442
C18   C     C_R   0.561587 0.484629 0.186328 -0.250468
C19   C     C_R   0.392019 0.480327 0.903332 0.089058
C20   C     C_R   0.607980 0.519926 0.096693 0.089061
C21   C     C_R   0.203520 0.396630 0.941920 0.107889
C22   C     C_R   0.796439 0.603721 0.058127 0.107867
C23   C     C_R   0.528033 0.522354 0.955047 0.074537
C24   C     C_R   0.471951 0.477962 0.044986 0.074542
Cu1   Cu    Cu3+1 0.322120 0.483240 0.490330 0.991469
Cu2   Cu    Cu3+1 0.677880 0.516760 0.509670 0.991463
H1    H     H_    0.006521 0.291040 0.059656 0.155532
H2    H     H_    0.993379 0.709499 0.940422 0.155523
H3    H     H_    0.421455 0.420430 0.219254 0.167947
H4    H     H_    0.578704 0.579424 0.780698 0.168068
H5    H     H_    0.924345 0.289452 0.922680 0.165618
H6    H     H_    0.075560 0.711000 0.077395 0.165624
H7    H     H_    0.226685 0.355646 0.146929 0.156365
H8    H     H_    0.773236 0.644940 0.853149 0.156317
H9    H     H_    0.706567 0.039662 0.511379 0.189613
H10   H     H_    0.293434 0.960338 0.488620 0.189621
H11   H     H_    0.003784 0.614819 0.568869 0.232522
H12   H     H_    0.996216 0.385181 0.431131 0.232510
N1    N     N_2   0.945180 0.542040 0.524240 -0.191891
N2    N     N_2   0.054820 0.457960 0.475760 -0.191900
O1    O     O_R   0.384450 0.714270 0.493720 -0.580814
O2    O     O_R   0.615550 0.285730 0.506280 -0.580810
O3    O     O_R   0.684880 0.742590 0.510050 -0.576039
O4    O     O_R   0.315120 0.257410 0.489950 -0.576046
O5    O     O_R   0.265540 0.477900 0.617090 -0.565755
O6    O     O_R   0.734460 0.522100 0.382910 -0.565770
O7    O     O_R   0.565970 0.506210 0.633420 -0.573694
O8    O     O_R   0.434030 0.493790 0.366580 -0.573679
I1    I     I_    0.100216 0.703333 0.263287 -0.385071
I2    I     I_    0.899662 0.297001 0.736790 -0.385132

loop_
_geom_bond_atom_site_label_1
_geom_bond_atom_site_label_2
_ccdc_geom_bond_type
C10   O6    A    
C19   C23   A    
C23   C24   A    
C9    O5    A    
C14   C16   A    
C6    H2    S    
C1    O3    A    
C14   C22   A    
C2    O4    A    
C13   C21   A    
C7    C8    D    
H11   N1    S    
C18   H3    S    
C1    C7    S    
H12   N2    S    
C17   H4    S    
C9    C11   S    
Cu1   O8    S    
C3    C24   A    
C10   C12   S    
Cu2   O7    S    
C2    O2    A    
Cu1   O4    S    
C1    O1    A    
C19   C21   A    
C20   C22   A    
Cu2   O3    S    
C9    O7    A    
C18   C20   A    
C13   C15   A    
Cu1   N2    S    
C10   O8    A    
C20   C24   A    
C4    H8    S    
Cu2   N1    S    
C3    H7    S    
Cu1   O1    S    
C6    C22   A    
Cu1   O5    S    
C7    H9    S    
C5    C21   A    
C16   I1    S    
Cu2   O2    S    
C4    C6    A    
C8    H10   S    
C15   I2    S    
C12   C18   A    
N1    N2    D    
C4    C23   A    
Cu2   O6    S    
C11   C17   A    
C17   C19   A    
Cu1   Cu2   S    
C5    H1    S    
C11   C15   A    
C13   H5    S    
C2    C8    S    
C12   C16   A    
C14   H6    S    
C3    C5    A    
