data_mof_unit_49837.cif
_audit_creation_date              2012-12-10T17:21:18-0500
_audit_creation_method            fapswitch 2.2
_symmetry_space_group_name_H-M    P1
_symmetry_Int_Tables_number       1
_space_group_crystal_system       triclinic
_cell_length_a                    9.616846
_cell_length_b                    10.849582
_cell_length_c                    13.875119
_cell_angle_alpha                 92.923611
_cell_angle_beta                  84.569135
_cell_angle_gamma                 88.634151
_cell_volume                      1438.73994186

loop_
_atom_site_label
_atom_site_type_symbol
_atom_type_description
_atom_site_fract_x
_atom_site_fract_y
_atom_site_fract_z
_atom_type_partial_charge
C1    C     C_R   0.497985 0.737446 0.504749 0.811230
C2    C     C_1   0.462786 0.500548 0.786206 -0.182458
C3    C     C_R   0.304718 0.885958 0.644998 -0.118136
C4    C     C_R   0.206882 0.956204 0.706338 -0.123621
C5    C     C_R   0.203562 0.084021 0.703714 -0.163148
C6    C     C_R   0.299631 0.142253 0.640975 -0.151492
C7    C     C_R   0.397741 0.072691 0.575876 0.033260
C8    C     C_R   0.397456 0.942074 0.576644 0.071501
C9    C     C_R   0.495824 0.871662 0.512891 -0.188448
C10   C     C_R   0.603541 0.929399 0.460326 -0.283604
C11   C     C_R   0.613961 0.056462 0.467145 0.471639
C12   C     C_R   0.477004 0.500459 0.682878 0.793802
C13   C     C_R   0.503003 0.129324 0.515598 -0.223563
C14   C     C_R   0.878884 0.345522 0.363872 -0.287947
C15   C     C_R   0.961673 0.271538 0.293580 0.431722
C16   C     C_R   0.104853 0.264627 0.299094 0.394074
C17   C     C_R   0.165423 0.340809 0.366512 -0.305045
C18   C     C_R   0.085589 0.423176 0.433449 0.057856
C19   C     C_R   0.936612 0.423924 0.433089 0.113581
C20   C     C_R   0.914769 0.572112 0.563962 -0.147616
C21   C     C_R   0.063115 0.570210 0.566060 0.589705
C22   C     C_R   0.500947 0.262808 0.504819 0.802456
C23   C     C_R   0.522921 0.499583 0.317132 0.802144
C24   C     C_1   0.536800 0.498558 0.213781 -0.172760
C25   C     C_2   0.557423 0.496043 0.022919 -0.163559
C26   C     C_2   0.441792 0.500988 0.977019 -0.141045
C27   C     C_1   0.452080 0.500686 0.873194 -0.007416
C28   C     C_1   0.547208 0.497390 0.126764 0.002282
Cu1   Cu    Cu3+1 0.359340 0.500010 0.500010 0.964248
Cu2   Cu    Cu3+1 0.640660 0.499990 0.499990 0.941225
H1    H     H_    0.338955 0.505751 0.017141 0.161383
H2    H     H_    0.770085 0.333123 0.365328 0.249005
H3    H     H_    0.275493 0.329622 0.363646 0.233456
H4    H     H_    0.660271 0.491321 0.982813 0.149607
H5    H     H_    0.683618 0.875288 0.415404 0.182720
H6    H     H_    0.311541 0.788299 0.654847 0.187485
H7    H     H_    0.135947 0.911490 0.757924 0.143611
H8    H     H_    0.129638 0.138623 0.753091 0.136994
H9    H     H_    0.299113 0.241725 0.648070 0.161066
H10   H     H_    0.849572 0.632833 0.614498 0.148460
N1    N     N_R   0.852210 0.498790 0.499090 -0.195845
N2    N     N_R   0.148080 0.498710 0.499060 -0.209746
O1    O     O_R   0.381190 0.680360 0.500010 -0.545517
O2    O     O_R   0.618760 0.680340 0.500000 -0.579052
O3    O     O_R   0.364420 0.499990 0.637850 -0.551140
O4    O     O_R   0.601990 0.499960 0.637840 -0.579774
O5    O     O_R   0.381240 0.319660 0.500000 -0.620220
O6    O     O_R   0.618810 0.319640 0.499990 -0.555322
O7    O     O_R   0.398010 0.500040 0.362160 -0.579117
O8    O     O_R   0.635580 0.500010 0.362150 -0.594214
O9    O     O_3   0.905115 0.191806 0.226996 -0.523620
C29   C     C_3   0.799351 0.251592 0.181081 -0.249039
H11   H     H_    0.825547 0.348017 0.163733 0.140349
H12   H     H_    0.697485 0.249551 0.225865 0.163983
H13   H     H_    0.787358 0.199947 0.111429 0.185885
O10   O     O_3   0.187393 0.186530 0.234241 -0.545019
C30   C     C_3   0.228926 0.082890 0.283124 -0.261227
H14   H     H_    0.136951 0.034204 0.316076 0.169876
H15   H     H_    0.299659 0.108899 0.339340 0.142103
H16   H     H_    0.287917 0.016902 0.229731 0.191485
O11   O     O_3   0.124055 0.645356 0.632470 -0.575264
C31   C     C_3   0.076282 0.616235 0.727788 -0.374538
H17   H     H_    0.148612 0.656007 0.778002 0.189560
H18   H     H_    0.971100 0.658646 0.749792 0.154478
H19   H     H_    0.075954 0.514706 0.736809 0.164895
O12   O     O_3   0.732647 0.108738 0.424680 -0.566350
C32   C     C_3   0.842433 0.087850 0.483578 -0.252195
H20   H     H_    0.867388 0.987727 0.487766 0.152457
H21   H     H_    0.817497 0.131816 0.557675 0.158310
H22   H     H_    0.938796 0.129552 0.451603 0.169163

loop_
_geom_bond_atom_site_label_1
_geom_bond_atom_site_label_2
_ccdc_geom_bond_type
C22   O6    A    
C23   C24   S    
C29   H13   S    
Cu2   N1    S    
Cu1   Cu2   S    
C15   O9    S    
Cu1   N2    S    
C1    O1    A    
C9    C10   A    
C1    O2    A    
C21   O11   S    
C11   O12   S    
C25   H4    S    
C32   H22   S    
C2    C12   S    
C16   O10   S    
C17   C18   A    
C30   H14   S    
C26   H1    S    
Cu1   O7    S    
C5    H8    S    
C29   H11   S    
C25   C28   S    
C4    C5    A    
C11   C13   A    
Cu2   O2    S    
C26   C27   S    
C31   H17   S    
C17   H3    S    
C3    H6    S    
Cu1   O5    S    
C32   H20   S    
C5    C6    A    
Cu2   O6    S    
C4    H7    S    
C29   H12   S    
C13   C22   S    
C20   N1    A    
C6    C7    A    
C7    C8    A    
C18   N2    A    
C2    C27   T    
Cu2   O8    S    
O11   C31   S    
C20   H10   S    
C10   H5    S    
C22   O5    A    
C23   O7    A    
C30   H15   S    
C10   C11   A    
C15   C16   A    
C19   N1    A    
C7    C13   A    
C1    C9    S    
C20   C21   A    
C24   C28   T    
C12   O4    A    
C3    C8    A    
C14   H2    S    
O12   C32   S    
O10   C30   S    
C18   C19   A    
C14   C15   A    
C8    C9    A    
C30   H16   S    
C31   H18   S    
C21   N2    A    
C31   H19   S    
C32   H21   S    
C25   C26   D    
C6    H9    S    
C14   C19   A    
Cu2   O4    S    
Cu1   O1    S    
C3    C4    A    
O9    C29   S    
C16   C17   A    
Cu1   O3    S    
C12   O3    A    
C23   O8    A    
