data_mof_unit_24835.cif
_audit_creation_date              2012-12-10T17:44:37-0500
_audit_creation_method            fapswitch 2.2
_symmetry_space_group_name_H-M    P1
_symmetry_Int_Tables_number       1
_space_group_crystal_system       triclinic
_cell_length_a                    9.888569
_cell_length_b                    10.748153
_cell_length_c                    15.684056
_cell_angle_alpha                 91.449173
_cell_angle_beta                  69.520399
_cell_angle_gamma                 90.845823
_cell_volume                      1561.07399558

loop_
_atom_site_label
_atom_site_type_symbol
_atom_type_description
_atom_site_fract_x
_atom_site_fract_y
_atom_site_fract_z
_atom_type_partial_charge
C1    C     C_R   0.504213 0.739521 0.493390 0.862616
C2    C     C_R   0.717581 0.575416 0.041411 0.103277
C3    C     C_R   0.574460 0.538186 0.092509 0.046491
C4    C     C_R   0.411625 0.492466 0.674540 0.850047
C5    C     C_R   0.818245 0.595351 0.086289 -0.020489
C6    C     C_R   0.779415 0.564468 0.177992 -0.233433
C7    C     C_R   0.530726 0.547995 0.187002 -0.075273
C8    C     C_R   0.310767 0.880176 0.424403 -0.138510
C9    C     C_R   0.183381 0.935582 0.426363 -0.117975
C10   C     C_R   0.140308 0.046956 0.474343 -0.143439
C11   C     C_R   0.231352 0.108350 0.512598 -0.136794
C12   C     C_R   0.420189 0.476713 0.910426 0.043405
C13   C     C_R   0.368968 0.059208 0.502072 0.091718
C14   C     C_R   0.396812 0.936323 0.470526 0.087555
C15   C     C_R   0.506683 0.872689 0.489227 -0.131265
C16   C     C_R   0.493235 0.260372 0.508960 0.894939
C17   C     C_R   0.603044 0.935719 0.522144 -0.258404
C18   C     C_R   0.593497 0.062281 0.536102 -0.010870
C19   C     C_R   0.480721 0.126632 0.521027 -0.190257
C20   C     C_R   0.798048 0.665371 0.617343 -0.161326
C21   C     C_R   0.837664 0.745479 0.675706 -0.222720
C22   C     C_R   0.976569 0.742861 0.677309 -0.183916
C23   C     C_R   0.274774 0.446312 0.962050 0.066409
C24   C     C_R   0.077053 0.661031 0.619846 -0.138542
C25   C     C_R   0.041281 0.579824 0.558848 0.141452
C26   C     C_R   0.896972 0.580885 0.558155 0.183017
C27   C     C_R   0.957735 0.423595 0.443807 -0.103200
C28   C     C_R   0.588049 0.510166 0.325801 0.901340
C29   C     C_R   0.101294 0.423965 0.443194 0.000981
C30   C     C_R   0.362787 0.472985 0.772763 -0.100844
C31   C     C_R   0.634890 0.537911 0.228733 -0.136902
C32   C     C_R   0.173190 0.438989 0.917287 -0.188100
C33   C     C_R   0.215875 0.461900 0.824464 -0.196056
C34   C     C_R   0.517485 0.515342 0.954269 0.070519
C35   C     C_R   0.465077 0.462557 0.815964 -0.078759
C36   C     C_2   0.095079 0.370196 0.111799 0.385763
C37   C     C_1   0.957740 0.652354 0.042083 0.135315
C38   C     C_1   0.697785 0.121131 0.569909 0.195094
C39   C     C_1   0.388121 0.598549 0.236758 0.198741
C40   C     C_1   0.204453 0.342686 0.379739 0.278363
C41   C     C_1   0.608175 0.412264 0.767863 0.203558
C42   C     C_R   0.476949 0.500272 0.048416 0.028848
C43   C     C_R   0.342947 0.442361 0.095582 -0.190728
C44   C     C_R   0.237958 0.422347 0.055522 -0.025726
C45   C     C_R   0.651381 0.573749 0.907054 -0.202068
C46   C     C_R   0.752539 0.597403 0.948668 -0.222943
H1    H     H_    0.685391 0.886092 0.538430 0.171483
H2    H     H_    0.181236 0.664158 0.625312 0.207741
H3    H     H_    0.858843 0.570455 0.211196 0.200934
H4    H     H_    0.857028 0.634554 0.908036 0.158147
H5    H     H_    0.059777 0.422509 0.953379 0.129757
H6    H     H_    0.134867 0.464797 0.792614 0.166067
H7    H     H_    0.318834 0.411816 0.164462 0.197985
H8    H     H_    0.679912 0.601650 0.837241 0.163052
H9    H     H_    0.021591 0.330742 0.080836 0.066378
H10   H     H_    0.341362 0.793551 0.386699 0.168400
H11   H     H_    0.116058 0.890153 0.393203 0.152777
H12   H     H_    0.037989 0.087366 0.480029 0.153029
H13   H     H_    0.189825 0.191688 0.552521 0.166142
H14   H     H_    0.926889 0.361596 0.398145 0.181788
H15   H     H_    0.689179 0.672816 0.620882 0.203729
H16   H     H_    0.759576 0.809392 0.720434 0.157371
H17   H     H_    0.006832 0.804611 0.723341 0.154915
N1    N     N_R   0.856800 0.501200 0.500850 -0.129188
N2    N     N_R   0.142390 0.501280 0.500880 -0.150723
N3    N     N_1   0.068830 0.699455 0.007179 -0.190628
N4    N     N_1   0.781792 0.167335 0.596830 -0.207650
N5    N     N_1   0.274361 0.638358 0.275458 -0.208841
N6    N     N_1   0.287063 0.277263 0.328299 -0.194266
N7    N     N_1   0.722479 0.372866 0.730418 -0.183335
O1    O     O_R   0.385310 0.683220 0.500000 -0.647038
O2    O     O_R   0.614640 0.683250 0.500010 -0.642270
O3    O     O_R   0.319840 0.499980 0.632240 -0.645183
O4    O     O_R   0.549160 0.500000 0.632250 -0.629528
O5    O     O_R   0.385360 0.316750 0.499990 -0.629440
O6    O     O_R   0.614690 0.316780 0.500000 -0.599514
O7    O     O_R   0.450840 0.500000 0.367750 -0.613465
O8    O     O_R   0.680160 0.500020 0.367760 -0.599472
O9    O     O_2   0.057774 0.369365 0.194719 -0.592875
Zn1   Zn    Zn3+2 0.346880 0.499980 0.499990 0.938563
Zn2   Zn    Zn3+2 0.653120 0.500020 0.500010 0.964251

loop_
_geom_bond_atom_site_label_1
_geom_bond_atom_site_label_2
_ccdc_geom_bond_type
C3    C42   A    
C5    C37   S    
C27   C29   A    
C16   O5    A    
C39   N5    T    
C34   C42   A    
C8    H10   S    
C45   C46   A    
C2    C46   A    
C33   H6    S    
C12   C23   A    
C1    O1    A    
C30   C35   A    
C10   H12   S    
C3    C7    A    
C27   H14   S    
C5    C6    A    
C18   C19   A    
C20   H15   S    
C26   N1    A    
C22   H17   S    
C43   H7    S    
C8    C9    A    
C1    C15   S    
C28   O8    A    
O5    Zn1   S    
C4    O4    A    
O2    Zn2   S    
C6    C31   A    
N2    Zn1   S    
C21   C22   A    
C11   H13   S    
O1    Zn1   S    
C1    O2    A    
C7    C31   A    
C40   N6    T    
C13   C19   A    
C24   H2    S    
C25   N2    A    
C24   C25   A    
C10   C11   A    
C25   C26   A    
C23   C44   A    
C43   C44   A    
C32   H5    S    
C37   N3    T    
C17   C18   A    
C4    O3    A    
C34   C45   A    
C38   N4    T    
C12   C35   A    
C28   O7    A    
C21   H16   S    
C29   N2    A    
C45   H8    S    
C22   C24   A    
C36   C44   S    
C2    C5    A    
C42   C43   A    
O4    Zn2   S    
C12   C34   A    
C9    C10   A    
O7    Zn1   S    
C15   C17   A    
C8    C14   A    
C30   C33   A    
C16   O6    A    
C28   C31   S    
C17   H1    S    
C36   O9    D    
O6    Zn2   S    
C46   H4    S    
C23   C32   A    
C2    C3    A    
C18   C38   S    
C36   H9    S    
C32   C33   A    
C11   C13   A    
O8    Zn2   S    
C20   C26   A    
C16   C19   S    
C29   C40   S    
O3    Zn1   S    
C9    H11   S    
C6    H3    S    
C35   C41   S    
N1    Zn2   S    
C27   N1    A    
C20   C21   A    
C7    C39   S    
C14   C15   A    
C13   C14   A    
C4    C30   S    
C41   N7    T    
