data_mof_unit_46140.cif
_audit_creation_date              2012-12-10T20:40:00-0500
_audit_creation_method            fapswitch 2.2
_symmetry_space_group_name_H-M    P1
_symmetry_Int_Tables_number       1
_space_group_crystal_system       triclinic
_cell_length_a                    23.15756
_cell_length_b                    10.6462
_cell_length_c                    9.907474
_cell_angle_alpha                 89.959098
_cell_angle_beta                  90.639514
_cell_angle_gamma                 90.765949
_cell_volume                      2442.21800875

loop_
_atom_site_label
_atom_site_type_symbol
_atom_type_description
_atom_site_fract_x
_atom_site_fract_y
_atom_site_fract_z
_atom_type_partial_charge
C1    C     C_R   0.502759 0.260248 0.500097 0.866012
C2    C     C_R   0.972199 0.333490 0.726958 -0.016668
C3    C     C_R   0.032424 0.337106 0.722234 -0.199925
C4    C     C_R   0.060959 0.368519 0.602773 -0.026531
C5    C     C_R   0.028922 0.391587 0.484142 -0.018768
C6    C     C_R   0.057641 0.420385 0.362847 -0.016418
C7    C     C_R   0.025658 0.442384 0.244445 -0.157648
C8    C     C_R   0.965689 0.440922 0.247302 -0.147867
C9    C     C_R   0.121130 0.380612 0.599564 0.523334
C10   C     C_R   0.117859 0.430363 0.364344 0.522117
C11   C     C_R   0.230663 0.560286 0.491590 0.000307
C12   C     C_R   0.389552 0.497140 0.499287 0.894812
C13   C     C_R   0.290603 0.580628 0.497084 -0.111018
C14   C     C_R   0.327584 0.476637 0.497057 -0.137052
C15   C     C_R   0.305085 0.352391 0.491325 0.105640
C16   C     C_R   0.245489 0.334437 0.484338 -0.127887
C17   C     C_R   0.208643 0.436729 0.484670 0.219685
C18   C     C_R   0.748763 0.327870 0.476282 0.217721
C19   C     C_R   0.690073 0.355417 0.477814 -0.245212
C20   C     C_R   0.671824 0.478032 0.501644 -0.098655
C21   C     C_R   0.711905 0.575548 0.525238 -0.040300
C22   C     C_R   0.770529 0.548679 0.524405 -0.167097
C23   C     C_R   0.502215 0.739971 0.499980 0.890283
C24   C     C_R   0.788974 0.426043 0.499808 0.273320
C25   C     C_R   0.514129 0.064264 0.622697 0.147977
C26   C     C_R   0.513017 0.129178 0.500754 -0.104813
C27   C     C_R   0.523515 0.065673 0.379675 -0.229202
C28   C     C_R   0.523334 0.935800 0.379606 -0.212175
C29   C     C_R   0.512629 0.871538 0.500620 -0.090950
C30   C     C_R   0.513940 0.936159 0.622672 0.130379
C31   C     C_3   0.474033 0.927921 0.740030 -0.480176
C32   C     C_3   0.474171 0.070225 0.739799 -0.484347
C33   C     C_R   0.457821 0.437453 0.070453 0.155076
C34   C     C_R   0.610479 0.499775 0.500586 0.879188
C35   C     C_R   0.542743 0.557307 0.074792 -0.141189
C36   C     C_R   0.542644 0.560641 0.931595 0.180215
C37   C     C_R   0.458590 0.433503 0.927805 0.153107
C38   C     C_3   0.394713 0.456228 0.921586 -0.087013
C39   C     C_3   0.395193 0.467110 0.074522 -0.454305
C40   C     C_R   0.876716 0.423355 0.374311 0.514626
C41   C     C_R   0.878443 0.372925 0.609679 0.487451
C42   C     C_R   0.939161 0.363594 0.609794 -0.058532
C43   C     C_R   0.968157 0.389379 0.487362 -0.029073
C44   C     C_R   0.936656 0.416675 0.368364 -0.011585
H1    H     H_    0.658358 0.281031 0.460572 0.147075
H2    H     H_    0.802270 0.622993 0.541122 0.150175
H3    H     H_    0.527410 0.114970 0.284446 0.174264
H4    H     H_    0.527148 0.886888 0.284332 0.169101
H5    H     H_    0.431291 0.885481 0.713085 0.219501
H6    H     H_    0.495362 0.887282 0.830861 0.199720
H7    H     H_    0.431606 0.110342 0.712003 0.208066
H8    H     H_    0.495498 0.112091 0.830540 0.206628
H9    H     H_    0.576107 0.606508 0.131989 0.161222
H10   H     H_    0.057050 0.316675 0.813247 0.193618
H11   H     H_    0.384513 0.546750 0.870990 0.163428
H12   H     H_    0.387764 0.564670 0.109825 0.191993
H13   H     H_    0.369448 0.395872 0.129395 0.216220
H14   H     H_    0.046797 0.463743 0.150012 0.193292
H15   H     H_    0.942200 0.461739 0.155020 0.199775
H16   H     H_    0.227263 0.240162 0.480626 0.156681
N1    N     N_R   0.849428 0.404222 0.493921 -0.356002
N2    N     N_R   0.147854 0.413789 0.482316 -0.351021
N3    N     N_R   0.499610 0.499140 0.142800 -0.124292
N4    N     N_R   0.499610 0.499180 0.857150 -0.142206
O1    O     O_R   0.500010 0.316790 0.614690 -0.617203
O2    O     O_2   0.848279 0.353666 0.723669 -0.545688
O3    O     O_2   0.152742 0.362049 0.712971 -0.555172
O4    O     O_2   0.146318 0.458540 0.249841 -0.546633
O5    O     O_R   0.500000 0.316760 0.385350 -0.616305
O6    O     O_R   0.416160 0.499980 0.614700 -0.637687
O7    O     O_R   0.416150 0.499940 0.385360 -0.600511
O8    O     O_R   0.500000 0.683240 0.614650 -0.639076
O9    O     O_R   0.499990 0.683210 0.385310 -0.619699
O10   O     O_R   0.583850 0.500060 0.614640 -0.620725
O11   O     O_R   0.583840 0.500020 0.385300 -0.614159
O12   O     O_2   0.845739 0.451380 0.262273 -0.551902
Zn1   Zn    Zn3+2 0.500000 0.500020 0.653130 0.929638
Zn2   Zn    Zn3+2 0.500000 0.499980 0.346870 0.946121
C45   C     C_1   0.946598 0.298421 0.854210 0.271413
N5    N     N_1   0.926287 0.269947 0.956159 -0.165436
C46   C     C_1   0.693743 0.703166 0.547069 0.136434
N6    N     N_1   0.679068 0.805316 0.564531 -0.214754
C47   C     C_3   0.589091 0.641270 0.868513 -0.387381
C48   C     C_3   0.648013 0.578611 0.878698 -0.787852
H17   H     H_    0.646746 0.484733 0.829999 0.277635
H18   H     H_    0.680976 0.638109 0.828070 0.254547
H19   H     H_    0.661289 0.567250 0.986018 0.249680
H20   H     H_    0.579236 0.666221 0.763581 0.263703
H21   H     H_    0.591642 0.732851 0.922346 0.170806
C49   C     C_3   0.358743 0.344965 0.863062 -0.321644
C50   C     C_3   0.365016 0.218582 0.936009 -0.864359
H22   H     H_    0.410956 0.197967 0.958277 0.255426
H23   H     H_    0.340218 0.217188 0.031120 0.261801
H24   H     H_    0.347037 0.142475 0.870779 0.249398
H25   H     H_    0.312416 0.370821 0.861821 0.232505
H26   H     H_    0.371599 0.331259 0.757200 0.215444
C51   C     C_1   0.191389 0.664964 0.494621 0.217463
N7    N     N_1   0.159956 0.748508 0.497031 -0.182769
C52   C     C_1   0.314250 0.707507 0.503155 0.169105
N8    N     N_1   0.333202 0.808582 0.507981 -0.221736
C53   C     C_3   0.342705 0.236867 0.497661 -0.433213
C54   C     C_3   0.349289 0.176657 0.359258 -0.813186
H27   H     H_    0.306395 0.154544 0.313278 0.262175
H28   H     H_    0.373771 0.240730 0.292054 0.257879
H29   H     H_    0.373801 0.088151 0.369800 0.258221
H30   H     H_    0.386263 0.259031 0.538378 0.194584
H31   H     H_    0.323359 0.167077 0.568064 0.214297
C55   C     C_3   0.767094 0.194358 0.449889 -0.410132
C56   C     C_3   0.756337 0.157832 0.302710 -0.799739
H32   H     H_    0.709609 0.162476 0.276992 0.251912
H33   H     H_    0.780871 0.221663 0.234886 0.294833
H34   H     H_    0.770917 0.060192 0.285975 0.252993
H35   H     H_    0.813535 0.180954 0.473745 0.217114
H36   H     H_    0.742494 0.129383 0.516500 0.217749

loop_
_geom_bond_atom_site_label_1
_geom_bond_atom_site_label_2
_ccdc_geom_bond_type
C53   H31   S    
C24   N1    S    
C35   H9    S    
C41   C42   A    
C19   C20   A    
C48   H19   S    
C41   N1    A    
C51   N7    T    
C49   H25   S    
C26   C27   A    
C33   C39   S    
C47   C48   S    
C18   C24   A    
C23   C29   S    
C28   C29   A    
C37   C38   S    
C31   H5    S    
C56   H33   S    
C8    H15   S    
C30   C31   S    
C3    H10   S    
C36   C47   S    
C15   C16   A    
C39   H13   S    
C25   C30   A    
C55   C56   S    
C54   H29   S    
C18   C19   A    
C16   H16   S    
C55   H36   S    
C32   H8    S    
C2    C45   S    
O8    Zn1   S    
C11   C17   A    
C38   H11   S    
C52   N8    T    
C16   C17   A    
O10   Zn1   S    
C1    O1    A    
O9    Zn2   S    
C13   C14   A    
C7    H14   S    
C34   O11   A    
C20   C34   S    
C25   C32   S    
C47   H20   S    
C5    C43   A    
C21   C22   A    
O6    Zn1   S    
O5    Zn2   S    
C10   N2    A    
C23   O9    A    
C46   N6    T    
C18   C55   S    
C38   C39   S    
C47   H21   S    
O1    Zn1   S    
C9    N2    A    
C53   C54   S    
C7    C8    A    
C48   H17   S    
C56   H34   S    
C50   H22   S    
C25   C26   A    
C1    O5    A    
C40   N1    A    
C40   O12   S    
C35   C36   A    
C55   H35   S    
C13   C52   S    
C43   C44   A    
C9    O3    S    
C32   H7    S    
C29   C30   A    
C17   N2    S    
C50   H23   S    
C39   H12   S    
C33   N3    A    
C21   C46   S    
C15   C53   S    
C54   H28   S    
C6    C7    A    
C34   O10   A    
C22   H2    S    
C12   O7    A    
C12   C14   S    
C1    C26   S    
C22   C24   A    
C42   C43   A    
C31   H6    S    
C3    C4    A    
C37   N4    A    
C27   H3    S    
C53   H30   S    
C12   O6    A    
C28   H4    S    
C23   O8    A    
C31   C32   S    
C8    C44   A    
C48   H18   S    
C4    C5    A    
C6    C10   A    
C19   H1    S    
C49   H26   S    
C41   O2    S    
C10   O4    S    
C38   C49   S    
C11   C51   S    
C2    C3    A    
C56   H32   S    
C50   H24   S    
C11   C13   A    
C49   C50   S    
C5    C6    A    
C2    C42   A    
C54   H27   S    
O11   Zn2   S    
C33   C37   A    
C45   N5    T    
C40   C44   A    
C20   C21   A    
C27   C28   A    
N4    Zn1   S    
C14   C15   A    
C35   N3    A    
C4    C9    A    
C36   N4    A    
O7    Zn2   S    
N3    Zn2   S    
