data_mof_unit_12616.cif
_audit_creation_date              2013-03-05T15:53:19-0500
_audit_creation_method            fapswitch 2.2
_symmetry_space_group_name_H-M    P1
_symmetry_Int_Tables_number       1
_space_group_crystal_system       triclinic
_cell_length_a                    27.289903
_cell_length_b                    7.229782
_cell_length_c                    22.732883
_cell_angle_alpha                 90.064193
_cell_angle_beta                  101.136097
_cell_angle_gamma                 90.082735
_cell_volume                      4400.73886612

loop_
_atom_site_label
_atom_site_type_symbol
_atom_site_description
_atom_site_fract_x
_atom_site_fract_y
_atom_site_fract_z
_atom_type_partial_charge
O1    O     O_R   0.207310 0.594030 0.676830 -0.576767
O2    O     O_R   0.792690 0.405970 0.323170 -0.577538
O3    O     O_R   0.292690 0.094030 0.823170 -0.572373
O4    O     O_R   0.707310 0.905970 0.176830 -0.590098
O5    O     O_R   0.197320 0.262370 0.795700 -0.571183
O6    O     O_R   0.802680 0.737630 0.204300 -0.571172
O7    O     O_R   0.302680 0.762370 0.704300 -0.572885
O8    O     O_R   0.697320 0.237630 0.295700 -0.562858
C1    C     C_R   0.184480 0.433467 0.811800 0.969529
C2    C     C_R   0.815536 0.566536 0.188223 0.969609
C3    C     C_R   0.315511 0.933514 0.688197 0.966658
C4    C     C_R   0.684506 0.066496 0.311827 0.977800
O9    O     O_R   0.201410 0.264250 0.675590 -0.591604
O10   O     O_R   0.798590 0.735750 0.324410 -0.590085
O11   O     O_R   0.298590 0.764250 0.824410 -0.590100
O12   O     O_R   0.701410 0.235750 0.175590 -0.578856
O13   O     O_R   0.296810 0.094940 0.702210 -0.538674
O14   O     O_R   0.703190 0.905060 0.297790 -0.549188
O15   O     O_R   0.203190 0.594940 0.797790 -0.540595
O16   O     O_R   0.796810 0.405060 0.202210 -0.539919
C5    C     C_R   0.189788 0.432497 0.653724 1.038821
C6    C     C_R   0.810206 0.567503 0.346282 1.039566
C7    C     C_R   0.310407 0.932733 0.846275 1.037758
C8    C     C_R   0.689646 0.066833 0.153742 1.046155
O17   O     O_3   0.281300 0.427390 0.758870 -0.244608
O18   O     O_3   0.718700 0.572610 0.241130 -0.250971
O19   O     O_3   0.218700 0.927390 0.741130 -0.249117
O20   O     O_3   0.781300 0.072610 0.258870 -0.248784
V1    V     V_3+5 0.244190 0.152150 0.748350 1.323372
V2    V     V_3+5 0.755810 0.847850 0.251650 1.309973
V3    V     V_3+5 0.255810 0.652150 0.751650 1.319436
V4    V     V_3+5 0.744190 0.347850 0.248350 1.326105
C9    C     C_R   0.654136 0.054510 0.095868 -0.257019
C10   C     C_R   0.346240 0.936889 0.904125 -0.257274
C11   C     C_R   0.846139 0.561229 0.403767 -0.255689
C12   C     C_R   0.153751 0.438770 0.596323 -0.254934
C13   C     C_R   0.642506 0.010740 0.988704 -0.149594
C14   C     C_R   0.362167 0.859918 0.009495 -0.146814
C15   C     C_R   0.861663 0.631851 0.509526 -0.147933
C16   C     C_R   0.138069 0.368795 0.490512 -0.151747
C17   C     C_R   0.673724 0.023283 0.044522 -0.199391
C18   C     C_R   0.330360 0.863926 0.953988 -0.182969
C19   C     C_R   0.828580 0.605107 0.455651 -0.203037
C20   C     C_R   0.171250 0.396152 0.544287 -0.204158
C21   C     C_R   0.601688 0.068904 0.091323 0.271816
C22   C     C_R   0.395949 0.002924 0.909793 0.264395
C23   C     C_R   0.897954 0.534029 0.406464 0.271437
C24   C     C_R   0.101911 0.464887 0.593827 0.270932
C25   C     C_R   0.568842 0.029685 0.035113 -0.048681
C26   C     C_R   0.431206 0.974332 0.964943 -0.046314
C27   C     C_R   0.931747 0.536573 0.463535 -0.052560
C28   C     C_R   0.068012 0.461946 0.536846 -0.052602
C29   C     C_R   0.590239 0.014071 0.983000 0.126705
C30   C     C_R   0.412440 0.914299 0.015966 0.126336
C31   C     C_R   0.913231 0.603523 0.513940 0.124920
C32   C     C_R   0.086468 0.394779 0.486457 0.123719
C33   C     C_R   0.516002 0.998245 0.028917 0.066318
C34   C     C_R   0.484427 0.995143 0.970926 0.070275
C35   C     C_R   0.983241 0.479966 0.472493 0.059800
C36   C     C_R   0.016505 0.518493 0.527912 0.058232
C37   C     C_R   0.507484 0.987505 0.920680 -0.122975
C38   C     C_R   0.495058 0.945025 0.078246 -0.117913
C39   C     C_R   0.997788 0.620049 0.571517 -0.129631
C40   C     C_R   0.001933 0.378103 0.428928 -0.129354
C41   C     C_R   0.559376 0.994860 0.926012 -0.010799
C42   C     C_R   0.444404 0.901760 0.072426 -0.003973
C43   C     C_R   0.946660 0.650429 0.567148 -0.002639
C44   C     C_R   0.053012 0.346673 0.433446 -0.003844
H1    H     H_    0.292433 0.813686 0.950211 0.162130
H2    H     H_    0.713754 0.013373 0.047491 0.165134
H3    H     H_    0.210729 0.372757 0.546072 0.166843
H4    H     H_    0.789137 0.629971 0.453663 0.165815
H5    H     H_    0.659808 0.992663 0.950059 0.138694
H6    H     H_    0.347316 0.807561 0.047090 0.139019
H7    H     H_    0.846438 0.677662 0.547637 0.136867
H8    H     H_    0.153182 0.324815 0.452101 0.142265
H9    H     H_    0.485894 0.958939 0.876740 0.169693
H10   H     H_    0.518511 0.920050 0.121333 0.173598
H11   H     H_    0.022538 0.678348 0.609693 0.176639
H12   H     H_    0.977176 0.318614 0.390952 0.175786
C45   C     C_R   0.628105 0.876972 0.367518 0.403382
C46   C     C_R   0.371845 0.123148 0.632435 0.416893
C47   C     C_R   0.871640 0.377018 0.132182 0.417450
C48   C     C_R   0.128349 0.623034 0.867795 0.415101
C49   C     C_R   0.592394 0.867488 0.404193 -0.270939
C50   C     C_R   0.407560 0.132687 0.595761 -0.274947
C51   C     C_R   0.907323 0.367519 0.095472 -0.271574
C52   C     C_R   0.092650 0.632548 0.904483 -0.271454
H13   H     H_    0.580694 0.732415 0.416881 0.140486
H14   H     H_    0.419249 0.267776 0.583074 0.140033
H15   H     H_    0.918827 0.232439 0.082568 0.140080
H16   H     H_    0.081094 0.767634 0.917313 0.140222
C53   C     C_R   0.571945 0.027936 0.424265 0.080463
C54   C     C_R   0.427996 0.972268 0.575654 0.081514
C55   C     C_R   0.927998 0.527949 0.075650 0.080817
C56   C     C_R   0.072035 0.472126 0.924392 0.080577
C57   C     C_R   0.587915 0.200109 0.406236 -0.138869
C58   C     C_R   0.411994 0.800067 0.593618 -0.136130
C59   C     C_R   0.912236 0.700133 0.093901 -0.132233
C60   C     C_R   0.087871 0.299928 0.906247 -0.132664
H17   H     H_    0.572879 0.327365 0.420542 0.134331
H18   H     H_    0.426991 0.672826 0.579246 0.134452
H19   H     H_    0.927421 0.827387 0.079751 0.134036
H20   H     H_    0.072744 0.172680 0.920481 0.134005
C61   C     C_R   0.623729 0.210675 0.369582 -0.111011
C62   C     C_R   0.376189 0.789445 0.630280 -0.136887
C63   C     C_R   0.876437 0.710714 0.130574 -0.125116
C64   C     C_R   0.123676 0.289323 0.869585 -0.122061
H21   H     H_    0.634916 0.344708 0.356898 0.227157
H22   H     H_    0.364941 0.655391 0.642860 0.228093
H23   H     H_    0.865375 0.844743 0.143379 0.227011
H24   H     H_    0.134811 0.155279 0.856886 0.226873
C65   C     C_R   0.644981 0.050894 0.349741 -0.274902
C66   C     C_R   0.354992 0.949188 0.650222 -0.278042
C67   C     C_R   0.855023 0.550952 0.150256 -0.275703
C68   C     C_R   0.145020 0.449079 0.849800 -0.275893
N1    N     N_R   0.514159 0.167840 0.483746 -0.076779
N2    N     N_R   0.485779 0.832396 0.516169 -0.077223
N3    N     N_R   0.986034 0.667786 0.016445 -0.076389
N4    N     N_R   0.013997 0.332301 0.983593 -0.076363
N5    N     N_R   0.480618 0.154288 0.519140 -0.075172
N6    N     N_R   0.519320 0.845948 0.480776 -0.075424
N7    N     N_R   0.019599 0.654191 0.981088 -0.074679
N8    N     N_R   0.980431 0.345897 0.018949 -0.074655
C69   C     C_R   0.465647 0.986364 0.536199 0.137917
C70   C     C_R   0.534292 0.013869 0.463717 0.139242
C71   C     C_R   0.034364 0.486248 0.963818 0.140402
C72   C     C_R   0.965666 0.513838 0.036221 0.140470
N9    N     N_3   0.581020 0.980179 0.873228 -0.211010
H25   H     H_    0.553818 0.948566 0.835460 0.135615
H26   H     H_    0.595146 0.110522 0.865478 0.122885
N10   N     N_3   0.425332 0.841861 0.124079 -0.204897
H27   H     H_    0.454291 0.821995 0.160979 0.145861
H28   H     H_    0.403300 0.949016 0.135672 0.119784
N11   N     N_3   0.928745 0.736988 0.615990 -0.206573
H29   H     H_    0.958433 0.786451 0.648336 0.150658
H30   H     H_    0.911182 0.634510 0.636927 0.122150
N12   N     N_3   0.070822 0.257312 0.385025 -0.207337
H31   H     H_    0.042576 0.249496 0.346791 0.154476
H32   H     H_    0.080071 0.121345 0.398319 0.122934
N13   N     N_R   0.408424 0.114831 0.862548 0.223204
O21   O     O_R   0.429638 0.275241 0.874904 -0.370900
O22   O     O_R   0.398533 0.057962 0.807186 -0.423597
N14   N     N_R   0.582832 0.144569 0.141076 0.218622
O23   O     O_R   0.551336 0.281416 0.132631 -0.376141
O24   O     O_R   0.597361 0.079246 0.194920 -0.435637
N15   N     N_R   0.083807 0.460474 0.649118 0.205607
O25   O     O_R   0.101920 0.572480 0.692778 -0.408087
O26   O     O_R   0.050662 0.337984 0.656897 -0.388899
N16   N     N_R   0.916198 0.537721 0.351259 0.205808
O27   O     O_R   0.949382 0.660025 0.343455 -0.387670
O28   O     O_R   0.898083 0.425576 0.307640 -0.407282
N17   N     N_R   0.646343 0.706666 0.348644 0.217812
O29   O     O_R   0.626655 0.638124 0.296464 -0.369372
O30   O     O_R   0.686072 0.631669 0.380471 -0.469094
N18   N     N_R   0.353506 0.293435 0.651189 0.217708
O31   O     O_R   0.373275 0.362833 0.703214 -0.351026
O32   O     O_R   0.313760 0.368099 0.619287 -0.470534
N19   N     N_R   0.853113 0.206701 0.150710 0.218282
O33   O     O_R   0.872533 0.137797 0.202844 -0.354864
O34   O     O_R   0.813721 0.130717 0.118228 -0.470988
N20   N     N_R   0.146833 0.793356 0.849206 0.218172
O35   O     O_R   0.127214 0.862520 0.797182 -0.355295
O36   O     O_R   0.186422 0.868841 0.881413 -0.469205

loop_
_geom_bond_atom_site_label_1
_geom_bond_atom_site_label_2
_geom_bond_distance
_ccdc_geom_bond_type
O17   V3    1.763831 S    
C59   H19   1.082898 S    
C52   C56   1.401484 A    
O1    C5    1.329810 A    
C19   H4    1.083857 S    
C51   H15   1.083596 S    
O19   V1    1.761640 S    
C9    C21   1.418950 A    
O3    C7    1.332082 A    
N15   O25   1.301027 A    
C10   C18   1.393355 A    
C60   H20   1.082875 S    
C11   C23   1.417504 A    
N4    C71   1.358558 A    
C45   N17   1.425094 S    
N11   H29   1.045675 S    
C5    C12   1.475311 S    
C39   H11   1.076547 S    
O7    C3    1.355319 A    
C6    C11   1.475349 S    
C35   C40   1.406394 A    
C26   C30   1.423373 A    
C62   C66   1.405700 A    
C36   C39   1.406283 A    
C40   C44   1.396759 A    
C61   C65   1.405736 A    
N18   O31   1.301120 A    
N15   O26   1.301358 A    
C44   N12   1.439191 S    
C14   C18   1.386937 A    
N13   O22   1.301202 A    
C62   H22   1.071905 S    
O4    C8    1.328784 A    
C55   C59   1.405763 A    
C54   C58   1.405673 A    
C24   N15   1.436978 S    
O1    V3    1.987093 S    
O13   V1    1.978862 S    
C20   H3    1.083822 S    
O2    V4    1.987097 S    
N2    N6    1.333866 A    
C32   C44   1.407096 A    
O3    V1    1.988711 S    
C3    C66   1.509333 S    
N1    N5    1.333889 A    
C53   C70   1.492138 S    
C13   H5    1.082578 S    
C50   C54   1.401520 A    
N5    C69   1.360899 A    
C49   C53   1.401518 A    
C55   C72   1.492157 S    
C1    O15   1.336752 A    
C15   C31   1.406678 A    
C52   H16   1.083578 S    
C37   H9    1.076765 S    
N10   H27   1.045630 S    
C16   C32   1.406195 A    
C51   C55   1.401499 A    
O2    C6    1.329814 A    
C21   N14   1.437910 S    
N19   O34   1.301302 A    
C10   C22   1.419589 A    
N2    C69   1.358517 A    
C15   H7    1.082471 S    
N17   O30   1.300970 A    
C11   C19   1.392591 A    
N1    C70   1.358533 A    
C16   C20   1.387381 A    
N20   O36   1.301150 A    
N8    C72   1.360955 A    
C13   C29   1.407311 A    
N3    C72   1.358563 A    
C34   C37   1.407566 A    
O11   C7    1.330565 A    
O15   V3    1.978492 S    
C35   C36   1.430213 A    
O12   C8    1.333068 A    
C40   H12   1.076921 S    
O10   V2    2.003869 S    
C4    C65   1.509308 S    
C22   N13   1.437488 S    
O5    V1    1.990611 S    
C39   C43   1.397245 A    
C60   C64   1.403538 A    
O7    V3    1.990097 S    
C38   C42   1.397925 A    
C26   C34   1.440014 A    
C47   C67   1.424167 A    
C33   C38   1.407182 A    
C46   C66   1.424128 A    
N14   O24   1.301102 A    
C50   H14   1.083560 S    
C2    O16   1.336808 A    
C49   H13   1.083556 S    
O18   V4    1.763831 S    
C23   C27   1.439352 A    
C46   C50   1.401256 A    
C18   H1    1.084016 S    
O4    V2    1.988706 S    
C16   H8    1.082824 S    
C56   C71   1.492157 S    
N4    N8    1.333876 A    
O8    V4    1.990098 S    
N6    C70   1.360886 A    
C43   N11   1.439616 S    
O5    C1    1.355231 A    
C37   C41   1.398707 A    
C41   N9    1.440010 S    
C31   C43   1.407925 A    
N19   O33   1.301193 A    
C14   C30   1.406677 A    
C23   N16   1.436985 S    
C21   C25   1.439682 A    
O8    C4    1.355278 A    
C7    C10   1.479750 S    
C29   C41   1.408831 A    
O9    C5    1.329980 A    
C63   C67   1.405730 A    
N12   H32   1.045604 S    
O14   V2    1.978868 S    
N10   H28   1.045578 S    
O6    V2    1.990611 S    
N16   O28   1.301029 A    
C48   C68   1.424218 A    
C12   C20   1.392902 A    
C27   C35   1.440503 A    
C4    O14   1.337076 A    
C53   C57   1.405687 A    
N7    C71   1.360960 A    
C48   N20   1.425152 S    
N20   O35   1.301109 A    
O16   V4    1.978489 S    
C54   C69   1.492134 S    
O9    V1    2.003868 S    
N11   H30   1.045504 S    
C61   H21   1.071982 S    
C3    O13   1.337050 A    
C1    C68   1.509350 S    
C63   H23   1.071904 S    
C38   H10   1.077126 S    
C48   C52   1.401205 A    
N14   O23   1.301395 A    
C47   C51   1.401199 A    
O6    C2    1.355188 A    
C25   C33   1.439249 A    
C15   C19   1.387199 A    
O11   V3    2.001006 S    
C30   C42   1.408731 A    
N3    N7    1.333887 A    
O12   V4    2.001002 S    
C59   C63   1.403555 A    
C22   C26   1.440660 A    
C8    C9    1.478171 S    
C58   C62   1.403476 A    
C42   N10   1.440073 S    
C9    C17   1.392813 A    
O10   C6    1.329996 A    
O20   V2    1.761640 S    
N9    H25   1.045616 S    
C57   C61   1.403506 A    
C58   H18   1.082857 S    
N13   O21   1.301360 A    
C64   C68   1.405702 A    
C33   C34   1.428985 A    
C25   C29   1.422758 A    
C56   C60   1.405729 A    
N18   O32   1.300984 A    
C14   H6    1.082597 S    
C12   C24   1.417749 A    
C27   C31   1.423278 A    
C13   C17   1.387823 A    
C45   C49   1.401211 A    
N12   H31   1.045840 S    
C64   H24   1.071899 S    
C24   C28   1.439166 A    
C47   N19   1.425100 S    
C28   C36   1.440730 A    
C45   C65   1.424033 A    
C46   N18   1.425126 S    
N16   O27   1.301360 A    
N17   O29   1.301159 A    
C57   H17   1.082850 S    
C2    C67   1.509365 S    
C28   C32   1.422669 A    
C17   H2    1.083901 S    
N9    H26   1.045586 S    
