data_mof_unit_30866.cif
_audit_creation_date              2012-12-10T20:30:14-0500
_audit_creation_method            fapswitch 2.2
_symmetry_space_group_name_H-M    P1
_symmetry_Int_Tables_number       1
_space_group_crystal_system       triclinic
_cell_length_a                    9.912117
_cell_length_b                    10.706331
_cell_length_c                    13.039777
_cell_angle_alpha                 91.105127
_cell_angle_beta                  69.24171
_cell_angle_gamma                 90.176286
_cell_volume                      1293.72969425

loop_
_atom_site_label
_atom_site_type_symbol
_atom_type_description
_atom_site_fract_x
_atom_site_fract_y
_atom_site_fract_z
_atom_type_partial_charge
C1    C     C_R   0.500737 0.739744 0.499354 0.921247
C2    C     C_R   0.364156 0.496133 0.824431 -0.084144
C3    C     C_R   0.400142 0.934026 0.465274 0.067545
C4    C     C_R   0.418846 0.496660 0.704763 0.865612
C5    C     C_R   0.508790 0.870917 0.486956 -0.071430
C6    C     C_R   0.631033 0.935733 0.488768 -0.199084
C7    C     C_R   0.630959 0.064524 0.487334 -0.174727
C8    C     C_R   0.509246 0.127916 0.483010 -0.086997
C9    C     C_R   0.400930 0.061040 0.461026 0.057877
C10   C     C_3   0.238465 0.068707 0.506244 0.436944
C11   C     C_3   0.239761 0.926343 0.515705 -0.550795
C12   C     C_R   0.432479 0.492043 0.984972 0.137851
C13   C     C_R   0.897479 0.578331 0.569064 0.137166
C14   C     C_R   0.967969 0.440094 0.418563 -0.013810
C15   C     C_R   0.111068 0.441480 0.419106 -0.138955
C16   C     C_R   0.501225 0.260017 0.497125 0.918037
C17   C     C_R   0.038975 0.577306 0.569651 0.224091
C18   C     C_3   0.989617 0.584105 0.691555 -0.582910
C19   C     C_3   0.835585 0.586600 0.691328 -0.254989
C20   C     C_R   0.580704 0.499228 0.295368 0.952493
C21   C     C_R   0.738362 0.330782 0.029298 -0.190221
C22   C     C_R   0.631587 0.480018 0.177284 -0.132004
C23   C     C_R   0.449682 0.445607 0.879407 0.116798
C24   C     C_R   0.239505 0.564689 0.883411 -0.208398
C25   C     C_R   0.206185 0.589711 0.994851 -0.106088
C26   C     C_R   0.303329 0.556258 0.045149 -0.069729
C27   C     C_3   0.036875 0.130231 0.658456 -0.248877
C28   C     C_2   0.177673 0.111705 0.420890 0.854280
C29   C     C_2   0.947033 0.373499 0.325647 0.927490
C30   C     C_2   0.756296 0.708111 0.731746 0.992572
C31   C     C_2   0.511304 0.670308 0.139013 0.874742
C32   C     C_R   0.542417 0.467759 0.027691 0.043516
C33   C     C_R   0.643343 0.370325 0.978863 0.166568
C34   C     C_R   0.645704 0.311616 0.881814 -0.247720
C35   C     C_R   0.552500 0.351187 0.830844 -0.226897
C36   C     C_R   0.555152 0.535655 0.117771 -0.113243
C37   C     C_R   0.726443 0.380669 0.131155 -0.196246
H1    H     H_    0.784512 0.336448 0.176546 0.193431
H2    H     H_    0.813323 0.254541 0.994429 0.144266
H3    H     H_    0.170865 0.602302 0.842744 0.153628
H4    H     H_    0.275566 0.579261 0.131320 0.150352
H5    H     H_    0.108615 0.640528 0.041048 0.158471
H6    H     H_    0.559483 0.305796 0.754176 0.163184
H7    H     H_    0.722026 0.888392 0.498609 0.206908
H8    H     H_    0.992410 0.035663 0.653672 0.212614
H9    H     H_    0.986237 0.200452 0.621637 0.181416
H10   H     H_    0.007120 0.155732 0.746591 0.169599
H11   H     H_    0.009992 0.108692 0.367611 0.363200
H12   H     H_    0.721465 0.113464 0.497269 0.217340
H13   H     H_    0.028338 0.334917 0.162691 0.336533
H14   H     H_    0.572043 0.792434 0.827570 0.354492
H15   H     H_    0.479473 0.833728 0.075995 0.349845
H16   H     H_    0.203892 0.893235 0.601568 0.216238
H17   H     H_    0.192622 0.874389 0.461822 0.214048
H18   H     H_    0.196727 0.393709 0.354885 0.216779
H19   H     H_    0.015259 0.497427 0.726753 0.211039
H20   H     H_    0.024763 0.671959 0.721322 0.212414
H21   H     H_    0.773065 0.502719 0.728275 0.180523
H22   H     H_    0.722037 0.237216 0.843851 0.147863
N1    N     N_R   0.856940 0.500860 0.500710 -0.157772
N2    N     N_R   0.142580 0.500820 0.500710 -0.115741
O1    O     O_R   0.385310 0.683210 0.499990 -0.595041
O2    O     O_2   0.254470 0.166158 0.339409 -0.646623
O3    O     O_R   0.035643 0.081969 0.432541 -0.835114
O4    O     O_2   0.851977 0.296113 0.341048 -0.639510
O5    O     O_R   0.045934 0.391677 0.219720 -0.836810
O6    O     O_2   0.813330 0.807873 0.697099 -0.665527
O7    O     O_R   0.615859 0.705851 0.808111 -0.776496
O8    O     O_2   0.483270 0.718261 0.230110 -0.636247
O9    O     O_R   0.509098 0.744127 0.052300 -0.778953
O10   O     O_R   0.614650 0.683240 0.500000 -0.627252
O11   O     O_R   0.328390 0.499940 0.653610 -0.616154
O12   O     O_R   0.557730 0.499980 0.653620 -0.613637
O13   O     O_R   0.385350 0.316760 0.500000 -0.579406
O14   O     O_R   0.614690 0.316790 0.500010 -0.597635
O15   O     O_R   0.442270 0.500020 0.346380 -0.592227
O16   O     O_R   0.671610 0.500060 0.346390 -0.605833
O17   O     O_3   0.188633 0.134456 0.608633 -0.614571
Zn1   Zn    Zn3+2 0.346870 0.499980 0.499990 0.997150
Zn2   Zn    Zn3+2 0.653130 0.500020 0.500010 0.981649

loop_
_geom_bond_atom_site_label_1
_geom_bond_atom_site_label_2
_ccdc_geom_bond_type
C16   O14   A    
O15   Zn1   S    
C27   O17   S    
C1    O1    A    
C10   O17   S    
C7    C8    A    
C13   N1    A    
C12   C23   A    
C1    O10   A    
C20   O16   A    
C1    C5    S    
C32   C36   A    
C18   C19   S    
O11   Zn1   S    
C5    C6    A    
H11   O3    S    
C21   C33   A    
C10   C28   S    
C20   O15   A    
C34   C35   A    
C17   N2    A    
C31   O9    S    
C8    C9    A    
C35   H6    S    
O14   Zn2   S    
C30   O6    D    
C11   H16   S    
C18   H19   S    
C27   H8    S    
C8    C16   S    
C6    H7    S    
C12   C32   A    
O10   Zn2   S    
C33   C34   A    
C19   H21   S    
C13   C19   S    
O1    Zn1   S    
C3    C11   S    
C24   C25   A    
C7    H12   S    
C25   C26   A    
C22   C37   A    
C12   C26   A    
C15   H18   S    
C2    C4    S    
C37   H1    S    
C3    C9    A    
C18   H20   S    
C21   H2    S    
C17   C18   S    
C15   N2    A    
H13   O5    S    
C4    O12   A    
C11   H17   S    
C29   O4    D    
C28   O3    S    
C27   H9    S    
C20   C22   S    
C23   C35   A    
O13   Zn1   S    
C2    C24   A    
C34   H22   S    
C16   O13   A    
C14   C29   S    
C4    O11   A    
C22   C36   A    
C9    C10   S    
O16   Zn2   S    
C27   H10   S    
N1    Zn2   S    
C14   C15   A    
C3    C5    A    
C25   H5    S    
C6    C7    A    
C14   N1    A    
C13   C17   A    
C32   C33   A    
N2    Zn1   S    
C24   H3    S    
O12   Zn2   S    
H14   O7    S    
H15   O9    S    
C10   C11   S    
C29   O5    S    
C28   O2    D    
C31   O8    D    
C21   C37   A    
C2    C23   A    
C31   C36   S    
C19   C30   S    
C30   O7    S    
C26   H4    S    
