data_mof_unit_15176.cif
_audit_creation_date              2012-12-10T19:04:48-0500
_audit_creation_method            fapswitch 2.2
_symmetry_space_group_name_H-M    P1
_symmetry_Int_Tables_number       1
_space_group_crystal_system       triclinic
_cell_length_a                    15.835512
_cell_length_b                    10.831018
_cell_length_c                    9.574735
_cell_angle_alpha                 89.586368
_cell_angle_beta                  89.955043
_cell_angle_gamma                 90.053577
_cell_volume                      1642.16392374

loop_
_atom_site_label
_atom_site_type_symbol
_atom_type_description
_atom_site_fract_x
_atom_site_fract_y
_atom_site_fract_z
_atom_type_partial_charge
C1    C     C_R   0.501170 0.262765 0.500379 0.794183
C2    C     C_3   0.082623 0.493208 0.501204 0.194089
C3    C     C_3   0.972229 0.608985 0.524784 -0.162329
C4    C     C_3   0.917245 0.494137 0.502035 0.202329
C5    C     C_3   0.028102 0.569504 0.400112 -0.161844
C6    C     C_3   0.971562 0.454702 0.377317 -0.158500
C7    C     C_1   0.174407 0.493378 0.500821 -0.084808
C8    C     C_1   0.825509 0.494680 0.502000 -0.092980
C9    C     C_R   0.471282 0.061614 0.612237 0.039116
C10   C     C_R   0.501121 0.129976 0.499561 -0.063076
C11   C     C_R   0.526252 0.065007 0.379489 -0.221059
C12   C     C_R   0.339873 0.498421 0.500081 0.805269
C13   C     C_R   0.522924 0.935759 0.378285 -0.194808
C14   C     C_R   0.492335 0.870000 0.495551 -0.114373
C15   C     C_R   0.460460 0.938295 0.606309 -0.000439
C16   C     C_3   0.423337 0.931054 0.751446 0.282098
C17   C     C_3   0.439818 0.071508 0.758018 -0.458863
C18   C     C_R   0.574136 0.496931 0.073099 0.104713
C19   C     C_R   0.426611 0.493379 0.074199 -0.045794
C20   C     C_R   0.426623 0.493179 0.926053 -0.057039
C21   C     C_R   0.573946 0.497935 0.926347 0.112659
C22   C     C_3   0.645472 0.587761 0.917885 0.208173
C23   C     C_R   0.497050 0.737187 0.499269 0.766567
C24   C     C_3   0.646718 0.585863 0.077988 0.246290
C25   C     C_R   0.660099 0.498501 0.500185 0.802246
C26   C     C_3   0.971742 0.417936 0.603146 -0.157903
C27   C     C_3   0.027620 0.378425 0.478415 -0.151450
C28   C     C_1   0.250071 0.495193 0.500457 -0.189928
C29   C     C_1   0.749863 0.495910 0.501216 -0.225045
C30   C     C_3   0.028297 0.532775 0.625881 -0.170258
Cu1   Cu    Cu3+1 0.500000 0.499980 0.640670 0.958376
Cu2   Cu    Cu3+1 0.500000 0.500020 0.359330 0.973274
H1    H     H_    0.051739 0.283818 0.459378 0.127830
H2    H     H_    0.461128 0.875997 0.827224 0.140810
H3    H     H_    0.381866 0.129160 0.764446 0.219165
H4    H     H_    0.490896 0.097169 0.831948 0.156448
H5    H     H_    0.366809 0.489508 0.128186 0.137711
H6    H     H_    0.366842 0.489108 0.872225 0.135159
H7    H     H_    0.702192 0.544482 0.869265 0.009743
H8    H     H_    0.704017 0.542105 0.124141 0.015452
H9    H     H_    0.947176 0.355808 0.686504 0.125091
H10   H     H_    0.946815 0.422801 0.275290 0.122579
H11   H     H_    0.052637 0.631764 0.316844 0.133050
H12   H     H_    0.948129 0.703582 0.543904 0.125428
H13   H     H_    0.053042 0.564883 0.727826 0.125331
H14   H     H_    0.549806 0.113341 0.287977 0.156624
H15   H     H_    0.545353 0.887863 0.286878 0.195534
N1    N     N_R   0.500530 0.500930 0.147930 -0.149101
N2    N     N_R   0.500530 0.500890 0.852020 -0.150889
O1    O     O_R   0.500000 0.319640 0.618810 -0.580393
O2    O     O_R   0.500010 0.319680 0.381230 -0.589051
O3    O     O_R   0.379070 0.499970 0.618770 -0.598534
O4    O     O_R   0.379080 0.500010 0.381190 -0.587119
O5    O     O_R   0.499990 0.680320 0.618770 -0.561608
O6    O     O_R   0.500000 0.680360 0.381190 -0.536282
O7    O     O_R   0.620920 0.499990 0.618810 -0.580134
O8    O     O_R   0.620930 0.500030 0.381230 -0.567130
O9    O     O_3   0.618852 0.703190 0.862790 -0.545296
C31   C     C_3   0.682932 0.757690 0.779577 0.107279
H16   H     H_    0.676416 0.724269 0.670739 0.162532
H17   H     H_    0.747947 0.736092 0.817292 0.089852
C32   C     C_3   0.672619 0.898022 0.781379 -0.348820
H18   H     H_    0.605661 0.922374 0.763898 0.227403
H19   H     H_    0.691379 0.933738 0.885280 0.195425
C33   C     C_3   0.725875 0.960812 0.668718 -0.935959
H20   H     H_    0.793392 0.935005 0.680308 0.251661
H21   H     H_    0.719958 0.062576 0.677950 0.258491
H22   H     H_    0.703084 0.933611 0.563765 0.269504
O10   O     O_3   0.622730 0.699207 0.138944 -0.536291
C34   C     C_3   0.693507 0.778523 0.150878 0.097965
H23   H     H_    0.670496 0.874960 0.140418 0.146553
H24   H     H_    0.741220 0.765286 0.066707 0.112931
C35   C     C_3   0.735625 0.762750 0.293538 -0.364072
H25   H     H_    0.687393 0.769073 0.377542 0.219453
H26   H     H_    0.765786 0.670632 0.298758 0.218741
C36   C     C_3   0.803540 0.860399 0.316810 -0.954738
H27   H     H_    0.852792 0.854540 0.234451 0.256785
H28   H     H_    0.833832 0.844760 0.419955 0.258779
H29   H     H_    0.775185 0.954174 0.315254 0.259328
O11   O     O_3   0.334714 0.911307 0.764145 -0.596284
C37   C     C_3   0.300923 0.826525 0.667556 0.104272
H30   H     H_    0.251632 0.771756 0.722733 0.154497
H31   H     H_    0.347550 0.758608 0.629225 0.135080
C38   C     C_3   0.258837 0.897264 0.546936 -0.358079
H32   H     H_    0.210398 0.960793 0.589913 0.224601
H33   H     H_    0.306276 0.953860 0.489953 0.229779
C39   C     C_3   0.216592 0.810403 0.443848 -0.926157
H34   H     H_    0.264046 0.747255 0.397655 0.262430
H35   H     H_    0.187126 0.865004 0.358292 0.257362
H36   H     H_    0.166456 0.756093 0.497222 0.260397

loop_
_geom_bond_atom_site_label_1
_geom_bond_atom_site_label_2
_ccdc_geom_bond_type
C39   H34   S    
C18   C21   A    
C35   H26   S    
C35   H25   S    
C30   H13   S    
C19   C20   A    
C38   C39   S    
Cu1   O3    S    
C4    C8    S    
C21   N2    A    
C37   H30   S    
C27   H1    S    
C26   C27   S    
C20   N2    A    
C12   C28   S    
C18   C24   S    
C8    C29   T    
C38   H33   S    
C5    C6    S    
C15   C16   S    
C32   H19   S    
C19   H5    S    
C2    C7    S    
C12   O3    A    
Cu1   Cu2   S    
C16   C17   S    
C33   H21   S    
C25   O7    A    
C34   H23   S    
C17   H4    S    
Cu1   O7    S    
C9    C10   A    
Cu2   O6    S    
C12   O4    A    
C16   H2    S    
C5    H11   S    
C31   H16   S    
C13   C14   A    
Cu2   N1    S    
C25   O8    A    
Cu2   O8    S    
Cu1   N2    S    
C37   H31   S    
C24   O10   S    
C25   C29   S    
C3    H12   S    
C31   H17   S    
C36   H27   S    
C4    C6    S    
C13   H15   S    
C19   N1    A    
O9    C31   S    
C7    C28   T    
C16   O11   S    
C14   C23   S    
C3    C30   S    
Cu2   O2    S    
C32   H18   S    
C20   H6    S    
C6    C27   S    
C33   H22   S    
C34   C35   S    
C38   H32   S    
C1    O2    A    
C2    C27   S    
C9    C17   S    
C26   C30   S    
C39   H35   S    
C35   C36   S    
C22   C24   S    
C2    C5    S    
Cu1   O1    S    
C3    C4    S    
Cu2   O4    S    
C37   C38   S    
C23   O5    A    
C1    O1    A    
C31   C32   S    
C32   C33   S    
C1    C10   S    
C36   H28   S    
O11   C37   S    
C3    C5    S    
C18   N1    A    
C22   O9    S    
C4    C26   S    
C23   O6    A    
C2    C30   S    
C9    C15   A    
C11   C13   A    
C22   H7    S    
C24   H8    S    
Cu1   O5    S    
O10   C34   S    
C10   C11   A    
C36   H29   S    
C33   H20   S    
C6    H10   S    
C39   H36   S    
C14   C15   A    
C11   H14   S    
C34   H24   S    
C17   H3    S    
C21   C22   S    
C26   H9    S    
