data_mof_unit_16393.cif
_audit_creation_date              2012-10-26T19:56:37-0400
_audit_creation_method            fapswitch 2.2
_symmetry_space_group_name_H-M    P1
_symmetry_Int_Tables_number       1
_space_group_crystal_system       triclinic
_cell_length_a                    15.148298
_cell_length_b                    15.701704
_cell_length_c                    9.99777
_cell_angle_alpha                 90.000755
_cell_angle_beta                  59.706667
_cell_angle_gamma                 90.000645
_cell_volume                      2053.30327627

loop_
_atom_site_label
_atom_site_type_symbol
_atom_type_description
_atom_site_fract_x
_atom_site_fract_y
_atom_site_fract_z
_atom_type_partial_charge
C1    C     C_R   0.374044 0.120680 0.560860 0.558967
C2    C     C_2   0.485362 0.006817 0.084739 0.122620
C3    C     C_2   0.014639 0.506818 0.915261 0.122631
C4    C     C_2   0.985362 0.506817 0.084739 0.122627
C5    C     C_2   0.299439 0.811250 0.594754 0.001645
C6    C     C_2   0.692665 0.195382 0.406942 0.002208
C7    C     C_2   0.700560 0.811249 0.405241 0.001646
C8    C     C_2   0.307329 0.195376 0.593067 0.002210
C9    C     C_2   0.799437 0.311251 0.594754 0.001638
C10   C     C_2   0.192667 0.695380 0.406939 0.002212
C11   C     C_2   0.200566 0.311253 0.405238 0.001631
C12   C     C_R   0.627378 0.880643 0.438505 0.568469
C13   C     C_2   0.807297 0.695354 0.593081 0.002217
C14   C     C_2   0.249997 0.810882 0.514254 -0.157916
C15   C     C_2   0.681229 0.241598 0.528374 -0.159267
C16   C     C_2   0.749980 0.810867 0.485773 -0.157951
C17   C     C_2   0.318759 0.241592 0.471638 -0.159276
C18   C     C_2   0.749996 0.310885 0.514252 -0.157910
C19   C     C_2   0.181234 0.741593 0.528374 -0.159284
C20   C     C_2   0.249988 0.310876 0.485768 -0.157906
C21   C     C_2   0.818737 0.741576 0.471654 -0.159314
C22   C     C_3   0.770352 0.217045 0.239483 -0.269868
C23   C     C_R   0.625956 0.120681 0.439142 0.558958
C24   C     C_3   0.855952 0.151168 0.169372 -0.440290
C25   C     C_3   0.284849 0.738742 0.706069 -0.288140
C26   C     C_3   0.359756 0.736599 0.766470 -0.421022
C27   C     C_3   0.229650 0.217034 0.760531 -0.269839
C28   C     C_3   0.144080 0.151125 0.830671 -0.440292
C29   C     C_3   0.715174 0.738753 0.293889 -0.288113
C30   C     C_3   0.640324 0.736638 0.233376 -0.421017
C31   C     C_3   0.270343 0.717050 0.239478 -0.269845
C32   C     C_3   0.355895 0.651129 0.169299 -0.440304
C33   C     C_3   0.784845 0.238740 0.706062 -0.288115
C34   C     C_R   0.372621 0.880645 0.561493 0.568470
C35   C     C_3   0.859711 0.236620 0.766546 -0.421022
C36   C     C_3   0.729594 0.716999 0.760543 -0.269884
C37   C     C_3   0.644185 0.650952 0.830803 -0.440352
C38   C     C_3   0.215185 0.238756 0.293883 -0.288111
C39   C     C_3   0.140312 0.236623 0.233411 -0.421025
C40   C     C_3   0.376949 0.035186 0.207955 -0.222704
C41   C     C_3   0.282384 0.013203 0.196793 -0.508034
C42   C     C_3   0.623052 0.035186 0.792045 -0.222709
C43   C     C_3   0.717616 0.013195 0.803203 -0.508034
C44   C     C_3   0.876949 0.535186 0.207955 -0.222697
C45   C     C_R   0.874036 0.620675 0.560864 0.559015
C46   C     C_3   0.782384 0.513204 0.196792 -0.508037
C47   C     C_3   0.123050 0.535190 0.792047 -0.222699
C48   C     C_3   0.217616 0.513207 0.803207 -0.508030
C49   C     C_R   0.127380 0.380644 0.438505 0.568470
C50   C     C_R   0.125955 0.620681 0.439141 0.558985
C51   C     C_R   0.872621 0.380644 0.561493 0.568468
C52   C     C_2   0.514639 0.006817 0.915260 0.122618
Cu1   Cu    Cu3+1 0.522650 0.000000 0.349410 0.872877
Cu2   Cu    Cu3+1 0.477350 0.000000 0.650590 0.872865
Cu3   Cu    Cu3+1 0.022650 0.500000 0.349410 0.872865
Cu4   Cu    Cu3+1 0.977350 0.500000 0.650590 0.872847
H1    H     H_    0.611977 0.955800 0.060629 0.214643
H2    H     H_    0.762084 0.361867 0.433300 0.126200
H3    H     H_    0.876726 0.724454 0.354587 0.134611
H4    H     H_    0.237885 0.361852 0.566744 0.126206
H5    H     H_    0.899073 0.151404 0.232175 0.148041
H6    H     H_    0.824821 0.086412 0.174870 0.163755
H7    H     H_    0.909027 0.167164 0.045948 0.128050
H8    H     H_    0.731264 0.219064 0.170717 0.150578
H9    H     H_    0.805529 0.280583 0.226589 0.137778
H10   H     H_    0.439932 0.741855 0.669390 0.160949
H11   H     H_    0.342488 0.788211 0.852078 0.168918
H12   H     H_    0.388022 0.955799 0.939370 0.214646
H13   H     H_    0.351637 0.675146 0.826598 0.120379
H14   H     H_    0.205630 0.740847 0.806598 0.137465
H15   H     H_    0.294916 0.677845 0.643631 0.147648
H16   H     H_    0.100990 0.151276 0.767823 0.148037
H17   H     H_    0.175237 0.086395 0.825279 0.163773
H18   H     H_    0.090973 0.167147 0.954055 0.128039
H19   H     H_    0.268761 0.219077 0.829274 0.150565
H20   H     H_    0.194443 0.280567 0.773439 0.137766
H21   H     H_    0.560129 0.741893 0.330405 0.160953
H22   H     H_    0.657641 0.788263 0.147772 0.168898
H23   H     H_    0.111978 0.455799 0.060628 0.214641
H24   H     H_    0.648462 0.675195 0.173207 0.120382
H25   H     H_    0.794414 0.740848 0.193409 0.137463
H26   H     H_    0.705066 0.677849 0.356330 0.147641
H27   H     H_    0.398942 0.651204 0.232213 0.148036
H28   H     H_    0.324727 0.586417 0.174554 0.163794
H29   H     H_    0.409046 0.667206 0.045946 0.128043
H30   H     H_    0.231227 0.719127 0.170745 0.150550
H31   H     H_    0.305572 0.780570 0.226596 0.137790
H32   H     H_    0.939901 0.241884 0.669503 0.160949
H33   H     H_    0.842398 0.288236 0.852167 0.168898
H34   H     H_    0.888023 0.455800 0.939370 0.214644
H35   H     H_    0.851587 0.175170 0.826689 0.120366
H36   H     H_    0.705610 0.240821 0.806558 0.137454
H37   H     H_    0.794955 0.177844 0.643591 0.147641
H38   H     H_    0.601198 0.650786 0.767809 0.148006
H39   H     H_    0.675484 0.586332 0.825764 0.163913
H40   H     H_    0.590951 0.667082 0.954093 0.128009
H41   H     H_    0.768730 0.719226 0.829238 0.150489
H42   H     H_    0.694211 0.780446 0.773412 0.137871
H43   H     H_    0.060121 0.241866 0.330462 0.160930
H44   H     H_    0.157602 0.288249 0.147817 0.168905
H45   H     H_    0.623255 0.224462 0.645443 0.134599
H46   H     H_    0.148455 0.175179 0.173236 0.120365
H47   H     H_    0.294417 0.240864 0.193385 0.137454
H48   H     H_    0.205101 0.177852 0.356313 0.147644
H49   H     H_    0.279035 0.051413 0.106075 0.168208
H50   H     H_    0.277509 0.943586 0.181845 0.125548
H51   H     H_    0.212649 0.029998 0.307781 0.126999
H52   H     H_    0.357258 0.003173 0.316377 0.217854
H53   H     H_    0.378081 0.105152 0.219842 0.147020
H54   H     H_    0.720969 0.051402 0.893920 0.168210
H55   H     H_    0.722485 0.943576 0.818151 0.125559
H56   H     H_    0.262082 0.861867 0.433306 0.126192
H57   H     H_    0.787351 0.029988 0.692215 0.127002
H58   H     H_    0.642742 0.003177 0.683618 0.217859
H59   H     H_    0.621923 0.105152 0.780164 0.147014
H60   H     H_    0.779036 0.551414 0.106075 0.168198
H61   H     H_    0.777508 0.443587 0.181843 0.125543
H62   H     H_    0.712649 0.529999 0.307780 0.126994
H63   H     H_    0.857258 0.503174 0.316379 0.217853
H64   H     H_    0.878082 0.605152 0.219840 0.147022
H65   H     H_    0.220965 0.551417 0.893926 0.168204
H66   H     H_    0.222491 0.443588 0.818152 0.125543
H67   H     H_    0.376733 0.224458 0.354569 0.134597
H68   H     H_    0.287351 0.530001 0.692219 0.126997
H69   H     H_    0.142742 0.503179 0.683619 0.217856
H70   H     H_    0.121915 0.605156 0.780167 0.147015
H71   H     H_    0.737884 0.861843 0.566746 0.126198
H72   H     H_    0.123262 0.724457 0.645443 0.134606
N1    N     N_2   0.443290 0.000000 0.876860 -0.361628
N2    N     N_2   0.556710 0.000000 0.123140 -0.361627
N3    N     N_2   0.943290 0.500000 0.876860 -0.361634
N4    N     N_2   0.056710 0.500000 0.123140 -0.361628
O1    O     O_R   0.422430 0.089640 0.419570 -0.528236
O2    O     O_R   0.615830 0.910350 0.326090 -0.494026
O3    O     O_R   0.615830 0.089650 0.326090 -0.478750
O4    O     O_R   0.384170 0.910350 0.673910 -0.494028
O5    O     O_R   0.884170 0.589650 0.673910 -0.478762
O6    O     O_R   0.115830 0.410350 0.326090 -0.494028
O7    O     O_R   0.115830 0.589650 0.326090 -0.478758
O8    O     O_R   0.884170 0.410350 0.673910 -0.494045
O9    O     O_R   0.577570 0.910360 0.580430 -0.521506
O10   O     O_R   0.577570 0.089640 0.580430 -0.528235
O11   O     O_R   0.422430 0.910360 0.419570 -0.521498
O12   O     O_R   0.922430 0.589640 0.419570 -0.528241
O13   O     O_R   0.077570 0.410360 0.580430 -0.521497
O14   O     O_R   0.077570 0.589640 0.580430 -0.528233
O15   O     O_R   0.922430 0.410360 0.419570 -0.521493
O16   O     O_R   0.384170 0.089650 0.673910 -0.478762

loop_
_geom_bond_atom_site_label_1
_geom_bond_atom_site_label_2
_ccdc_geom_bond_type
C15   C18   S    
Cu3   Cu4   S    
C24   H5    S    
C7    C29   S    
C1    C8    S    
Cu1   O3    S    
C28   H18   S    
C4    N4    D    
Cu1   Cu2   S    
C14   H56   S    
C37   H39   S    
C38   H47   S    
Cu3   O6    S    
C41   H49   S    
C47   H70   S    
C3    N3    D    
C26   H11   S    
C36   C37   S    
C21   H3    S    
C48   H66   S    
C38   C39   S    
Cu4   O8    S    
C1    O1    A    
C6    C23   S    
C6    C22   S    
C19   H72   S    
C17   C20   S    
Cu3   O7    S    
C12   O9    A    
C46   H62   S    
Cu4   O13   S    
C32   H27   S    
C38   H48   S    
C2    N2    D    
C6    C15   D    
C30   H21   S    
C39   H43   S    
C10   C31   S    
C42   H58   S    
C47   C48   S    
C9    C51   S    
C45   O12   A    
C23   O10   A    
C36   H41   S    
C25   H15   S    
C43   H54   S    
C51   O15   A    
C20   H4    S    
C40   H52   S    
C30   H24   S    
C51   O8    A    
C50   O14   A    
C31   H30   S    
C12   O2    A    
C49   O6    A    
C9    C33   S    
C28   H16   S    
C43   H55   S    
C27   H19   S    
C28   H17   S    
C44   C46   S    
C47   H69   S    
C7    C12   S    
C34   O11   A    
C11   C20   D    
C31   H31   S    
C41   H50   S    
C13   C21   D    
C26   H10   S    
H1    N2    S    
Cu1   O1    S    
C13   C36   S    
C33   H36   S    
C48   H65   S    
C50   O7    A    
C4    C44   S    
C44   H63   S    
C25   C26   S    
C46   H61   S    
Cu1   O11   S    
C11   C38   S    
C22   H9    S    
C29   H25   S    
C29   C30   S    
C11   C49   S    
C35   H32   S    
C9    C18   D    
Cu3   O15   S    
C31   C32   S    
C34   O4    A    
C10   C19   D    
Cu2   O4    S    
C5    C34   S    
C45   O5    A    
C49   O13   A    
C15   H45   S    
C5    C14   D    
C2    C52   S    
C5    C25   S    
H34   N3    S    
C35   H33   S    
C7    C16   D    
Cu2   O10   S    
C24   H7    S    
C22   C24   S    
C42   C43   S    
C52   N1    D    
C27   H20   S    
C10   C50   S    
C39   H46   S    
Cu2   O16   S    
C8    C27   S    
Cu2   N1    S    
C40   C41   S    
C24   H6    S    
Cu3   O12   S    
C41   H51   S    
C14   C19   S    
Cu1   O2    S    
C32   H28   S    
C33   H37   S    
C48   H68   S    
C16   C21   S    
C40   H53   S    
C25   H14   S    
C46   H60   S    
C8    C17   D    
C23   O3    A    
C29   H26   S    
C43   H57   S    
C13   C45   S    
Cu4   O5    S    
C39   H44   S    
C32   H29   S    
C3    C47   S    
C33   C35   S    
C18   H2    S    
C37   H38   S    
H23   N4    S    
Cu4   O14   S    
H12   N1    S    
C16   H71   S    
Cu4   N3    S    
C22   H8    S    
C30   H22   S    
C2    C40   S    
C42   H59   S    
Cu2   O9    S    
C37   H40   S    
Cu3   N4    S    
C27   C28   S    
C26   H13   S    
C44   H64   S    
C1    O16   A    
C36   H42   S    
Cu1   N2    S    
C17   H67   S    
C3    C4    S    
C42   C52   S    
C35   H35   S    
