data_mof_unit_43354.cif
_audit_creation_date              2012-12-10T16:56:34-0500
_audit_creation_method            fapswitch 2.2
_symmetry_space_group_name_H-M    P1
_symmetry_Int_Tables_number       1
_space_group_crystal_system       triclinic
_cell_length_a                    7.778754
_cell_length_b                    8.580725
_cell_length_c                    15.69989
_cell_angle_alpha                 91.147895
_cell_angle_beta                  85.199177
_cell_angle_gamma                 93.786909
_cell_volume                      1041.85863571

loop_
_atom_site_label
_atom_site_type_symbol
_atom_type_description
_atom_site_fract_x
_atom_site_fract_y
_atom_site_fract_z
_atom_type_partial_charge
C1    C     C_R   0.545870 0.794774 0.497948 0.964820
C2    C     C_3   0.419602 0.360475 0.029883 -0.269494
C3    C     C_1   0.502332 0.498157 0.750725 -0.197677
C4    C     C_1   0.497802 0.496906 0.249064 -0.167842
C5    C     C_3   0.339701 0.485771 0.978379 -0.352536
C6    C     C_3   0.671922 0.497610 0.021545 -0.351568
C7    C     C_3   0.504487 0.492648 0.916622 0.069188
C8    C     C_3   0.506274 0.491845 0.082481 0.079842
C9    C     C_1   0.502717 0.495648 0.825962 -0.054503
C10   C     C_1   0.501121 0.494173 0.173581 0.012375
C11   C     C_3   0.245426 0.818191 0.021510 0.056424
C12   C     C_R   0.454136 0.205240 0.502354 0.961832
C13   C     C_3   0.348183 0.919960 0.953233 -0.337275
C14   C     C_3   0.232087 0.025798 0.910539 -0.948297
C15   C     C_3   0.826091 0.245731 0.906318 0.058926
C16   C     C_3   0.866611 0.329253 0.820797 -0.358529
C17   C     C_3   0.049374 0.304275 0.782222 -0.930762
C18   C     C_R   0.501065 0.500161 0.661957 0.906791
C19   C     C_R   0.498903 0.499451 0.337996 0.902806
C20   C     C_2   0.569938 0.958335 0.496916 -0.374923
C21   C     C_2   0.430071 0.041704 0.503868 -0.374202
C22   C     C_3   0.428910 0.615424 0.031480 0.617205
C23   C     C_3   0.583220 0.369120 0.967005 0.610998
C24   C     C_3   0.593258 0.623946 0.969554 -0.322914
H1    H     H_    0.664307 0.731048 0.943099 0.154640
H2    H     H_    0.152569 0.733506 0.992152 0.123931
H3    H     H_    0.450284 0.992600 0.983498 0.270609
H4    H     H_    0.410240 0.844896 0.902852 0.214950
H5    H     H_    0.132509 0.954407 0.877634 0.252616
H6    H     H_    0.311482 0.098994 0.862563 0.293196
H7    H     H_    0.167415 0.103990 0.958546 0.252044
H8    H     H_    0.869802 0.125299 0.898731 0.178653
H9    H     H_    0.900815 0.302347 0.957109 0.118213
H10   H     H_    0.773880 0.283795 0.774704 0.248181
H11   H     H_    0.853668 0.456580 0.830707 0.215150
H12   H     H_    0.352410 0.252689 0.057542 0.162661
H13   H     H_    0.145557 0.345652 0.827233 0.269049
H14   H     H_    0.074996 0.370913 0.722135 0.286789
H15   H     H_    0.063685 0.178617 0.767015 0.264006
H16   H     H_    0.804772 0.504802 0.042841 0.151371
H17   H     H_    0.205241 0.478158 0.959337 0.143163
H18   H     H_    0.701956 0.009606 0.490309 0.180813
H19   H     H_    0.298052 0.990442 0.510540 0.180875
H20   H     H_    0.013543 0.381632 0.436210 0.194547
H21   H     H_    0.986444 0.618213 0.563884 0.190828
H22   H     H_    0.165355 0.894807 0.064119 0.177724
N1    N     N_2   0.950320 0.457950 0.477300 -0.170884
N2    N     N_2   0.049680 0.542050 0.522700 -0.176018
O1    O     O_R   0.389250 0.738570 0.505570 -0.611486
O2    O     O_3   0.646360 0.230615 0.929479 -0.667342
O3    O     O_R   0.610750 0.261430 0.494430 -0.613156
O4    O     O_R   0.678390 0.711630 0.491020 -0.628838
O5    O     O_R   0.321610 0.288370 0.508980 -0.631768
O6    O     O_R   0.355460 0.513480 0.630490 -0.619848
O7    O     O_R   0.644540 0.486520 0.369510 -0.610591
O8    O     O_R   0.644600 0.486540 0.615950 -0.625945
O9    O     O_R   0.355400 0.513460 0.384050 -0.616047
O10   O     O_3   0.355816 0.745658 0.073575 -0.645230
Zn1   Zn    Zn3+2 0.306940 0.517990 0.509710 0.943823
Zn2   Zn    Zn3+2 0.693060 0.482010 0.490290 0.948633

loop_
_geom_bond_atom_site_label_1
_geom_bond_atom_site_label_2
_ccdc_geom_bond_type
C22   O10   S    
C8    C22   S    
N2    Zn1   S    
C13   H4    S    
C3    C9    T    
C11   O10   S    
O4    Zn2   S    
C20   H18   S    
N1    N2    D    
O1    Zn1   S    
H20   N1    S    
C18   O8    A    
C14   H7    S    
C17   H14   S    
C6    C24   S    
C20   C21   D    
O5    Zn1   S    
C15   H8    S    
C17   H13   S    
C13   C14   S    
C19   O9    A    
C11   C13   S    
C14   H6    S    
C7    C23   S    
C6    C23   S    
C2    C8    S    
C1    C20   S    
O8    Zn2   S    
C22   C24   S    
O6    Zn1   S    
C16   H11   S    
C1    O4    A    
C6    H16   S    
O9    Zn1   S    
C2    C5    S    
C15   C16   S    
C18   O6    A    
C14   H5    S    
C4    C10   T    
C7    C24   S    
C7    C9    S    
C12   O3    A    
C2    H12   S    
C24   H1    S    
C3    C18   S    
C8    C10   S    
C17   H15   S    
C15   O2    S    
C19   O7    A    
C2    C23   S    
C5    C7    S    
C5    H17   S    
C13   H3    S    
C23   O2    S    
C6    C8    S    
O3    Zn2   S    
H21   N2    S    
C11   H2    S    
C16   H10   S    
N1    Zn2   S    
O7    Zn2   S    
C4    C19   S    
C1    O1    A    
C12   C21   S    
C15   H9    S    
C21   H19   S    
C5    C22   S    
C12   O5    A    
C16   C17   S    
C11   H22   S    
