data_mof_unit_60525.cif
_audit_creation_date              2012-12-10T16:55:33-0500
_audit_creation_method            fapswitch 2.2
_symmetry_space_group_name_H-M    P1
_symmetry_Int_Tables_number       1
_space_group_crystal_system       triclinic
_cell_length_a                    21.762033
_cell_length_b                    21.747555
_cell_length_c                    21.759238
_cell_angle_alpha                 117.932514
_cell_angle_beta                  119.51293
_cell_angle_gamma                 90.201873
_cell_volume                      7541.2090065

loop_
_atom_site_label
_atom_site_type_symbol
_atom_type_description
_atom_site_fract_x
_atom_site_fract_y
_atom_site_fract_z
_atom_type_partial_charge
C1    C     C_R   0.002961 0.383735 0.505547 0.934368
C2    C     C_1   0.839587 0.335986 0.174158 -0.110923
C3    C     C_1   0.124194 0.627630 0.750913 -0.192056
C4    C     C_1   0.875464 0.374301 0.249026 -0.190576
C5    C     C_2   0.988699 0.242342 0.554555 -0.224950
C6    C     C_2   0.934458 0.758625 0.447715 -0.230350
C7    C     C_2   0.979768 0.179822 0.489370 -0.164897
C8    C     C_2   0.992545 0.819848 0.510742 -0.159137
C9    C     C_2   0.981025 0.307485 0.550665 -0.183045
C10   C     C_2   0.930540 0.692926 0.450700 -0.186278
C11   C     C_2   0.012096 0.324720 0.518856 -0.310361
C12   C     C_R   0.997039 0.615605 0.493265 0.936877
C13   C     C_2   0.991904 0.673085 0.477192 -0.306205
C14   C     C_R   0.617432 0.998731 0.496831 0.950572
C15   C     C_R   0.382535 0.001196 0.503050 0.949272
C16   C     C_R   0.080868 0.581399 0.662250 0.920015
C17   C     C_R   0.919101 0.419108 0.337748 0.913635
C18   C     C_R   0.418729 0.919943 0.337638 0.912839
C19   C     C_R   0.581429 0.080058 0.662358 0.910852
C20   C     C_R   0.881152 0.997589 0.500702 0.936236
C21   C     C_R   0.118842 0.002428 0.499308 0.955065
C22   C     C_R   0.995902 0.118326 0.497814 0.884953
C23   C     C_3   0.236252 0.836418 0.046528 -0.438628
C24   C     C_R   0.998509 0.881660 0.502252 0.873645
C25   C     C_2   0.757297 0.932344 0.448261 0.154614
C26   C     C_2   0.243153 0.066878 0.552383 0.138206
C27   C     C_2   0.817127 0.992029 0.504271 -0.355221
C28   C     C_2   0.182881 0.007751 0.495770 -0.345451
C29   C     C_2   0.694704 0.933303 0.457337 -0.208165
C30   C     C_2   0.305752 0.066411 0.543552 -0.218179
C31   C     C_2   0.677963 0.995472 0.486350 -0.363731
C32   C     C_2   0.321772 0.004095 0.513005 -0.364561
C33   C     C_3   0.284862 0.722193 0.950054 -0.490597
C34   C     C_3   0.771004 0.169330 0.953409 -0.433578
C35   C     C_3   0.713389 0.265710 0.050361 -0.477123
C36   C     C_3   0.181910 0.677137 0.955116 -0.041004
C37   C     C_3   0.801443 0.332691 0.043999 -0.084366
C38   C     C_3   0.238210 0.721547 0.052845 -0.076798
C39   C     C_3   0.753065 0.282224 0.945879 -0.030627
C40   C     C_1   0.373316 0.877888 0.248722 -0.195045
C41   C     C_1   0.627005 0.122145 0.751270 -0.185280
C42   C     C_3   0.201432 0.713871 0.917009 0.268405
C43   C     C_3   0.796460 0.289053 0.082801 0.255492
C44   C     C_3   0.334781 0.776575 0.046347 -0.450913
C45   C     C_3   0.194191 0.793484 0.949078 -0.124510
C46   C     C_3   0.664837 0.214912 0.953417 -0.470015
C47   C     C_3   0.286467 0.795312 0.082367 0.283930
C48   C     C_3   0.713168 0.205218 0.917646 0.290286
C49   C     C_R   0.942587 0.166151 0.403164 0.165994
C50   C     C_R   0.976790 0.142081 0.359234 -0.151807
C51   C     C_R   0.940658 0.126112 0.277280 -0.144858
C52   C     C_R   0.870065 0.133600 0.238407 -0.128137
C53   C     C_R   0.835770 0.157801 0.281674 -0.155685
C54   C     C_R   0.871615 0.173743 0.363577 -0.108686
C55   C     C_R   0.046794 0.831283 0.594766 0.163704
C56   C     C_3   0.817580 0.216155 0.051374 -0.123419
C57   C     C_R   0.123336 0.852571 0.630355 -0.149241
C58   C     C_R   0.174120 0.861793 0.707987 -0.140940
C59   C     C_R   0.149013 0.850200 0.750850 -0.113623
C60   C     C_R   0.073119 0.829997 0.716485 -0.152782
C61   C     C_R   0.022148 0.821140 0.639189 -0.122441
C62   C     C_R   0.118594 0.806673 0.909448 0.115019
C63   C     C_R   0.118591 0.879848 0.937539 -0.181817
C64   C     C_R   0.052648 0.897010 0.904792 -0.135243
C65   C     C_R   0.985273 0.841478 0.842501 -0.127035
C66   C     C_R   0.983885 0.768722 0.812461 -0.161742
C67   C     C_1   0.334470 0.841342 0.173737 -0.100564
C68   C     C_R   0.049707 0.751192 0.844997 -0.140965
C69   C     C_R   0.900735 0.223393 0.096985 0.124788
C70   C     C_R   0.936870 0.232072 0.176363 -0.153034
C71   C     C_R   0.011759 0.236910 0.220190 -0.123032
C72   C     C_R   0.052141 0.232614 0.185442 -0.118723
C73   C     C_R   0.017646 0.223548 0.106861 -0.139146
C74   C     C_R   0.942657 0.218665 0.062660 -0.162505
C75   C     C_1   0.665764 0.158825 0.826252 -0.065622
C76   C     C_1   0.159211 0.666827 0.825711 -0.102440
H1    H     H_    0.375816 0.752127 0.075284 0.175013
H2    H     H_    0.889931 0.756139 0.392396 0.167559
H3    H     H_    0.951341 0.340670 0.574016 0.168373
H4    H     H_    0.878805 0.662387 0.432735 0.167640
H5    H     H_    0.048258 0.295393 0.504433 0.159868
H6    H     H_    0.040781 0.700022 0.486663 0.164184
H7    H     H_    0.821930 0.037117 0.559275 0.133991
H8    H     H_    0.177712 0.963052 0.440279 0.131493
H9    H     H_    0.661216 0.882550 0.437875 0.164391
H10   H     H_    0.340098 0.117622 0.564963 0.168019
H11   H     H_    0.294840 0.668200 0.934065 0.180336
H12   H     H_    0.621179 0.238516 0.926935 0.173742
H13   H     H_    0.694222 0.314594 0.070046 0.179441
H14   H     H_    0.706517 0.044595 0.497872 0.155916
H15   H     H_    0.292540 0.954463 0.499990 0.154109
H16   H     H_    0.189115 0.621715 0.929857 0.126320
H17   H     H_    0.775325 0.376610 0.060293 0.132781
H18   H     H_    0.276181 0.688743 0.067027 0.132218
H19   H     H_    0.708922 0.306617 0.921929 0.124407
H20   H     H_    0.225822 0.819857 0.935548 0.130886
H21   H     H_    0.795944 0.183275 0.067360 0.126330
H22   H     H_    0.270982 0.891512 0.074086 0.156888
H23   H     H_    0.301041 0.741893 0.919615 0.186075
H24   H     H_    0.741450 0.113747 0.930751 0.159226
H25   H     H_    0.031292 0.135601 0.388483 0.118809
H26   H     H_    0.967221 0.107561 0.243726 0.134295
H27   H     H_    0.841852 0.120523 0.174672 0.119970
H28   H     H_    0.781106 0.163598 0.251467 0.128287
H29   H     H_    0.843811 0.191206 0.395820 0.130976
H30   H     H_    0.143508 0.861000 0.597403 0.117773
H31   H     H_    0.232951 0.877617 0.734741 0.128399
H32   H     H_    0.188315 0.856961 0.810719 0.121839
H33   H     H_    0.053736 0.821035 0.749619 0.164584
H34   H     H_    0.705584 0.236889 0.078088 0.182298
H35   H     H_    0.963507 0.805787 0.613600 0.133500
H36   H     H_    0.703262 0.828520 0.344207 0.169836
H37   H     H_    0.793570 0.844956 0.412147 0.167530
H38   H     H_    0.253696 0.174577 0.611133 0.167543
H39   H     H_    0.292197 0.143406 0.675277 0.184180
H40   H     H_    0.090952 0.630935 0.943312 0.203215
H41   H     H_    0.097099 0.715933 0.961921 0.214333
H42   H     H_    0.900974 0.414516 0.140452 0.193800
H43   H     H_    0.910310 0.336157 0.081419 0.211188
H44   H     H_    0.182025 0.775063 0.106704 0.188691
H45   H     H_    0.366617 0.827290 0.061252 0.188558
H46   H     H_    0.241546 0.740543 0.156906 0.192063
H47   H     H_    0.841404 0.262534 0.934021 0.193752
H48   H     H_    0.811610 0.328920 0.919504 0.202817
H49   H     H_    0.170151 0.924137 0.985244 0.123005
H50   H     H_    0.053910 0.953497 0.927554 0.130247
H51   H     H_    0.934214 0.854776 0.816999 0.127332
H52   H     H_    0.931586 0.725595 0.763473 0.135142
H53   H     H_    0.044739 0.694098 0.818677 0.169758
H54   H     H_    0.906873 0.235204 0.204726 0.128068
H55   H     H_    0.038398 0.243828 0.281126 0.132908
H56   H     H_    0.636104 0.160810 0.934867 0.187689
H57   H     H_    0.110185 0.236369 0.219419 0.121442
H58   H     H_    0.049174 0.220514 0.080109 0.125909
H59   H     H_    0.919522 0.213263 0.003174 0.109284
H60   H     H_    0.196486 0.845746 0.065411 0.171688
H61   H     H_    0.804456 0.159597 0.926678 0.166818
H62   H     H_    0.004600 0.246716 0.612584 0.170937
N1    N     N_3   0.755434 0.867281 0.383281 -0.420067
N2    N     N_3   0.245723 0.131415 0.618119 -0.426240
N3    N     N_3   0.104366 0.666378 0.928862 -0.471095
N4    N     N_3   0.877457 0.370514 0.078840 -0.474027
N5    N     N_3   0.202188 0.730270 0.097428 -0.474236
N6    N     N_3   0.794180 0.277394 0.907553 -0.455729
O1    O     O_R   0.051090 0.409550 0.500010 -0.628845
O2    O     O_R   0.051070 0.590460 0.499970 -0.625481
O3    O     O_R   0.112510 0.561440 0.622850 -0.617593
O4    O     O_R   0.887490 0.438560 0.377150 -0.622674
O5    O     O_R   0.010350 0.561430 0.622870 -0.623428
O6    O     O_R   0.989650 0.438570 0.377130 -0.616050
O7    O     O_R   0.590290 0.948920 0.499990 -0.619931
O8    O     O_R   0.409710 0.051080 0.500010 -0.619586
O9    O     O_R   0.590320 0.051050 0.499970 -0.624695
O10   O     O_R   0.409680 0.948950 0.500030 -0.626583
O11   O     O_R   0.438380 0.887500 0.377150 -0.623263
O12   O     O_R   0.948910 0.590450 0.499990 -0.621479
O13   O     O_R   0.561620 0.112500 0.622850 -0.618395
O14   O     O_R   0.438400 0.989630 0.377130 -0.618405
O15   O     O_R   0.561600 0.010370 0.622870 -0.620353
O16   O     O_R   0.944190 0.034670 0.569380 -0.634892
O17   O     O_R   0.055810 0.965330 0.430620 -0.631852
O18   O     O_R   0.874830 0.965310 0.430660 -0.591602
O19   O     O_R   0.125170 0.034690 0.569340 -0.590799
O20   O     O_R   0.034670 0.125130 0.569340 -0.620762
O21   O     O_R   0.965330 0.874870 0.430660 -0.621891
O22   O     O_R   0.965310 0.055770 0.430620 -0.617503
O23   O     O_R   0.034690 0.944230 0.569380 -0.619273
O24   O     O_R   0.948930 0.409540 0.500030 -0.618409
Zn1   Zn    Zn3+2 0.068220 0.500010 0.499990 0.949453
Zn2   Zn    Zn3+2 0.931780 0.499990 0.500010 0.937908
Zn3   Zn    Zn3+2 0.499800 0.931810 0.500010 0.942594
Zn4   Zn    Zn3+2 0.500200 0.068190 0.499990 0.946695
Zn5   Zn    Zn3+2 0.046310 0.046310 0.592620 0.955743
Zn6   Zn    Zn3+2 0.953690 0.953690 0.407380 0.962371

loop_
_geom_bond_atom_site_label_1
_geom_bond_atom_site_label_2
_ccdc_geom_bond_type
C66   C68   A    
C52   H27   S    
C34   C56   S    
C23   C45   S    
C28   H8    S    
O16   Zn5   S    
C44   H45   S    
C36   C42   S    
C17   O6    A    
C1    C11   S    
C14   C31   S    
C72   H57   S    
C5    H62   S    
C53   C54   A    
C11   H5    S    
C51   H26   S    
C73   H58   S    
O15   Zn3   S    
C23   H60   S    
C16   O3    A    
C21   O19   A    
C33   C42   S    
C65   H51   S    
C44   H1    S    
C25   N1    S    
C26   N2    S    
O13   Zn4   S    
C46   H56   S    
O8    Zn4   S    
C6    H2    S    
O6    Zn1   S    
C53   H28   S    
C49   C54   A    
C45   C62   S    
C70   H54   S    
O7    Zn3   S    
C32   H15   S    
C58   H31   S    
C9    H3    S    
C12   O2    A    
C49   C50   A    
C18   C40   S    
C15   O10   A    
C60   H33   S    
C1    O1    A    
C40   C67   T    
H47   N6    S    
C34   H24   S    
H37   N1    S    
C70   C71   A    
H38   N2    S    
C30   H10   S    
C35   C43   S    
C29   H9    S    
C44   C47   S    
O23   Zn5   S    
C36   H16   S    
O24   Zn2   S    
C57   H30   S    
C59   C60   A    
C39   N6    S    
C48   C75   S    
C68   H53   S    
H44   N5    S    
H46   N5    S    
C12   O12   A    
C8    C55   S    
C47   C67   S    
C15   O8    A    
C46   H12   S    
C73   C74   A    
C25   C29   S    
O1    Zn1   S    
O22   Zn6   S    
C21   O17   A    
C37   N4    S    
C51   C52   A    
C19   O13   A    
C15   C32   S    
C24   O23   A    
C23   C47   S    
C7    C49   S    
C5    C7    D    
C10   H4    S    
C17   O4    A    
C6    C8    D    
C1    O24   A    
O21   Zn6   S    
C63   C64   A    
C13   H6    S    
O5    Zn2   S    
C60   C61   A    
C33   H23   S    
C42   C45   S    
C37   C43   S    
H41   N3    S    
C36   N3    S    
C5    C9    S    
C62   C63   A    
C18   O14   A    
C41   C75   T    
C22   O20   A    
O4    Zn2   S    
C2    C43   S    
C29   C31   D    
C31   H14   S    
C20   O18   A    
C74   H59   S    
C38   H18   S    
C50   C51   A    
C37   H17   S    
O20   Zn5   S    
C63   H49   S    
H39   N2    S    
C3    C76   T    
C9    C11   D    
C39   H19   S    
C38   C47   S    
C16   O5    A    
C35   H34   S    
O12   Zn2   S    
C38   N5    S    
C4    C17   S    
C35   H13   S    
C21   C28   S    
C26   C30   S    
C64   H50   S    
C55   C57   A    
C14   O9    A    
C14   O7    A    
C34   C48   S    
O19   Zn5   S    
C52   C53   A    
C54   H29   S    
C33   C44   S    
C42   C76   S    
C72   C73   A    
H42   N4    S    
C10   C13   D    
C6    C10   S    
O18   Zn6   S    
C20   C27   S    
C25   C27   D    
C7    C22   S    
C34   H61   S    
C26   C28   D    
C59   H32   S    
C62   C68   A    
C19   O15   A    
C64   C65   A    
C27   H7    S    
C24   O21   A    
C58   C59   A    
C71   C72   A    
C37   C39   S    
C30   C32   D    
O17   Zn6   S    
C45   H20   S    
O14   Zn4   S    
C57   C58   A    
C56   H21   S    
C2    C4    T    
C55   C61   A    
O9    Zn4   S    
C36   C38   S    
C8    C24   S    
C66   H52   S    
O10   Zn3   S    
C65   C66   A    
C33   H11   S    
C69   C70   A    
C3    C16   S    
C71   H55   S    
H40   N3    S    
C22   O22   A    
C46   C48   S    
O11   Zn3   S    
C43   C56   S    
C23   H22   S    
C12   C13   S    
C50   H25   S    
H36   N1    S    
C56   C69   S    
C20   O16   A    
O2    Zn1   S    
H43   N4    S    
C69   C74   A    
H48   N6    S    
C35   C46   S    
O3    Zn1   S    
C18   O11   A    
C19   C41   S    
C39   C48   S    
C61   H35   S    
