data_mof_unit_45247.cif
_audit_creation_date              2012-12-10T17:15:54-0500
_audit_creation_method            fapswitch 2.2
_symmetry_space_group_name_H-M    P1
_symmetry_Int_Tables_number       1
_space_group_crystal_system       triclinic
_cell_length_a                    10.162677
_cell_length_b                    10.640601
_cell_length_c                    10.894362
_cell_angle_alpha                 89.422669
_cell_angle_beta                  96.568671
_cell_angle_gamma                 81.023188
_cell_volume                      1155.5467833

loop_
_atom_site_label
_atom_site_type_symbol
_atom_type_description
_atom_site_fract_x
_atom_site_fract_y
_atom_site_fract_z
_atom_type_partial_charge
C1    C     C_R   0.441751 0.508396 0.267590 0.891875
C2    C     C_2   0.501168 0.540423 0.937109 -0.051884
C3    C     C_2   0.069129 0.496172 0.486481 -0.138964
C4    C     C_R   0.505744 0.259521 0.515210 0.899011
C5    C     C_2   0.930665 0.495742 0.519879 -0.118288
C6    C     C_R   0.558211 0.495474 0.732553 0.814025
C7    C     C_R   0.504987 0.737823 0.518490 0.951321
C8    C     C_R   0.775971 0.076863 0.568809 -0.114067
C9    C     C_R   0.887128 0.984159 0.553399 0.420852
C10   C     C_R   0.881711 0.859005 0.585496 -0.245078
C11   C     C_R   0.760426 0.824966 0.611540 0.398191
C12   C     C_R   0.645604 0.040625 0.564831 -0.052852
C13   C     C_R   0.640532 0.909291 0.575675 -0.030260
C14   C     C_1   0.277759 0.610493 0.096012 0.226257
C15   C     C_1   0.136584 0.581836 0.672247 0.323339
C16   C     C_1   0.811708 0.186355 0.633396 0.246371
C17   C     C_1   0.418526 0.661416 0.896479 0.197986
C18   C     C_1   0.576223 0.357270 0.093851 0.335668
C19   C     C_R   0.520300 0.125614 0.552093 -0.127983
C20   C     C_R   0.402935 0.080283 0.574468 -0.315598
C21   C     C_R   0.400064 0.950692 0.580645 0.446584
C22   C     C_R   0.515451 0.866770 0.559837 -0.137935
C23   C     C_2   0.403433 0.527994 0.135543 -0.283915
C24   C     C_2   0.491888 0.479315 0.058403 -0.049709
C25   C     C_2   0.595366 0.491474 0.866358 0.229663
H1    H     H_    0.310093 0.144929 0.578993 0.181485
H2    H     H_    0.901253 0.536876 0.604061 0.192049
H3    H     H_    0.096141 0.451376 0.401874 0.163742
H4    H     H_    0.871881 0.410824 0.367681 0.180510
H5    H     H_    0.972762 0.790842 0.596724 0.176458
H6    H     H_    0.992452 0.104314 0.494140 0.329404
H7    H     H_    0.846665 0.692732 0.730102 0.330414
H8    H     H_    0.228791 0.972626 0.645400 0.368990
H9    H     H_    0.779374 0.412985 0.855963 0.364361
N1    N     N_2   0.157290 0.551390 0.551110 -0.131053
N2    N     N_2   0.842740 0.448550 0.448960 -0.193313
N3    N     N_1   0.176956 0.676006 0.065595 -0.151615
N4    N     N_1   0.119627 0.606614 0.773005 -0.236100
N5    N     N_1   0.846470 0.271035 0.686338 -0.200365
N6    N     N_1   0.354273 0.758031 0.863765 -0.140055
N7    N     N_1   0.642636 0.260495 0.122198 -0.176982
O1    O     O_R   0.568950 0.489660 0.307530 -0.597478
O2    O     O_3   0.757042 0.717845 0.682582 -0.766428
O3    O     O_3   0.285300 0.905259 0.604214 -0.695678
O4    O     O_3   0.718124 0.428418 0.920141 -0.757844
O5    O     O_R   0.348880 0.522640 0.340350 -0.608009
O6    O     O_R   0.610060 0.300270 0.483590 -0.613984
O7    O     O_R   0.389990 0.333260 0.516410 -0.625840
O8    O     O_R   0.651120 0.477360 0.659650 -0.587385
O9    O     O_R   0.431050 0.510340 0.692470 -0.634372
O10   O     O_R   0.610010 0.666740 0.483590 -0.581370
O11   O     O_R   0.389940 0.699730 0.516410 -0.548372
O12   O     O_3   0.007578 0.015129 0.526495 -0.747603
Zn1   Zn    Zn3+2 0.646940 0.477980 0.478090 0.990031
Zn2   Zn    Zn3+2 0.353060 0.522020 0.521910 1.001790

loop_
_geom_bond_atom_site_label_1
_geom_bond_atom_site_label_2
_ccdc_geom_bond_type
O5    Zn2   S    
C14   C23   S    
O7    Zn2   S    
C23   C24   D    
C15   N4    T    
C11   O2    S    
C7    C22   S    
C9    C10   A    
C10   H5    S    
C19   C20   A    
O11   Zn2   S    
C3    N1    D    
C8    C12   A    
O10   Zn1   S    
C20   C21   A    
C7    O10   A    
C8    C16   S    
H9    O4    S    
C21   C22   A    
O1    Zn1   S    
C2    C17   S    
C11   C13   A    
H4    N2    S    
C20   H1    S    
C13   C22   A    
O6    Zn1   S    
C18   C24   S    
C12   C19   A    
C15   N1    S    
C3    H3    S    
H7    O2    S    
C7    O11   A    
C1    C23   S    
C2    C25   D    
C6    O8    A    
C2    C24   S    
H8    O3    S    
C1    O5    A    
C6    C25   S    
C9    O12   S    
C10   C11   A    
C16   N5    T    
N1    Zn2   S    
O8    Zn1   S    
C21   O3    S    
C5    N2    D    
C25   O4    S    
C1    O1    A    
N2    Zn1   S    
C12   C13   A    
C4    O7    A    
C18   N7    T    
C6    O9    A    
C3    C5    S    
C5    H2    S    
C4    C19   S    
C4    O6    A    
H6    O12   S    
O9    Zn2   S    
C8    C9    A    
C14   N3    T    
C17   N6    T    
