data_mof_unit_43241.cif
_audit_creation_date              2013-03-05T15:54:01-0500
_audit_creation_method            fapswitch 2.2
_symmetry_space_group_name_H-M    P1
_symmetry_Int_Tables_number       1
_space_group_crystal_system       triclinic
_cell_length_a                    15.750807
_cell_length_b                    10.713394
_cell_length_c                    9.950264
_cell_angle_alpha                 88.28192
_cell_angle_beta                  90.442303
_cell_angle_gamma                 92.871852
_cell_volume                      1676.15821281

loop_
_atom_site_label
_atom_site_type_symbol
_atom_site_description
_atom_site_fract_x
_atom_site_fract_y
_atom_site_fract_z
_atom_type_partial_charge
O1    O     O_R   0.500000 0.316780 0.614690 -0.651231
O2    O     O_R   0.499990 0.316750 0.385360 -0.635242
C1    C     C_R   0.503394 0.259647 0.503199 0.870168
O3    O     O_R   0.377150 0.500020 0.614720 -0.630992
O4    O     O_R   0.377140 0.499990 0.385380 -0.621748
C2    C     C_R   0.338599 0.499592 0.499595 0.878921
Zn1   Zn    Zn3+2 0.500010 0.500020 0.653130 0.950863
Zn2   Zn    Zn3+2 0.499990 0.499980 0.346870 1.045157
O5    O     O_R   0.500010 0.683250 0.614640 -0.643814
O6    O     O_R   0.500000 0.683220 0.385310 -0.560464
O7    O     O_R   0.622860 0.500010 0.614620 -0.630771
O8    O     O_R   0.622850 0.499980 0.385280 -0.566281
C3    C     C_R   0.491197 0.738275 0.498290 0.883497
C4    C     C_R   0.661393 0.500866 0.500382 0.915318
C5    C     C_3   0.049358 0.452156 0.628431 -0.517405
C6    C     C_3   0.046663 0.428990 0.377907 0.174042
C7    C     C_3   0.946323 0.418849 0.384953 0.203076
H1    H     H_    0.060530 0.350432 0.634668 0.236440
H2    H     H_    0.070119 0.334600 0.403804 0.128118
C8    C     C_1   0.750116 0.505471 0.501102 -0.114320
C9    C     C_3   0.083794 0.512267 0.492876 0.008518
C10   C     C_3   0.953564 0.475140 0.641106 -0.054090
C11   C     C_3   0.917298 0.514499 0.497058 0.117743
C12   C     C_3   0.955162 0.656724 0.471901 0.308603
C13   C     C_3   0.055713 0.651320 0.485652 -0.077506
C14   C     C_1   0.825412 0.510295 0.500384 0.045120
C15   C     C_1   0.175138 0.507274 0.495954 0.036309
C16   C     C_1   0.250108 0.503063 0.498122 -0.094330
H3    H     H_    0.073103 0.684934 0.587589 0.214209
H4    H     H_    0.084148 0.493746 0.715623 0.225693
H5    H     H_    0.950721 0.556656 0.707048 0.218066
H6    H     H_    0.533044 0.118791 0.297657 0.236806
C17   C     C_R   0.492700 0.097110 0.762816 -0.295345
H7    H     H_    0.527960 0.183042 0.783818 0.224345
C18   C     C_R   0.461256 0.025667 0.874379 0.261317
C19   C     C_R   0.417577 0.909796 0.852499 0.291318
C20   C     C_R   0.413942 0.864119 0.722607 -0.250528
H8    H     H_    0.381289 0.774223 0.707380 0.201171
C21   C     C_R   0.456695 0.928682 0.615354 0.044957
C22   C     C_R   0.484206 0.053239 0.630049 0.079350
C23   C     C_R   0.504627 0.125049 0.510507 -0.113489
C24   C     C_R   0.514644 0.066544 0.388438 -0.159582
H9    H     H_    0.517776 0.896188 0.288757 0.254359
C25   C     C_R   0.503708 0.939588 0.382084 -0.074830
C26   C     C_R   0.477990 0.869929 0.496075 -0.126890
C27   C     C_R   0.379722 0.347358 0.142066 -0.103093
H10   H     H_    0.379057 0.336404 0.248800 0.206411
C28   C     C_R   0.318665 0.275137 0.073549 -0.105392
H11   H     H_    0.272799 0.217375 0.131022 0.213649
C29   C     C_R   0.319628 0.271600 0.933592 0.307897
C30   C     C_R   0.382031 0.344178 0.863369 -0.224806
H12   H     H_    0.384908 0.332945 0.757664 0.233432
C31   C     C_R   0.441022 0.424556 0.929378 0.103304
C32   C     C_R   0.440378 0.425646 0.073377 0.123857
N1    N     N_R   0.499210 0.498800 0.142780 -0.176599
C33   C     C_R   0.559218 0.568109 0.071454 0.397377
C34   C     C_R   0.558222 0.571274 0.928105 0.099016
N2    N     N_R   0.499180 0.498720 0.857170 -0.127955
C35   C     C_3   0.904267 0.373688 0.727646 -0.797497
H13   H     H_    0.933885 0.368633 0.829313 0.263292
H14   H     H_    0.837509 0.399058 0.741699 0.244940
H15   H     H_    0.903735 0.278643 0.688799 0.260426
C36   C     C_3   0.926913 0.718610 0.336933 -0.741978
H16   H     H_    0.931615 0.822172 0.343073 0.258200
H17   H     H_    0.967593 0.698933 0.251802 0.259945
H18   H     H_    0.859390 0.692958 0.313531 0.257821
N3    N     N_R   0.472685 0.073573 0.007285 0.204096
O9    O     O_R   0.535303 0.153566 0.032408 -0.438031
O10   O     O_R   0.416811 0.046634 0.100635 -0.379621
N4    N     N_R   0.384095 0.831544 0.961176 0.237987
O11   O     O_R   0.432794 0.802842 0.062479 -0.363978
O12   O     O_R   0.311896 0.768841 0.946253 -0.343625
N5    N     N_R   0.625237 0.635829 0.142044 0.224009
O13   O     O_R   0.701259 0.593598 0.146423 -0.423119
O14   O     O_R   0.614835 0.750736 0.173928 -0.377327
N6    N     N_R   0.259487 0.191128 0.863097 0.217688
O15   O     O_R   0.203557 0.120254 0.928959 -0.324995
O16   O     O_R   0.260070 0.187764 0.732436 -0.409339
C37   C     C_3   0.624251 0.656930 0.859044 -0.663557
H19   H     H_    0.615731 0.668101 0.750870 0.274062
H20   H     H_    0.622009 0.752418 0.898918 0.238942
H21   H     H_    0.688452 0.621542 0.877735 0.245843
N7    N     N_R   0.083786 0.458744 0.244178 0.223419
O17   O     O_R   0.139022 0.385384 0.196757 -0.384881
O18   O     O_R   0.060248 0.551312 0.167963 -0.410443
C38   C     C_3   0.919233 0.280165 0.425462 -0.843507
H22   H     H_    0.851748 0.270264 0.457259 0.251405
H23   H     H_    0.926481 0.217163 0.339877 0.255407
H24   H     H_    0.960091 0.240366 0.504911 0.239411
C39   C     C_3   0.901232 0.435711 0.245257 -0.698209
H25   H     H_    0.908410 0.528021 0.196230 0.260616
H26   H     H_    0.925651 0.369834 0.172218 0.250683
H27   H     H_    0.831678 0.414291 0.253781 0.243293
C40   C     C_3   0.109695 0.745313 0.396249 -0.728822
H28   H     H_    0.084403 0.839953 0.400699 0.263668
H29   H     H_    0.176192 0.753355 0.434227 0.234080
H30   H     H_    0.112232 0.719516 0.290392 0.299936
N8    N     N_R   0.924342 0.740395 0.576356 0.195250
O19   O     O_R   0.972038 0.836067 0.614217 -0.371018
O20   O     O_R   0.843696 0.741085 0.603752 -0.386197

loop_
_geom_bond_atom_site_label_1
_geom_bond_atom_site_label_2
_geom_bond_distance
_ccdc_geom_bond_type
C5    H1    1.112430 S    
C35   H13   1.111710 S    
N1    C33   1.362652 A    
C36   H17   1.097788 S    
C22   C23   1.427032 A    
C6    C9    1.563736 S    
C23   C24   1.396987 A    
C34   C37   1.507825 S    
C18   C19   1.410687 A    
C39   H25   1.090643 S    
C31   C32   1.433347 A    
Zn1   O7    1.975468 S    
C7    C11   1.620716 S    
C39   H27   1.111361 S    
C12   N8    1.492213 S    
C19   C20   1.395412 A    
N6    O16   1.301809 A    
O4    C2    1.292352 A    
O7    C4    1.292282 A    
C38   H23   1.112434 S    
C33   C34   1.425731 A    
N5    O13   1.301021 A    
C11   C14   1.446329 S    
O5    C3    1.293006 A    
C27   H10   1.065064 S    
C5    C10   1.547626 S    
C2    C16   1.396121 S    
C6    C7    1.580684 S    
C11   C12   1.621242 S    
N4    O11   1.300799 A    
Zn1   N2    2.030022 S    
C21   C26   1.410475 A    
C28   C29   1.394474 A    
C9    C15   1.442478 S    
C36   H18   1.109786 S    
C13   C40   1.549353 S    
N5    O14   1.298998 A    
C24   C25   1.365697 A    
O3    Zn1   1.969629 S    
Zn2   N1    2.031106 S    
C19   N4    1.435419 S    
C17   H7    1.076189 S    
C13   H3    1.114111 S    
C27   C28   1.391140 A    
C35   H14   1.110065 S    
C17   C22   1.418531 A    
C10   H5    1.110825 S    
N3    O9    1.301548 A    
C4    C8    1.395827 S    
C12   C13   1.592398 S    
O3    C2    1.292379 A    
C21   C22   1.393772 A    
C37   H20   1.110569 S    
C38   H22   1.110447 S    
C40   H30   1.098473 S    
C38   H24   1.104684 S    
C6    N7    1.477159 S    
C30   H12   1.063807 S    
N3    O10   1.300651 A    
H9    C25   1.080291 S    
C20   H8    1.083019 S    
C29   N6    1.441102 S    
C37   H21   1.110035 S    
C39   H26   1.111970 S    
N7    O17   1.301673 A    
C18   N3    1.439596 S    
Zn2   O8    1.969628 S    
C27   C32   1.406686 A    
C29   C30   1.400133 A    
N6    O15   1.301584 A    
C40   H29   1.110868 S    
C28   H11   1.082703 S    
N7    O18   1.297490 A    
O8    C4    1.292162 A    
C12   C36   1.551785 S    
N8    O20   1.301648 A    
C7    C38   1.566932 S    
C37   H19   1.087451 S    
C10   C35   1.547699 S    
C25   C26   1.390529 A    
C5    H4    1.114840 S    
Zn1   O5    1.988724 S    
C9    C13   1.574548 S    
C32   N1    1.378261 A    
C1    C23   1.442749 S    
C35   H15   1.099554 S    
C33   N5    1.429936 S    
O1    Zn1   2.011253 S    
O2    Zn2   1.988725 S    
C7    C39   1.565802 S    
O6    C3    1.296637 A    
O4    Zn2   1.975468 S    
C31   N2    1.374648 A    
O2    C1    1.308148 A    
C20   C21   1.411007 A    
C3    C26   1.435495 S    
C34   N2    1.384755 A    
C8    C14   1.184576 T    
C6    H2    1.116170 S    
C17   C18   1.408178 A    
C40   H28   1.110004 S    
C30   C31   1.407323 A    
C36   H16   1.111742 S    
C5    C9    1.566014 S    
Zn2   O6    2.011253 S    
N8    O19   1.303267 A    
C15   C16   1.183958 T    
H6    C24   1.081996 S    
C10   C11   1.591769 S    
N4    O12   1.301293 A    
O1    C1    1.285735 A    
