data_mof_unit_51790.cif
_audit_creation_date              2012-12-11T16:27:22-0500
_audit_creation_method            fapswitch 2.2
_symmetry_space_group_name_H-M    P1
_symmetry_Int_Tables_number       1
_space_group_crystal_system       triclinic
_cell_length_a                    8.349929
_cell_length_b                    17.483136
_cell_length_c                    18.838978
_cell_angle_alpha                 94.552228
_cell_angle_beta                  93.269525
_cell_angle_gamma                 93.918017
_cell_volume                      2729.68769079

loop_
_atom_site_label
_atom_site_type_symbol
_atom_type_description
_atom_site_fract_x
_atom_site_fract_y
_atom_site_fract_z
_atom_type_partial_charge
Ba1   Ba    Ba6+2 0.848080 0.535720 0.465810 1.778906
Ba2   Ba    Ba6+2 0.341750 0.464340 0.534200 1.781780
C1    C     C_3   0.497585 0.793158 0.252812 0.188046
C2    C     C_3   0.424485 0.513827 0.246048 0.080912
C3    C     C_2   0.366599 0.520591 0.168649 -0.182396
C4    C     C_3   0.072036 0.693979 0.268244 0.518872
C5    C     C_2   0.210605 0.499220 0.146214 -0.144113
C6    C     C_2   0.095938 0.477039 0.202588 0.276286
C7    C     C_1   0.148911 0.482574 0.271211 0.098488
C8    C     C_R   0.050540 0.493930 0.927559 0.470400
C9    C     C_R   0.156802 0.496319 0.068112 0.459835
C10   C     C_R   0.090027 0.520040 0.799189 -0.194128
C11   C     C_R   0.033686 0.516825 0.727173 0.003778
C12   C     C_3   0.556438 0.726508 0.292678 0.761733
C13   C     C_R   0.783018 0.450544 0.755301 -0.057311
C14   C     C_R   0.833170 0.461404 0.828390 -0.222923
C15   C     C_R   0.990730 0.492032 0.850859 -0.061843
C16   C     C_3   0.017429 0.710614 0.192807 0.250087
C17   C     C_R   0.887063 0.475898 0.704929 0.172327
C18   C     C_R   0.388905 0.719753 0.475027 -0.289673
C19   C     C_R   0.536424 0.747942 0.510887 -0.099160
C20   C     C_R   0.577271 0.829524 0.514986 0.305232
C21   C     C_R   0.463151 0.878421 0.488705 0.025104
C22   C     C_R   0.318805 0.848101 0.454399 -0.150299
C23   C     C_3   0.534991 0.329687 0.315249 0.645664
C24   C     C_R   0.282182 0.769772 0.446690 0.017237
C25   C     C_R   0.593774 0.162327 0.493876 0.358350
C26   C     C_R   0.596096 0.241571 0.516896 -0.112736
C27   C     C_R   0.361725 0.222489 0.577928 0.151031
C28   C     C_3   0.066320 0.707808 0.699786 0.499096
C29   C     C_R   0.342926 0.144296 0.551965 -0.220929
C30   C     C_R   0.470145 0.112261 0.516099 -0.021321
C31   C     C_1   0.478519 0.030142 0.505991 0.085586
C32   C     C_1   0.481587 0.961129 0.498825 0.101127
C33   C     C_R   0.519341 0.256003 0.579996 0.263766
C34   C     C_3   0.568968 0.296475 0.239785 0.640521
C35   C     C_3   0.117263 0.743795 0.778365 0.601539
C36   C     C_3   0.024081 0.295758 0.384690 0.658673
C37   C     C_3   0.094160 0.217642 0.368639 0.162632
C38   C     C_3   0.567851 0.718085 0.682829 0.501520
C39   C     C_3   0.621292 0.802870 0.702624 -0.406780
C40   C     C_3   0.361957 0.796483 0.852095 -0.123517
C41   C     C_3   0.015114 0.877806 0.798369 -0.315158
C42   C     C_3   0.659786 0.650797 0.788663 -0.177294
C43   C     C_3   0.142532 0.807944 0.615314 -0.187544
C44   C     C_3   0.094118 0.315480 0.739689 0.382972
C45   C     C_3   0.089610 0.300048 0.817960 -0.299573
C46   C     C_3   0.614662 0.297817 0.802320 0.551331
C47   C     C_3   0.568976 0.213767 0.812932 0.275764
C48   C     C_2   0.286442 0.520713 0.293457 -0.269168
H1    H     H_    0.098061 0.327593 0.428782 0.105608
H2    H     H_    0.634619 0.372907 0.333268 0.090526
H3    H     H_    0.473091 0.250389 0.220918 -0.049662
H4    H     H_    0.403539 0.770296 0.210966 0.085729
H5    H     H_    0.038514 0.660395 0.155237 -0.035909
H6    H     H_    0.136298 0.376360 0.736352 0.012513
H7    H     H_    0.971136 0.303312 0.713731 -0.021857
H8    H     H_    0.207475 0.318913 0.846468 0.168799
H9    H     H_    0.995312 0.331772 0.843660 0.054957
H10   H     H_    0.062562 0.237655 0.822789 0.135254
H11   H     H_    0.613446 0.331567 0.854652 -0.021686
H12   H     H_    0.018041 0.182921 0.325601 0.072163
H13   H     H_    0.737148 0.300691 0.782358 -0.216369
H14   H     H_    0.661740 0.192455 0.849722 -0.030952
H15   H     H_    0.565132 0.178787 0.760790 0.084098
H16   H     H_    0.997303 0.642693 0.281181 -0.011052
H17   H     H_    0.454367 0.534946 0.130528 0.125739
H18   H     H_    0.209942 0.545417 0.814875 0.159319
H19   H     H_    0.750758 0.445597 0.867767 0.099238
H20   H     H_    0.295878 0.560197 0.341247 0.027151
H21   H     H_    0.232193 0.885974 0.434351 0.104263
H22   H     H_    0.235551 0.109036 0.561090 0.125979
H23   H     H_    0.216804 0.226553 0.349722 0.050805
H24   H     H_    0.200170 0.680787 0.269452 -0.156306
H25   H     H_    0.354611 0.658712 0.470571 0.085542
H26   H     H_    0.886519 0.719251 0.190469 0.079879
H27   H     H_    0.956667 0.669245 0.703566 -0.029752
H28   H     H_    0.655989 0.785509 0.376947 0.307632
H29   H     H_    0.282457 0.832979 0.755349 0.160716
H30   H     H_    0.476346 0.831834 0.848387 0.067626
H31   H     H_    0.392498 0.740699 0.871659 0.162245
H32   H     H_    0.288608 0.826657 0.891247 0.099849
H33   H     H_    0.962401 0.785084 0.855762 0.204994
H34   H     H_    0.455823 0.715832 0.648137 0.000779
H35   H     H_    0.902125 0.903731 0.812293 0.123130
H36   H     H_    0.038657 0.890798 0.743343 0.123214
H37   H     H_    0.113354 0.905862 0.835594 0.124311
H38   H     H_    0.013267 0.661516 0.827918 0.265099
H39   H     H_    0.808020 0.250525 0.370472 0.327204
H40   H     H_    0.142727 0.127432 0.415822 0.309169
H41   H     H_    0.423072 0.651223 0.747921 0.244808
H42   H     H_    0.754188 0.696542 0.806025 0.084437
H43   H     H_    0.710560 0.603581 0.756511 0.109298
H44   H     H_    0.612194 0.627600 0.837104 0.100283
H45   H     H_    0.599490 0.821083 0.226429 0.072061
H46   H     H_    0.394412 0.887488 0.270957 0.332179
H47   H     H_    0.307107 0.329365 0.288630 0.248433
H48   H     H_    0.461098 0.358702 0.173622 0.273237
H49   H     H_    0.728381 0.238355 0.193682 0.321655
H50   H     H_    0.394438 0.151097 0.846312 0.298057
H51   H     H_    0.897266 0.478242 0.146044 0.326912
H52   H     H_    0.830703 0.405769 0.623650 0.276184
H53   H     H_    0.807010 0.167686 0.461790 0.355979
H54   H     H_    0.796864 0.822929 0.551642 0.316127
H55   H     H_    0.723148 0.268952 0.635339 0.276050
H56   H     H_    0.676255 0.829155 0.658293 0.109524
H57   H     H_    0.063658 0.783548 0.123893 0.301885
H58   H     H_    0.925980 0.796086 0.665952 0.178616
H59   H     H_    0.234626 0.770432 0.595809 0.098554
H60   H     H_    0.083758 0.831316 0.568352 0.122379
H61   H     H_    0.200498 0.857655 0.649390 0.056136
H62   H     H_    0.707912 0.809682 0.749581 0.136097
H63   H     H_    0.518328 0.836644 0.714629 0.083807
H64   H     H_    0.457659 0.704559 0.324777 -0.116464
N1    N     N_R   0.180459 0.540861 0.954451 -0.228681
N2    N     N_R   0.232111 0.542179 0.023137 -0.241127
N3    N     N_R   0.030157 0.447978 0.040437 -0.223082
N4    N     N_R   0.977670 0.447080 0.972126 -0.245875
N5    N     N_2   0.276436 0.784323 0.782291 -0.392899
N6    N     N_2   0.997950 0.795474 0.805614 -0.471095
N7    N     N_2   0.531787 0.682043 0.747817 -0.407836
N8    N     N_2   0.021899 0.765842 0.652416 -0.417009
O1    O     O_2   0.870670 0.457200 0.328780 -0.420871
O2    O     O_2   0.041468 0.219809 0.593984 -0.509024
O3    O     O_3   0.203140 0.268177 0.708133 -0.551485
O4    O     O_3   0.123190 0.458470 0.416160 -0.494630
O5    O     O_3   0.570980 0.591910 0.535630 -0.443709
O6    O     O_2   0.357950 0.313790 0.466200 -0.542736
O7    O     O_3   0.526079 0.270185 0.361221 -0.652537
O8    O     O_2   0.457437 0.467870 0.753995 -0.499788
O9    O     O_3   0.502439 0.324284 0.753332 -0.539100
O10   O     O_3   0.645490 0.595990 0.371560 -0.458333
O11   O     O_2   0.755433 0.550285 0.247711 -0.458977
O12   O     O_3   0.689673 0.680273 0.648295 -0.623975
O13   O     O_3   0.018209 0.334292 0.322034 -0.633215
O14   O     O_3   0.597899 0.669428 0.241666 -0.661124
O15   O     O_2   0.831760 0.686240 0.533840 -0.438292
O16   O     O_3   0.064740 0.635370 0.406810 -0.511428
O17   O     O_2   0.949982 0.768318 0.444401 -0.443733
O18   O     O_3   0.693126 0.752338 0.336968 -0.672839
O19   O     O_3   0.124761 0.682254 0.821925 -0.765990
O20   O     O_3   0.869807 0.285386 0.407802 -0.786570
O21   O     O_3   0.101495 0.177911 0.430196 -0.734051
O22   O     O_3   0.433884 0.847103 0.300247 -0.742278
O23   O     O_3   0.051657 0.758124 0.315958 -0.538291
O24   O     O_3   0.390898 0.366126 0.313923 -0.811410
O25   O     O_3   0.573124 0.355283 0.193117 -0.696954
O26   O     O_3   0.717895 0.264158 0.241885 -0.704414
O27   O     O_3   0.418741 0.206861 0.842149 -0.716312
O28   O     O_3   0.939572 0.448665 0.184638 -0.641848
O29   O     O_3   0.844595 0.462470 0.633406 -0.676580
O30   O     O_3   0.708703 0.132859 0.452299 -0.696844
O31   O     O_3   0.724725 0.863427 0.541448 -0.727687
O32   O     O_3   0.609626 0.252382 0.642757 -0.746687
O33   O     O_3   0.102972 0.776672 0.173526 -0.712033
O34   O     O_2   0.319030 0.542820 0.671260 -0.463452
O35   O     O_3   0.066510 0.541590 0.583850 -0.399960
O36   O     O_3   0.544220 0.404070 0.628440 -0.454250
O37   O     O_3   0.188932 0.666234 0.669151 -0.653115
O38   O     O_3   0.618730 0.408150 0.464380 -0.435880
O39   O     O_3   0.124970 0.364690 0.593190 -0.504151
P1    P     P_3+3 0.041170 0.434790 0.339740 1.113403
P2    P     P_3+3 0.658290 0.675180 0.554960 1.031022
P3    P     P_3+3 0.087201 0.733834 0.403764 1.035895
P4    P     P_3+3 0.148540 0.565270 0.660270 1.055349
P5    P     P_3+3 0.193579 0.274600 0.615866 1.047569
P6    P     P_3+3 0.602890 0.580741 0.278697 1.000169
P7    P     P_3+3 0.541087 0.308931 0.450577 0.988742
P8    P     P_3+3 0.575757 0.411807 0.723379 1.011056

loop_
_geom_bond_atom_site_label_1
_geom_bond_atom_site_label_2
_ccdc_geom_bond_type
C27   P5    S    
H49   O26   S    
C16   O33   S    
C40   H30   S    
C25   O30   S    
C19   P2    S    
H47   O24   S    
C38   H34   S    
C44   O3    S    
C6    O28   S    
C40   H32   S    
C33   O32   S    
C3    H17   S    
Ba1   O10   S    
C23   O7    S    
C5    C6    S    
C5    C9    S    
C38   N7    S    
C10   H18   S    
C47   H15   S    
O17   P3    D    
C22   C24   A    
O11   P6    D    
C36   C37   S    
C1    H4    S    
C43   H59   S    
C40   N5    S    
H48   O25   S    
C8    C15   S    
C13   C14   A    
H51   O28   S    
O12   P2    S    
C13   P8    S    
Ba1   Ba2   S    
C24   P3    S    
C34   H3    S    
C45   H10   S    
C28   H27   S    
C34   O26   S    
O9    P8    S    
C28   N8    S    
C26   C33   A    
C6    C7    D    
C39   H62   S    
H29   N5    S    
C10   C15   A    
C17   O29   S    
C21   C22   A    
O10   P6    S    
C46   O9    S    
C23   O24   S    
C42   H43   S    
H39   O20   S    
H54   O31   S    
H40   O21   S    
C42   H42   S    
H52   O29   S    
Ba2   O34   S    
Ba2   O5    S    
O38   P7    S    
H55   O32   S    
C47   H14   S    
C19   C20   A    
C36   O20   S    
C40   H31   S    
Ba2   O39   S    
C4    H24   S    
C28   O37   S    
C4    C16   S    
C39   H56   S    
C11   C17   A    
C41   H35   S    
Ba1   O5    S    
Ba1   O4    S    
O35   P4    S    
O15   P2    D    
C4    O23   S    
C26   P7    S    
C43   H60   S    
C14   C15   A    
C46   H13   S    
C36   H1    S    
C12   H64   S    
C38   O12   S    
O37   P4    S    
C28   C35   S    
C2    C48   S    
H33   N6    S    
C1    O22   S    
C13   C17   A    
Ba1   O1    S    
C8    N4    A    
H46   O22   S    
C34   O25   S    
C11   P4    S    
C29   C30   A    
C35   N5    S    
Ba2   O36   S    
C21   C32   S    
C31   C32   T    
C36   O13   S    
C10   C11   A    
C9    N2    A    
Ba2   P4    S    
Ba1   P2    S    
C1    C12   S    
C35   O19   S    
H53   O30   S    
O2    P5    D    
C16   H5    S    
C29   H22   S    
O14   P6    S    
C37   O21   S    
Ba1   P1    S    
C12   O18   S    
C44   H7    S    
H50   O27   S    
O13   P1    S    
C9    N3    A    
Ba2   O4    S    
C42   N7    S    
Ba1   O15   S    
C3    C5    D    
C14   H19   S    
O1    P1    D    
C37   H12   S    
C27   C33   A    
C44   C45   S    
C38   C39   S    
O5    P2    S    
O7    P7    S    
C25   C30   A    
C41   H36   S    
Ba1   O38   S    
C7    C48   D    
O39   P5    S    
H58   N8    S    
C2    C3    S    
C18   C24   A    
H28   O18   S    
O16   P3    S    
C43   H61   S    
O36   P8    S    
O23   P3    S    
C43   N8    S    
C41   N6    S    
C2    P6    S    
C47   O27   S    
C41   H37   S    
C30   C31   S    
Ba1   O35   S    
O3    P5    S    
C48   H20   S    
C23   H2    S    
C27   C29   A    
N3    N4    A    
C45   H8    S    
C46   H11   S    
C35   N6    S    
C12   O14   S    
O34   P4    D    
Ba2   O35   S    
C46   C47   S    
C39   H63   S    
C37   H23   S    
C7    P1    S    
C42   H44   S    
Ba1   O16   S    
C23   C34   S    
C45   H9    S    
C4    H16   S    
C18   C19   A    
C18   H25   S    
Ba2   O38   S    
H41   N7    S    
C44   H6    S    
C25   C26   A    
O6    P7    D    
C20   C21   A    
C1    H45   S    
O8    P8    D    
H38   O19   S    
O4    P1    S    
H57   O33   S    
C8    N1    A    
N1    N2    A    
C22   H21   S    
C16   H26   S    
C20   O31   S    
Ba2   O6    S    
