data_mof_unit_45379.cif
_audit_creation_date              2012-12-10T20:08:45-0500
_audit_creation_method            fapswitch 2.2
_symmetry_space_group_name_H-M    P1
_symmetry_Int_Tables_number       1
_space_group_crystal_system       triclinic
_cell_length_a                    19.213879
_cell_length_b                    18.699777
_cell_length_c                    14.925578
_cell_angle_alpha                 89.442254
_cell_angle_beta                  91.613796
_cell_angle_gamma                 90.13673
_cell_volume                      5360.29632511

loop_
_atom_site_label
_atom_site_type_symbol
_atom_type_description
_atom_site_fract_x
_atom_site_fract_y
_atom_site_fract_z
_atom_type_partial_charge
C1    C     C_R   0.365831 0.499918 0.497993 0.859362
C2    C     C_R   0.634142 0.499882 0.499381 0.887980
C3    C     C_R   0.381891 0.441456 0.050728 -0.058518
C4    C     C_R   0.572249 0.610992 0.947932 -0.054141
C5    C     C_R   0.739714 0.441393 0.446877 -0.166792
C6    C     C_R   0.251983 0.558904 0.513649 -0.190580
C7    C     C_R   0.257128 0.440571 0.448482 -0.195835
C8    C     C_R   0.750109 0.555021 0.523629 -0.181337
C9    C     C_R   0.810833 0.441120 0.434271 -0.200616
C10   C     C_R   0.180180 0.558857 0.501043 -0.176812
C11   C     C_R   0.185566 0.440684 0.435390 -0.194422
C12   C     C_R   0.821295 0.554818 0.510948 -0.193667
C13   C     C_R   0.851687 0.498022 0.465861 0.112543
C14   C     C_R   0.146763 0.499597 0.462109 0.120711
C15   C     C_R   0.709056 0.498684 0.490950 0.000560
C16   C     C_R   0.290583 0.499552 0.487829 -0.026224
C17   C     C_R   0.961649 0.557213 0.425223 -0.197288
C18   C     C_R   0.035770 0.435801 0.482652 -0.192776
C19   C     C_R   0.033821 0.557624 0.424261 -0.182508
C20   C     C_R   0.963755 0.435308 0.483230 -0.178913
C21   C     C_R   0.071093 0.497339 0.454545 0.111103
C22   C     C_R   0.926639 0.496444 0.456156 0.112112
C23   C     C_R   0.558892 0.728238 0.522166 0.110087
C24   C     C_R   0.481949 0.272488 0.424282 0.109521
C25   C     C_R   0.440137 0.726813 0.477700 0.100227
C26   C     C_R   0.519135 0.272614 0.576347 0.129098
C27   C     C_R   0.560147 0.802935 0.510848 -0.336901
C28   C     C_R   0.490300 0.197898 0.422412 -0.328925
C29   C     C_R   0.436710 0.801073 0.490420 -0.328215
C30   C     C_R   0.508778 0.198271 0.581007 -0.332801
C31   C     C_R   0.497853 0.841516 0.501205 0.152757
C32   C     C_R   0.498878 0.158590 0.502445 0.147135
C33   C     C_R   0.502722 0.500788 0.327148 0.901203
C34   C     C_R   0.497420 0.499659 0.673055 0.898514
C35   C     C_R   0.452673 0.962961 0.442466 -0.053530
C36   C     C_R   0.545451 0.037191 0.558927 -0.053319
C37   C     C_R   0.540510 0.961311 0.564330 -0.054185
C38   C     C_R   0.448613 0.038782 0.448999 -0.052567
C39   C     C_R   0.497672 0.077113 0.503585 -0.007275
C40   C     C_R   0.496924 0.922983 0.502595 -0.008377
C41   C     C_R   0.532779 0.550804 0.813082 -0.239278
C42   C     C_R   0.447574 0.469882 0.186983 -0.261403
C43   C     C_R   0.491569 0.500889 0.769051 -0.108086
C44   C     C_R   0.501488 0.504928 0.231104 -0.094655
C45   C     C_R   0.442677 0.459194 0.814818 -0.077990
C46   C     C_R   0.546763 0.551319 0.185984 -0.046293
C47   C     C_R   0.434396 0.470936 0.907670 0.011705
C48   C     C_R   0.536950 0.561543 0.092231 0.015246
C49   C     C_R   0.482714 0.516987 0.953092 0.035390
C50   C     C_R   0.485587 0.518840 0.046686 0.033215
C51   C     C_R   0.529487 0.559784 0.904723 0.009897
C52   C     C_R   0.438244 0.476265 0.094849 0.017523
C53   C     C_R   0.378998 0.439828 0.956336 -0.061234
C54   C     C_R   0.575773 0.612621 0.042201 -0.059410
H1    H     H_    0.570149 0.580646 0.774586 0.199104
H2    H     H_    0.412902 0.437223 0.226028 0.185378
H3    H     H_    0.708550 0.397623 0.420525 0.149419
H4    H     H_    0.277143 0.604676 0.544605 0.131405
H5    H     H_    0.286173 0.394517 0.427375 0.205893
H6    H     H_    0.727490 0.598735 0.559231 0.170251
H7    H     H_    0.833922 0.396984 0.399292 0.130470
H8    H     H_    0.150644 0.604233 0.523528 0.125310
H9    H     H_    0.160472 0.394773 0.404618 0.136972
H10   H     H_    0.852767 0.598343 0.537333 0.134773
H11   H     H_    0.933145 0.604453 0.403290 0.124391
H12   H     H_    0.063890 0.389204 0.507520 0.127033
H13   H     H_    0.060570 0.605165 0.401333 0.130850
H14   H     H_    0.937148 0.388373 0.508302 0.133402
H15   H     H_    0.609377 0.830737 0.516363 0.138208
H16   H     H_    0.485084 0.170717 0.359062 0.140679
H17   H     H_    0.386669 0.827129 0.485447 0.140223
H18   H     H_    0.513705 0.171550 0.645267 0.137593
N1    N     N_R   0.500000 0.689440 0.500000 -0.112298
N2    N     N_R   0.500000 0.310560 0.500000 -0.108577
O1    O     O_R   0.398180 0.560840 0.499980 -0.612243
O2    O     O_R   0.601820 0.439160 0.500020 -0.584134
O3    O     O_R   0.601820 0.560840 0.500020 -0.608522
O4    O     O_R   0.398180 0.439160 0.499980 -0.588402
O5    O     O_R   0.499980 0.560820 0.367840 -0.583980
O6    O     O_R   0.500020 0.439180 0.632160 -0.592210
O7    O     O_R   0.500020 0.560820 0.632160 -0.589459
O8    O     O_R   0.499980 0.439180 0.367840 -0.619464
Zn1   Zn    Zn3+2 0.500000 0.581210 0.500000 1.012295
Zn2   Zn    Zn3+2 0.500000 0.418790 0.500000 1.022147
C55   C     C_R   0.412335 0.925995 0.369861 0.126518
C56   C     C_R   0.447598 0.891278 0.301530 -0.155459
C57   C     C_R   0.410234 0.854872 0.234354 -0.129302
C58   C     C_R   0.337541 0.853065 0.234656 -0.095244
C59   C     C_R   0.302014 0.887631 0.302157 -0.149171
C60   C     C_R   0.339108 0.923929 0.369630 -0.163887
H19   H     H_    0.503940 0.892114 0.300808 0.120688
H20   H     H_    0.437563 0.827942 0.182086 0.121329
H21   H     H_    0.308740 0.824772 0.182638 0.124444
H22   H     H_    0.245716 0.885986 0.302465 0.128455
H23   H     H_    0.310993 0.949532 0.422345 0.130775
C61   C     C_R   0.603035 0.074300 0.608673 0.126131
C62   C     C_R   0.655563 0.109082 0.561121 -0.155201
C63   C     C_R   0.709010 0.145463 0.607076 -0.129387
C64   C     C_R   0.710562 0.147204 0.700693 -0.100217
C65   C     C_R   0.658664 0.112564 0.748574 -0.149702
C66   C     C_R   0.605028 0.076239 0.702946 -0.163199
H24   H     H_    0.654800 0.108261 0.488550 0.125543
H25   H     H_    0.749186 0.172413 0.570091 0.129277
H26   H     H_    0.751936 0.175488 0.736134 0.127502
H27   H     H_    0.659807 0.114149 0.821062 0.130133
H28   H     H_    0.564539 0.050543 0.740778 0.130920
C67   C     C_R   0.578156 0.922530 0.638603 0.128820
C68   C     C_R   0.540157 0.888228 0.705699 -0.149030
C69   C     C_R   0.574769 0.851731 0.775866 -0.141210
C70   C     C_R   0.647467 0.849046 0.779498 -0.083092
C71   C     C_R   0.685711 0.882836 0.712942 -0.145205
C72   C     C_R   0.651352 0.919526 0.642729 -0.163551
H29   H     H_    0.483793 0.889993 0.703654 0.124620
H30   H     H_    0.545206 0.825656 0.827539 0.122666
H31   H     H_    0.674177 0.820848 0.833927 0.167733
H32   H     H_    0.742007 0.880560 0.715720 0.132914
H33   H     H_    0.681560 0.944975 0.591155 0.129893
C73   C     C_R   0.390605 0.077817 0.401745 0.127496
C74   C     C_R   0.341104 0.114124 0.451769 -0.149803
C75   C     C_R   0.288062 0.153338 0.408336 -0.139798
C76   C     C_R   0.283780 0.156352 0.314762 -0.079660
C77   C     C_R   0.332534 0.120152 0.264421 -0.132647
C78   C     C_R   0.385836 0.081072 0.307527 -0.169957
H34   H     H_    0.344099 0.112555 0.524345 0.120982
H35   H     H_    0.250405 0.181593 0.447251 0.122049
H36   H     H_    0.242771 0.186887 0.281254 0.136784
H37   H     H_    0.329321 0.122795 0.191957 0.138372
H38   H     H_    0.424081 0.054468 0.267725 0.132576
C79   C     C_R   0.407524 0.398806 0.767828 0.138172
C80   C     C_R   0.426963 0.328206 0.789184 -0.176544
C81   C     C_R   0.394972 0.270906 0.744640 -0.194189
C82   C     C_R   0.343182 0.283696 0.678909 -0.110246
C83   C     C_R   0.322971 0.353769 0.658105 -0.084069
C84   C     C_R   0.355239 0.411297 0.701925 -0.093685
H39   H     H_    0.466908 0.317690 0.840223 0.131313
H40   H     H_    0.410402 0.216612 0.761042 0.128480
H41   H     H_    0.318418 0.239311 0.644510 0.118443
H42   H     H_    0.282028 0.363395 0.608362 0.127476
H43   H     H_    0.339034 0.465395 0.685602 0.090781
C85   C     C_R   0.609760 0.578236 0.235446 0.078637
C86   C     C_R   0.672945 0.541233 0.229695 -0.206581
C87   C     C_R   0.733080 0.567192 0.273306 -0.133102
C88   C     C_R   0.730324 0.629627 0.323789 -0.113249
C89   C     C_R   0.667281 0.665737 0.331793 -0.138227
C90   C     C_R   0.607145 0.640298 0.287826 -0.052074
H44   H     H_    0.675766 0.493065 0.190275 0.139325
H45   H     H_    0.781897 0.539064 0.267711 0.142077
H46   H     H_    0.777033 0.649937 0.356889 0.123357
H47   H     H_    0.665256 0.714142 0.370737 0.107003
H48   H     H_    0.558999 0.669823 0.292767 0.153581
C91   C     C_R   0.312198 0.419805 0.910084 0.144340
C92   C     C_R   0.269462 0.473661 0.872275 -0.186696
C93   C     C_R   0.207084 0.455849 0.827300 -0.137830
C94   C     C_R   0.186778 0.384277 0.820117 -0.116935
C95   C     C_R   0.228775 0.330389 0.857979 -0.136105
C96   C     C_R   0.291282 0.347949 0.902786 -0.019494
H49   H     H_    0.284819 0.529290 0.877084 0.129555
H50   H     H_    0.174611 0.497520 0.797737 0.133782
H51   H     H_    0.138614 0.370563 0.784984 0.125502
H52   H     H_    0.213209 0.274951 0.851939 0.123924
H53   H     H_    0.323947 0.305621 0.930472 0.148368
C97   C     C_R   0.609736 0.675525 0.085206 0.149393
C98   C     C_R   0.568929 0.733750 0.110549 -0.194252
C99   C     C_R   0.600532 0.794612 0.147371 -0.150755
C100  C     C_R   0.672929 0.797934 0.158503 -0.124358
C101  C     C_R   0.713930 0.740495 0.132600 -0.130605
C102  C     C_R   0.682571 0.679473 0.095966 -0.007009
H54   H     H_    0.512828 0.731908 0.101593 0.128946
H55   H     H_    0.568999 0.839354 0.166947 0.123512
H56   H     H_    0.697262 0.845062 0.187073 0.120749
H57   H     H_    0.769988 0.743134 0.141175 0.122811
H58   H     H_    0.714810 0.635304 0.075958 0.142317
C103  C     C_2   0.323651 0.412243 0.104082 0.397011
H59   H     H_    0.301874 0.444305 0.156622 0.076822
O9    O     O_2   0.302007 0.351516 0.092981 -0.584715
C104  C     C_2   0.609207 0.665809 0.893416 0.380970
H60   H     H_    0.581546 0.693054 0.838711 0.078894
O10   O     O_2   0.671006 0.678337 0.906159 -0.582036
C105  C     C_2   0.620172 0.696103 0.567038 0.454528
H61   H     H_    0.671911 0.713935 0.549672 -0.006386
O11   O     O_2   0.613480 0.654638 0.629781 -0.570924
C106  C     C_2   0.447744 0.305621 0.345315 0.462740
H62   H     H_    0.463535 0.291479 0.278530 0.024321
O12   O     O_2   0.397495 0.344368 0.353903 -0.582588
C107  C     C_2   0.379899 0.693821 0.431407 0.463103
H63   H     H_    0.327501 0.708751 0.448989 0.005172
O13   O     O_2   0.388073 0.654563 0.367767 -0.547074
C108  C     C_2   0.558451 0.304701 0.651947 0.474060
H64   H     H_    0.551899 0.284210 0.719395 0.016820
O14   O     O_2   0.604023 0.348749 0.639089 -0.545982

loop_
_geom_bond_atom_site_label_1
_geom_bond_atom_site_label_2
_ccdc_geom_bond_type
C30   C32   A    
C57   C58   A    
C45   C79   S    
C100  C101  A    
C18   C21   A    
C35   C55   S    
C67   C72   A    
C6    H4    S    
C80   H39   S    
O6    Zn2   S    
C24   N2    A    
O2    Zn2   S    
C62   C63   A    
C107  H63   S    
C60   H23   S    
C47   C49   A    
C74   H34   S    
C31   C40   S    
C48   C54   A    
C12   C13   A    
C65   H27   S    
C9    H7    S    
C14   C21   S    
C36   C37   A    
C19   C21   A    
C25   N1    A    
C97   C98   A    
C37   C40   A    
C11   H9    S    
C56   H19   S    
C72   H33   S    
C12   H10   S    
C11   C14   A    
C107  O13   D    
O3    Zn1   S    
C88   C89   A    
C59   H22   S    
C68   C69   A    
C108  O14   D    
C32   C39   S    
C77   H37   S    
C49   C50   A    
C9    C13   A    
C73   C74   A    
C41   H1    S    
C42   H2    S    
C106  H62   S    
C90   H48   S    
C26   C108  S    
C3    C103  S    
C98   C99   A    
C82   C83   A    
C49   C51   A    
C50   C52   A    
C67   C68   A    
C19   H13   S    
C71   H32   S    
C34   O7    A    
C23   C27   A    
C33   O8    A    
C23   C105  S    
C62   H24   S    
C27   H15   S    
C8    C12   A    
C47   C53   A    
C34   O6    A    
C104  O10   D    
C64   H26   S    
C91   C92   A    
C83   H42   S    
C103  H59   S    
C61   C66   A    
C1    O4    A    
C41   C43   A    
C99   C100  A    
C99   H55   S    
C10   H8    S    
C42   C44   A    
C23   N1    A    
C7    H5    S    
O7    Zn1   S    
C44   C46   A    
C77   C78   A    
C45   C47   A    
C25   C29   A    
C88   H46   S    
C46   C48   A    
C93   H50   S    
C4    C51   A    
C27   C31   A    
C1    O1    A    
C28   C32   A    
C35   C38   A    
C85   C86   A    
C81   H40   S    
C10   C14   A    
C84   H43   S    
C57   H20   S    
C75   H35   S    
C33   O5    A    
C82   H41   S    
C55   C56   A    
C24   C106  S    
C70   C71   A    
C108  H64   S    
C68   H29   S    
C7    C11   A    
C5    C9    A    
C89   H47   S    
C36   C61   S    
C80   C81   A    
C64   C65   A    
C55   C60   A    
C61   C62   A    
C76   C77   A    
C1    C16   S    
C91   C96   A    
C54   C97   S    
C74   C75   A    
C2    C15   S    
C43   C45   A    
C94   C95   A    
C103  O9    D    
C25   C107  S    
C86   H44   S    
C69   H30   S    
C104  H60   S    
C20   C22   A    
C96   H53   S    
C26   C30   A    
C8    C15   A    
O8    Zn2   S    
C83   C84   A    
C17   C19   A    
C81   C82   A    
C66   H28   S    
C2    O2    A    
C75   C76   A    
C46   C85   S    
C79   C80   A    
C100  H56   S    
C97   C102  A    
C58   H21   S    
C7    C16   A    
C71   C72   A    
C4    C54   A    
C95   H52   S    
C56   C57   A    
C33   C44   S    
C87   H45   S    
C20   H14   S    
C36   C39   A    
C28   H16   S    
C34   C43   S    
C24   C28   A    
N2    Zn2   S    
C89   C90   A    
C85   C90   A    
C6    C10   A    
C30   H18   S    
C3    C52   A    
C37   C67   S    
C102  H58   S    
C105  H61   S    
C18   H12   S    
C17   H11   S    
C17   C22   A    
C5    H3    S    
C35   C40   A    
C59   C60   A    
C98   H54   S    
C94   H51   S    
C29   C31   A    
C2    O3    A    
C86   C87   A    
C8    H6    S    
O5    Zn1   S    
C3    C53   A    
O1    Zn1   S    
C78   H38   S    
C38   C39   A    
C101  C102  A    
C48   C50   A    
C65   C66   A    
C26   N2    A    
C41   C51   A    
C13   C22   S    
C92   H49   S    
C18   C20   A    
C73   C78   A    
C106  O12   D    
C5    C15   A    
C101  H57   S    
C6    C16   A    
C79   C84   A    
C38   C73   S    
O4    Zn2   S    
C76   H36   S    
C58   C59   A    
C63   C64   A    
C4    C104  S    
C95   C96   A    
C53   C91   S    
C87   C88   A    
C92   C93   A    
C105  O11   D    
C93   C94   A    
C69   C70   A    
C70   H31   S    
N1    Zn1   S    
C63   H25   S    
C42   C52   A    
C29   H17   S    
