data_mof_unit_12799.cif
_audit_creation_date              2012-12-10T18:06:51-0500
_audit_creation_method            fapswitch 2.2
_symmetry_space_group_name_H-M    P1
_symmetry_Int_Tables_number       1
_space_group_crystal_system       triclinic
_cell_length_a                    12.59257
_cell_length_b                    13.250554
_cell_length_c                    15.509062
_cell_angle_alpha                 84.249604
_cell_angle_beta                  100.150736
_cell_angle_gamma                 95.711463
_cell_volume                      2525.6262737

loop_
_atom_site_label
_atom_site_type_symbol
_atom_type_description
_atom_site_fract_x
_atom_site_fract_y
_atom_site_fract_z
_atom_type_partial_charge
Br1   Br    Br    0.807310 0.996653 0.357139 -0.467406
Br2   Br    Br    0.214960 0.006942 0.654997 -0.356865
Br3   Br    Br    0.913126 0.687917 0.697760 -0.439495
Br4   Br    Br    0.166320 0.732116 0.720079 -0.359359
Br5   Br    Br    0.154382 0.448589 0.394419 -0.542251
Br6   Br    Br    0.798726 0.333075 0.089027 -0.384118
Br7   Br    Br    0.442438 0.707827 0.835393 -0.452326
Br8   Br    Br    0.570959 0.304485 0.166502 -0.500596
C1    C     C_R   0.442322 0.309468 0.504809 0.896092
C2    C     C_R   0.668126 0.448133 0.940917 -0.091553
C3    C     C_R   0.574243 0.499237 0.904245 0.006837
C4    C     C_R   0.434553 0.512943 0.335882 0.891241
C5    C     C_R   0.741100 0.431276 0.884155 0.533637
C6    C     C_R   0.709765 0.448655 0.792922 -0.247444
C7    C     C_R   0.542059 0.506734 0.813735 -0.150526
C8    C     C_R   0.678748 0.945461 0.403344 0.292511
C9    C     C_R   0.570723 0.799838 0.459074 -0.223493
C10   C     C_R   0.329439 0.162471 0.557240 -0.220011
C11   C     C_R   0.312963 0.058480 0.577028 0.309671
C12   C     C_R   0.440738 0.510792 0.096948 0.071404
C13   C     C_R   0.373799 0.993132 0.545214 -0.166113
C14   C     C_R   0.444801 0.030470 0.485501 0.045891
C15   C     C_R   0.457963 0.135637 0.462557 0.066933
C16   C     C_R   0.552157 0.691352 0.484480 0.920333
C17   C     C_R   0.509553 0.966871 0.453164 -0.041533
C18   C     C_R   0.598666 0.008803 0.413295 0.017823
C19   C     C_R   0.601506 0.111316 0.381911 -0.134134
C20   C     C_R   0.525862 0.171894 0.400752 -0.165386
C21   C     C_R   0.486319 0.862286 0.457166 0.418671
C22   C     C_R   0.667454 0.842028 0.432119 -0.264275
C23   C     C_R   0.348144 0.562008 0.059127 0.011292
C24   C     C_R   0.406174 0.201671 0.504472 -0.147821
C25   C     C_R   0.145421 0.633432 0.634778 0.240746
C26   C     C_R   0.759620 0.370784 0.405100 0.030139
C27   C     C_R   0.853860 0.323891 0.407726 -0.186592
C28   C     C_R   0.566011 0.487814 0.663889 0.910293
C29   C     C_R   0.949116 0.363721 0.456954 -0.102707
C30   C     C_R   0.952195 0.456172 0.495832 0.041679
C31   C     C_R   0.852836 0.490438 0.502537 0.175209
C32   C     C_R   0.048838 0.511999 0.532244 -0.144229
C33   C     C_R   0.045776 0.583996 0.595056 -0.036919
C34   C     C_R   0.512826 0.483484 0.044433 -0.057971
C35   C     C_R   0.942894 0.604265 0.611653 0.263036
C36   C     C_R   0.849727 0.562065 0.561657 -0.262090
C37   C     C_R   0.147370 0.504592 0.503104 0.333607
C38   C     C_R   0.240880 0.612749 0.609675 -0.075215
C39   C     C_R   0.396677 0.522643 0.240955 -0.112830
C40   C     C_R   0.607943 0.481685 0.757989 -0.125527
C41   C     C_R   0.270224 0.578588 0.110724 0.511718
C42   C     C_R   0.295208 0.555156 0.203028 -0.314971
C43   C     C_R   0.467812 0.501667 0.187446 -0.182474
C44   C     C_3   0.926852 0.457758 0.912201 0.109432
C45   C     C_R   0.505257 0.528924 0.957823 -0.013984
C46   C     C_3   0.995159 0.428576 0.847480 -0.349058
C47   C     C_3   0.106137 0.487964 0.858586 -0.831435
C48   C     C_3   0.326869 0.814836 0.367572 0.101632
C49   C     C_3   0.263985 0.908637 0.335403 -0.356461
C50   C     C_3   0.187988 0.894331 0.248665 -0.889533
C51   C     C_3   0.112719 0.659174 0.119501 0.063241
C52   C     C_3   0.027318 0.581575 0.153191 -0.338062
C53   C     C_3   0.975756 0.624044 0.222361 -0.861912
C54   C     C_R   0.426548 0.600328 0.926997 0.247164
C55   C     C_R   0.342894 0.607357 0.973476 -0.212387
C56   C     C_R   0.592390 0.413057 0.075708 0.190665
C57   C     C_R   0.678016 0.407307 0.029643 0.270507
H1    H     H_    0.280913 0.658334 0.946460 0.236829
H2    H     H_    0.018914 0.320211 0.466133 0.196929
H3    H     H_    0.852501 0.255691 0.374394 0.202958
H4    H     H_    0.774775 0.583860 0.573186 0.239644
H5    H     H_    0.761953 0.429465 0.749612 0.175383
H6    H     H_    0.239677 0.566152 0.246135 0.193797
H7    H     H_    0.549125 0.484645 0.216431 0.201634
H8    H     H_    0.976439 0.454663 0.979016 0.201501
H9    H     H_    0.906583 0.538431 0.895337 0.144773
H10   H     H_    0.006377 0.345845 0.858582 0.259264
H11   H     H_    0.952897 0.444601 0.779059 0.218969
H12   H     H_    0.731583 0.794270 0.429430 0.216480
H13   H     H_    0.097268 0.570931 0.853472 0.308614
H14   H     H_    0.150709 0.471383 0.806585 0.260446
H15   H     H_    0.153806 0.465332 0.923758 0.273630
H16   H     H_    0.268469 0.746133 0.366961 0.183595
H17   H     H_    0.382476 0.803692 0.321219 0.112904
H18   H     H_    0.215596 0.923441 0.385544 0.260628
H19   H     H_    0.321624 0.976152 0.325676 0.230420
H20   H     H_    0.234227 0.878107 0.197609 0.261355
H21   H     H_    0.146976 0.965004 0.226139 0.295063
H22   H     H_    0.125159 0.830978 0.257508 0.258442
H23   H     H_    0.659927 0.144623 0.341566 0.204214
H24   H     H_    0.069368 0.720055 0.077243 0.192309
H25   H     H_    0.165418 0.699073 0.173077 0.126168
H26   H     H_    0.963071 0.561714 0.097165 0.227320
H27   H     H_    0.064067 0.510432 0.182060 0.264745
H28   H     H_    0.038028 0.641641 0.280316 0.268572
H29   H     H_    0.913394 0.566705 0.244340 0.286883
H30   H     H_    0.936546 0.694335 0.194483 0.264876
H31   H     H_    0.287585 0.212651 0.588226 0.193058
H32   H     H_    0.367612 0.914459 0.571095 0.230749
H33   H     H_    0.523411 0.248117 0.369028 0.180811
H34   H     H_    0.317759 0.647706 0.640380 0.208151
H35   H     H_    0.460684 0.525293 0.786462 0.193133
H36   H     H_    0.684525 0.339949 0.368885 0.151710
N1    N     N_R   0.239390 0.551900 0.544730 -0.142881
N2    N     N_R   0.759950 0.448600 0.455730 -0.129191
O1    O     O_R   0.374950 0.371210 0.521360 -0.583201
O2    O     O_3   0.379967 0.821816 0.455528 -0.633382
O3    O     O_3   0.171894 0.613234 0.066696 -0.661166
O4    O     O_R   0.542050 0.338030 0.492790 -0.622580
O5    O     O_R   0.368720 0.526070 0.390200 -0.576216
O6    O     O_R   0.535820 0.492890 0.361630 -0.632611
O7    O     O_R   0.457950 0.661970 0.507210 -0.557460
O8    O     O_R   0.625050 0.628790 0.478640 -0.643751
O9    O     O_R   0.464180 0.507110 0.638370 -0.621243
O10   O     O_R   0.631280 0.473930 0.609800 -0.631159
O11   O     O_3   0.836139 0.385827 0.915079 -0.599929
Zn1   Zn    Zn3+2 0.388420 0.522150 0.519080 1.001995
Zn2   Zn    Zn3+2 0.611580 0.477850 0.480920 0.944477

loop_
_geom_bond_atom_site_label_1
_geom_bond_atom_site_label_2
_ccdc_geom_bond_type
C38   H34   S    
C9    C22   A    
C9    C21   A    
C7    H35   S    
C42   H6    S    
C50   H22   S    
C48   H16   S    
C38   N1    A    
Br3   C35   S    
C18   C19   A    
C29   C30   A    
O5    Zn1   S    
C11   C13   A    
C10   C11   A    
C12   C43   A    
C44   H9    S    
C34   C45   A    
C30   C31   A    
C53   H28   S    
C52   H26   S    
C8    C22   A    
C13   H32   S    
C48   C49   S    
C26   C27   A    
C51   H24   S    
N1    Zn1   S    
O6    Zn2   S    
C46   C47   S    
C22   H12   S    
C3    C7    A    
Br6   C57   S    
C14   C17   A    
C28   O9    A    
C49   H18   S    
C28   C40   S    
O8    Zn2   S    
C5    O11   S    
C3    C45   A    
O10   Zn2   S    
C55   H1    S    
C51   C52   S    
C13   C14   A    
C17   C21   A    
C25   C38   A    
C33   C35   A    
C21   O2    S    
C6    H5    S    
C16   O8    A    
C7    C40   A    
C23   C41   A    
C4    C39   S    
C28   O10   A    
C50   H21   S    
C4    O6    A    
C44   C46   S    
C39   C42   A    
C52   H27   S    
C8    C18   A    
C32   C37   A    
O4    Zn2   S    
C26   H36   S    
C51   O3    S    
C23   C55   A    
C16   O7    A    
C44   H8    S    
C2    C3    A    
C4    O5    A    
C47   H13   S    
C53   H29   S    
C6    C40   A    
C17   C18   A    
Br5   C37   S    
C52   C53   S    
C51   H25   S    
C35   C36   A    
Br7   C54   S    
C54   C55   A    
O1    Zn1   S    
C47   H14   S    
C45   C54   A    
C12   C34   A    
C49   H19   S    
C36   H4    S    
Br1   C8    S    
C15   C20   A    
C48   H17   S    
C41   O3    S    
Br8   C56   S    
C46   H11   S    
C32   C33   A    
C1    C24   S    
C10   C24   A    
C43   H7    S    
C50   H20   S    
C34   C56   A    
C2    C57   A    
C20   H33   S    
Br4   C25   S    
C27   C29   A    
Br2   C11   S    
C10   H31   S    
C2    C5    A    
C39   C43   A    
C53   H30   S    
C31   N2    A    
C31   C36   A    
C44   O11   S    
C1    O4    A    
C26   N2    A    
C25   C33   A    
C56   C57   A    
C9    C16   S    
C15   C24   A    
C30   C32   A    
C47   H15   S    
C49   C50   S    
C27   H3    S    
C1    O1    A    
C29   H2    S    
N2    Zn2   S    
C19   H23   S    
C48   O2    S    
C37   N1    A    
C46   H10   S    
C41   C42   A    
C19   C20   A    
C14   C15   A    
C5    C6    A    
O7    Zn1   S    
O9    Zn1   S    
C12   C23   A    
