data_mof_unit_22558.cif
_audit_creation_date              2012-12-10T16:53:09-0500
_audit_creation_method            fapswitch 2.2
_symmetry_space_group_name_H-M    P1
_symmetry_Int_Tables_number       1
_space_group_crystal_system       triclinic
_cell_length_a                    10.775442
_cell_length_b                    10.931023
_cell_length_c                    9.705591
_cell_angle_alpha                 89.631483
_cell_angle_beta                  89.929201
_cell_angle_gamma                 90.28131
_cell_volume                      1143.15026455

loop_
_atom_site_label
_atom_site_type_symbol
_atom_type_description
_atom_site_fract_x
_atom_site_fract_y
_atom_site_fract_z
_atom_type_partial_charge
C1    C     C_R   0.495012 0.265429 0.500519 0.812940
C2    C     C_R   0.066606 0.608392 0.554948 0.057776
C3    C     C_R   0.128810 0.505798 0.499949 -0.143255
C4    C     C_R   0.062281 0.407716 0.442918 0.131882
C5    C     C_R   0.934085 0.410221 0.442520 -0.209649
C6    C     C_R   0.870942 0.508508 0.499756 -0.127706
C7    C     C_2   0.492140 0.933695 0.388902 -0.119112
C8    C     C_2   0.516728 0.865788 0.500452 -0.287017
C9    C     C_2   0.504174 0.066968 0.392058 -0.139034
C10   C     C_2   0.474740 0.133905 0.503154 0.027152
C11   C     C_2   0.427942 0.428717 0.922354 0.253043
C12   C     C_R   0.262620 0.500574 0.500054 0.831075
C13   C     C_2   0.431989 0.426038 0.078546 -0.116925
C14   C     C_R   0.503588 0.734428 0.499662 0.804763
C15   C     C_R   0.737286 0.502604 0.499893 0.794279
C16   C     C_R   0.131706 0.711189 0.606285 -0.152757
C17   C     C_R   0.067953 0.811684 0.658035 -0.108897
C18   C     C_R   0.938841 0.812287 0.658887 -0.133149
C19   C     C_R   0.872724 0.712529 0.607683 -0.167959
C20   C     C_R   0.935484 0.609414 0.555377 0.097621
Cu1   Cu    Cu3+1 0.500020 0.500020 0.638630 0.963918
Cu2   Cu    Cu3+1 0.499980 0.499980 0.361370 0.961322
H1    H     H_    0.563477 0.553272 0.893754 0.166546
H2    H     H_    0.373676 0.359255 0.131036 0.183130
H3    H     H_    0.550928 0.565161 0.105421 0.190322
H4    H     H_    0.231941 0.715833 0.605434 0.143925
H5    H     H_    0.118991 0.889786 0.696704 0.147818
H6    H     H_    0.889673 0.890813 0.698290 0.137638
H7    H     H_    0.772543 0.717823 0.607896 0.131144
H8    H     H_    0.883046 0.333585 0.399922 0.165197
H9    H     H_    0.467939 0.891240 0.291609 0.163449
H10   H     H_    0.549943 0.906641 0.595129 0.171021
H11   H     H_    0.538224 0.111102 0.298677 0.139877
N1    N     N_2   0.498640 0.498660 0.846910 -0.268217
N2    N     N_2   0.498610 0.498630 0.153040 -0.288046
O1    O     O_R   0.500020 0.321960 0.617040 -0.554700
O2    O     O_R   0.499980 0.321920 0.382900 -0.577797
O3    O     O_R   0.319670 0.500020 0.617100 -0.552029
O4    O     O_R   0.319630 0.499980 0.382950 -0.552433
O5    O     O_R   0.500020 0.678080 0.617100 -0.591330
O6    O     O_R   0.499980 0.678040 0.382960 -0.575327
O7    O     O_R   0.680370 0.500020 0.617050 -0.579995
O8    O     O_R   0.680330 0.499980 0.382900 -0.569719
I1    I     I_    0.148816 0.249239 0.361517 -0.429604
N3    N     N_3   0.413571 0.080266 0.620844 -0.581676
H12   H     H_    0.467617 0.097599 0.708025 0.215428
H13   H     H_    0.328377 0.124125 0.633875 0.243383
N4    N     N_3   0.342135 0.348544 0.855247 -0.506431
H14   H     H_    0.253065 0.369407 0.890524 0.210025
H15   H     H_    0.362045 0.259070 0.886445 0.188088

loop_
_geom_bond_atom_site_label_1
_geom_bond_atom_site_label_2
_ccdc_geom_bond_type
Cu1   N1    S    
C2    C16   A    
C6    C20   A    
C9    C10   D    
Cu2   O8    S    
C1    O2    A    
H1    N1    S    
C12   O4    A    
N4    H15   S    
C17   C18   A    
C15   O8    A    
C7    C8    D    
Cu1   O1    S    
N3    H12   S    
C9    H11   S    
Cu2   N2    S    
C11   C13   S    
C11   N4    S    
Cu1   O7    S    
Cu1   O5    S    
C10   N3    S    
C14   O6    A    
Cu2   O4    S    
N4    H14   S    
H3    N2    S    
C13   N2    D    
C2    C3    A    
N3    H13   S    
C16   H4    S    
C5    C6    A    
C13   H2    S    
Cu2   O6    S    
C7    H9    S    
C1    C10   S    
C14   O5    A    
C3    C4    A    
C19   H7    S    
C12   O3    A    
C18   H6    S    
C15   O7    A    
C18   C19   A    
C5    H8    S    
C7    C9    S    
C8    H10   S    
C16   C17   A    
C8    C14   S    
C3    C12   S    
C4    I1    S    
C6    C15   S    
Cu1   Cu2   S    
Cu2   O2    S    
C2    C20   A    
C11   N1    D    
Cu1   O3    S    
C19   C20   A    
C1    O1    A    
C4    C5    A    
C17   H5    S    
