data_mof_unit_42280.cif
_audit_creation_date              2012-12-10T17:18:55-0500
_audit_creation_method            fapswitch 2.2
_symmetry_space_group_name_H-M    P1
_symmetry_Int_Tables_number       1
_space_group_crystal_system       triclinic
_cell_length_a                    10.268287
_cell_length_b                    10.778282
_cell_length_c                    13.616876
_cell_angle_alpha                 92.377336
_cell_angle_beta                  101.191689
_cell_angle_gamma                 96.863335
_cell_volume                      1464.54816715

loop_
_atom_site_label
_atom_site_type_symbol
_atom_type_description
_atom_site_fract_x
_atom_site_fract_y
_atom_site_fract_z
_atom_type_partial_charge
C1    C     C_R   0.051413 0.732878 0.488722 0.854420
C2    C     C_2   0.011756 0.063802 0.540708 0.224723
C3    C     C_2   0.429177 0.528412 0.469078 0.444790
C4    C     C_2   0.570358 0.493019 0.480108 0.437912
C5    C     C_R   0.097958 0.526653 0.685213 0.935667
C6    C     C_R   0.903302 0.477102 0.314710 1.011609
C7    C     C_R   0.157107 0.559497 0.792912 -0.328479
C8    C     C_R   0.844577 0.444864 0.207829 -0.297115
C9    C     C_R   0.138749 0.607985 0.967114 0.258110
C10   C     C_R   0.824426 0.330966 0.045500 0.352156
C11   C     C_R   0.089563 0.613916 0.862155 0.266519
C12   C     C_R   0.949213 0.269148 0.514975 0.872208
C13   C     C_R   0.885393 0.349843 0.148667 0.297275
C14   C     C_R   0.289281 0.538869 0.826805 0.289614
C15   C     C_R   0.736443 0.505835 0.165705 0.329285
C16   C     C_R   0.329448 0.512707 0.926538 -0.038964
C17   C     C_R   0.647654 0.448527 0.080447 -0.063803
C18   C     C_R   0.261678 0.558630 0.999101 -0.055025
C19   C     C_R   0.696775 0.369657 0.014303 -0.075022
C20   C     C_R   0.445933 0.455243 0.956480 0.152679
C21   C     C_R   0.514810 0.475137 0.055915 0.137436
C22   C     C_R   0.447814 0.517680 0.128475 -0.113583
C23   C     C_R   0.493502 0.376101 0.890414 -0.096945
C24   C     C_R   0.324963 0.560732 0.100818 -0.046123
C25   C     C_R   0.615668 0.331004 0.919916 -0.026793
C26   C     C_2   0.079730 0.868478 0.481036 0.177657
C27   C     C_2   0.916585 0.138900 0.534715 0.186487
C28   C     C_2   0.981897 0.938326 0.489079 0.258246
Cl1   Cl    Cl    0.166885 0.110060 0.624172 -0.485869
Cl2   Cl    Cl    0.820784 0.891746 0.413730 -0.349731
Cl3   Cl    Cl    0.588395 0.367093 0.398759 -0.517512
Cl4   Cl    Cl    0.408885 0.681516 0.439196 -0.400497
Cl5   Cl    Cl    0.664711 0.688444 0.608159 -0.228111
Cl6   Cl    Cl    0.351276 0.300102 0.502595 -0.318650
H1    H     H_    0.288527 0.603556 0.160886 0.216975
H2    H     H_    0.899069 0.099579 0.867971 0.419675
H3    H     H_    0.653508 0.178476 0.674907 0.402226
H4    H     H_    0.296454 0.881866 0.299181 0.397304
H5    H     H_    0.645012 0.265947 0.868307 0.210215
H6    H     H_    0.489433 0.516286 0.207446 0.200026
H7    H     H_    0.433628 0.344837 0.817205 0.200103
H8    H     H_    0.656740 0.825811 0.130713 0.407499
H9    H     H_    0.594377 0.738855 0.815634 0.435919
H10   H     H_    0.212174 0.264115 0.261886 0.409154
H11   H     H_    0.076434 0.819824 0.725278 0.348007
H12   H     H_    0.191784 0.818523 0.108228 0.340934
N1    N     N_2   0.322180 0.446120 0.460900 0.022296
N2    N     N_2   0.677820 0.553880 0.539100 0.061344
O1    O     O_R   0.935190 0.693030 0.507870 -0.539269
O2    O     O_2   0.875834 0.730389 0.234940 -0.179587
O3    O     O_3   0.657909 0.739218 0.103805 -0.472325
O4    O     O_2   0.453799 0.509325 0.697194 -0.270340
O5    O     O_2   0.362094 0.708694 0.700737 -0.262771
O6    O     O_3   0.551102 0.669762 0.848686 -0.460544
O7    O     O_2   0.963037 0.208372 0.300793 -0.308977
O8    O     O_2   0.991406 0.131421 0.137240 -0.144333
O9    O     O_3   0.155798 0.323317 0.226427 -0.491956
O10   O     O_2   0.829840 0.630959 0.801090 -0.147274
O11   O     O_2   0.965225 0.819079 0.890224 -0.177467
O12   O     O_R   0.064810 0.306970 0.492130 -0.531392
O13   O     O_3   0.986617 0.769898 0.709040 -0.509641
O14   O     O_2   0.897516 0.637494 0.011883 -0.158885
O15   O     O_2   0.065382 0.584775 0.148655 -0.306347
O16   O     O_3   0.092774 0.809775 0.090487 -0.398167
O17   O     O_2   0.885340 0.346168 0.862523 -0.288055
O18   O     O_2   0.060145 0.290865 0.995566 -0.234276
O19   O     O_3   0.856597 0.121795 0.924567 -0.471171
O20   O     O_2   0.649546 0.076552 0.489744 -0.140872
O21   O     O_2   0.773740 0.973421 0.629341 -0.184430
O22   O     O_3   0.741996 0.206244 0.658766 -0.504822
O23   O     O_R   0.142080 0.658430 0.482770 -0.544993
O24   O     O_2   0.195952 0.059821 0.394360 -0.206758
O25   O     O_2   0.343940 0.938984 0.505249 -0.128587
O26   O     O_3   0.223445 0.838600 0.328135 -0.470641
O27   O     O_R   0.857920 0.341570 0.517230 -0.553906
O28   O     O_R   0.969700 0.527180 0.651960 -0.536413
O29   O     O_R   0.030300 0.472820 0.348040 -0.540704
O30   O     O_R   0.176600 0.492580 0.626860 -0.554724
O31   O     O_R   0.823400 0.507420 0.373140 -0.578456
O32   O     O_2   0.661630 0.677230 0.286611 -0.268806
S1    S     S_3+6 0.734594 0.666855 0.201693 0.121559
S2    S     S_3+6 0.414795 0.607146 0.763660 0.082959
S3    S     S_3+6 0.998850 0.247679 0.204015 0.141911
S4    S     S_3+6 0.963739 0.710158 0.817320 0.156016
S5    S     S_3+6 0.044722 0.656899 0.056423 0.125272
S6    S     S_3+6 0.911701 0.274402 0.955154 0.091799
S7    S     S_3+6 0.765753 0.093389 0.577424 0.144905
S8    S     S_3+6 0.215989 0.931516 0.428582 0.172311
Zn1   Zn    Zn3+2 0.861850 0.523100 0.516760 1.211425
Zn2   Zn    Zn3+2 0.138150 0.476900 0.483240 1.202478

loop_
_geom_bond_atom_site_label_1
_geom_bond_atom_site_label_2
_ccdc_geom_bond_type
C8    C13   A    
Cl5   N2    S    
H2    O19   S    
O17   S6    D    
C15   S1    S    
O30   Zn2   S    
C7    C11   A    
C1    O23   A    
C2    Cl1   S    
C18   C24   A    
C10   C19   A    
C4    N2    D    
C3    N1    D    
C9    S5    S    
C7    C14   A    
O9    S3    S    
C2    C27   D    
O3    S1    S    
O21   S7    D    
H8    O3    S    
H3    O22   S    
O15   S5    D    
O22   S7    S    
O24   S8    D    
O14   S5    D    
O29   Zn2   S    
C24   H1    S    
C12   C27   S    
O11   S4    D    
C5    C7    S    
C6    O29   A    
C6    C8    S    
O13   S4    S    
C17   C21   A    
H12   O16   S    
O5    S2    D    
O4    S2    D    
O25   S8    D    
O10   S4    D    
H9    O6    S    
C20   C23   A    
H10   O9    S    
C16   C20   A    
C22   H6    S    
C27   S7    S    
C9    C11   A    
C26   S8    S    
C8    C15   A    
N2    Zn1   S    
C1    C26   S    
N1    Zn2   S    
C14   C16   A    
C14   S2    S    
O7    S3    D    
C3    C4    S    
O16   S5    S    
O6    S2    S    
O8    S3    D    
H4    O26   S    
C15   C17   A    
C10   S6    S    
O19   S6    S    
O1    Zn1   S    
O32   S1    D    
C10   C13   A    
O18   S6    D    
O12   Zn2   S    
C11   S4    S    
C13   S3    S    
C26   C28   D    
C23   H7    S    
C5    O28   A    
C28   Cl2   S    
C25   H5    S    
C6    O31   A    
O23   Zn2   S    
H11   O13   S    
C17   C19   A    
C22   C24   A    
C23   C25   A    
C3    Cl4   S    
C19   C25   A    
O31   Zn1   S    
C4    Cl3   S    
O27   Zn1   S    
C12   O12   A    
C9    C18   A    
C20   C21   A    
C16   C18   A    
C12   O27   A    
O20   S7    D    
O28   Zn1   S    
C2    C28   S    
Cl6   N1    S    
O26   S8    S    
C5    O30   A    
C21   C22   A    
C1    O1    A    
O2    S1    D    
