data_mof_unit_36363.cif
_audit_creation_date              2012-12-10T17:31:57-0500
_audit_creation_method            fapswitch 2.2
_symmetry_space_group_name_H-M    P1
_symmetry_Int_Tables_number       1
_space_group_crystal_system       triclinic
_cell_length_a                    12.092002
_cell_length_b                    11.493563
_cell_length_c                    12.888031
_cell_angle_alpha                 90.796651
_cell_angle_beta                  92.817877
_cell_angle_gamma                 86.501016
_cell_volume                      1785.57340419

loop_
_atom_site_label
_atom_site_type_symbol
_atom_type_description
_atom_site_fract_x
_atom_site_fract_y
_atom_site_fract_z
_atom_type_partial_charge
C1    C     C_R   0.478866 0.507495 0.299669 0.947913
C2    C     C_R   0.974990 0.545910 0.528663 -0.040084
C3    C     C_R   0.499255 0.282203 0.497997 0.892450
C4    C     C_R   0.500146 0.717834 0.499217 0.896209
C5    C     C_1   0.497315 0.161800 0.495797 -0.183832
C6    C     C_1   0.499962 0.838281 0.496563 -0.199286
C7    C     C_1   0.496665 0.059472 0.494821 -0.030410
C8    C     C_1   0.498389 0.940672 0.495060 -0.027611
C9    C     C_R   0.532747 0.486101 0.809543 -0.359590
C10   C     C_R   0.467583 0.519570 0.187704 -0.311052
C11   C     C_R   0.377841 0.607174 0.032591 0.165098
C12   C     C_R   0.521457 0.496449 0.699465 0.946498
C13   C     C_R   0.593783 0.375898 0.960905 0.151335
C14   C     C_R   0.380360 0.590537 0.140656 0.295215
C15   C     C_R   0.592199 0.389348 0.853851 0.340143
C16   C     C_R   0.549729 0.465117 0.127558 0.396821
C17   C     C_R   0.469218 0.565398 0.868600 0.449188
C18   C     C_R   0.530407 0.457096 0.020879 -0.203800
C19   C     C_R   0.455992 0.542126 0.972955 -0.138961
C20   C     C_3   0.510788 0.747443 0.816713 0.142195
C21   C     C_3   0.484313 0.856807 0.881023 -0.868394
C22   C     C_3   0.726979 0.521412 0.142612 0.143282
C23   C     C_R   0.043993 0.624098 0.580330 -0.423506
C24   C     C_3   0.839803 0.502322 0.198984 -0.822874
C25   C     C_3   0.598572 0.216035 0.765600 0.145594
C26   C     C_3   0.675540 0.127522 0.711569 -0.822363
C27   C     C_3   0.207090 0.613155 0.203207 0.140331
C28   C     C_3   0.138239 0.678661 0.283241 -0.837797
C29   C     C_3   0.212411 0.642226 0.916127 -0.684551
C30   C     C_3   0.591955 0.194669 0.057207 -0.764716
C31   C     C_3   0.804669 0.766655 0.515039 -0.766483
C32   C     C_3   0.195555 0.314205 0.326209 -0.792973
C33   C     C_3   0.818489 0.195269 0.357583 0.087930
C34   C     C_R   0.956572 0.367287 0.431229 -0.472525
C35   C     C_3   0.730327 0.109249 0.332052 -0.800686
C36   C     C_3   0.201715 0.806757 0.585036 0.103235
C37   C     C_3   0.260532 0.893099 0.655359 -0.795751
C38   C     C_R   0.159770 0.614481 0.570692 0.561932
C39   C     C_R   0.839122 0.381583 0.433953 0.608866
C40   C     C_R   0.143540 0.436811 0.475336 0.260997
C41   C     C_R   0.856866 0.560789 0.527686 0.253423
C42   C     C_R   0.025237 0.449341 0.477689 -0.034901
H1    H     H_    0.009204 0.692577 0.629247 0.167035
H2    H     H_    0.868240 0.408652 0.196982 0.256806
H3    H     H_    0.901379 0.553333 0.161102 0.187749
H4    H     H_    0.834839 0.533764 0.280270 0.245083
H5    H     H_    0.526579 0.240973 0.711892 0.109987
H6    H     H_    0.567759 0.172934 0.834227 0.144656
H7    H     H_    0.748085 0.102041 0.764345 0.253300
H8    H     H_    0.630784 0.048366 0.690572 0.200827
H9    H     H_    0.705303 0.165411 0.639971 0.268098
H10   H     H_    0.215350 0.519915 0.224109 0.151532
H11   H     H_    0.161697 0.621495 0.126691 0.131506
H12   H     H_    0.994813 0.293155 0.392138 0.164160
H13   H     H_    0.120786 0.770682 0.259385 0.239841
H14   H     H_    0.058497 0.637059 0.290486 0.204070
H15   H     H_    0.184278 0.677179 0.359717 0.260852
H16   H     H_    0.270597 0.758771 0.030366 0.242167
H17   H     H_    0.130321 0.654113 0.950991 0.180384
H18   H     H_    0.229699 0.547907 0.899186 0.231600
H19   H     H_    0.207523 0.690278 0.841837 0.293306
H20   H     H_    0.729922 0.294785 0.042637 0.263133
H21   H     H_    0.645112 0.114252 0.073707 0.230572
H22   H     H_    0.519081 0.170900 0.007342 0.220097
H23   H     H_    0.514223 0.772188 0.734079 0.141361
H24   H     H_    0.562481 0.231283 0.131633 0.253722
H25   H     H_    0.826432 0.671870 0.652127 0.202735
H26   H     H_    0.889817 0.796895 0.512023 0.210847
H27   H     H_    0.751846 0.836367 0.551933 0.235265
H28   H     H_    0.771198 0.752315 0.434310 0.252593
H29   H     H_    0.177018 0.259152 0.477484 0.207454
H30   H     H_    0.179870 0.222016 0.306540 0.212798
H31   H     H_    0.277590 0.332036 0.297349 0.256858
H32   H     H_    0.129391 0.370176 0.285575 0.218740
H33   H     H_    0.872948 0.157269 0.422351 0.121094
H34   H     H_    0.595906 0.711763 0.841652 0.096527
H35   H     H_    0.866307 0.205195 0.286989 0.139252
H36   H     H_    0.663069 0.149755 0.280521 0.269877
H37   H     H_    0.767867 0.030937 0.292717 0.195483
H38   H     H_    0.695233 0.081363 0.404803 0.248431
H39   H     H_    0.111863 0.833791 0.583755 0.105480
H40   H     H_    0.230789 0.814017 0.504996 0.157526
H41   H     H_    0.351034 0.871194 0.659188 0.265663
H42   H     H_    0.244771 0.982650 0.624541 0.196738
H43   H     H_    0.229293 0.890509 0.734841 0.245633
H44   H     H_    0.487062 0.834869 0.964784 0.253499
H45   H     H_    0.546335 0.922019 0.868570 0.206707
H46   H     H_    0.400497 0.895407 0.858024 0.263406
H47   H     H_    0.692975 0.610973 0.162439 0.126144
H48   H     H_    0.740389 0.516753 0.057826 0.120279
N1    N     N_R   0.792200 0.479100 0.480660 -0.148536
N2    N     N_R   0.207800 0.520900 0.519340 -0.154582
N3    N     N_2   0.297716 0.689038 0.985151 -0.256273
N4    N     N_2   0.655373 0.277446 0.005278 -0.258061
N5    N     N_2   0.803974 0.660576 0.574615 -0.257854
N6    N     N_2   0.196868 0.331814 0.437837 -0.247117
O1    O     O_R   0.578300 0.494420 0.341180 -0.546811
O2    O     O_3   0.654869 0.435368 0.171212 -0.563707
O3    O     O_3   0.657722 0.314687 0.793999 -0.579119
O4    O     O_3   0.311969 0.660456 0.201991 -0.602816
O5    O     O_3   0.767266 0.304251 0.385991 -0.545992
O6    O     O_3   0.226429 0.692322 0.622758 -0.562647
O7    O     O_R   0.421700 0.505580 0.658820 -0.575661
O8    O     O_R   0.390690 0.507830 0.353590 -0.607657
O9    O     O_R   0.609310 0.492170 0.646410 -0.595619
O10   O     O_R   0.593810 0.327740 0.493800 -0.555676
O11   O     O_R   0.406190 0.672260 0.506200 -0.578240
O12   O     O_R   0.406190 0.341150 0.506220 -0.614367
O13   O     O_R   0.593810 0.658850 0.493780 -0.609823
O14   O     O_3   0.425576 0.668808 0.824755 -0.555293
Zn1   Zn    Zn3+2 0.625270 0.491050 0.491710 1.020509
Zn2   Zn    Zn3+2 0.374730 0.508950 0.508290 0.997964

loop_
_geom_bond_atom_site_label_1
_geom_bond_atom_site_label_2
_ccdc_geom_bond_type
C4    O13   A    
C21   H45   S    
C22   O2    S    
C30   H22   S    
O11   Zn2   S    
C34   C42   A    
C33   H35   S    
C17   O14   S    
C28   H14   S    
C7    C8    S    
C32   H30   S    
C28   H15   S    
C11   C19   A    
C13   C18   A    
C33   O5    S    
C24   H3    S    
C37   H43   S    
C36   C37   S    
H16   N3    S    
O13   Zn1   S    
C32   H32   S    
C12   O9    A    
O1    Zn1   S    
C11   C14   A    
C2    C41   A    
C38   N2    A    
C35   H38   S    
C23   H1    S    
C20   H34   S    
C36   O6    S    
C18   C19   A    
N1    Zn1   S    
C33   C35   S    
C33   H33   S    
C31   H28   S    
C29   H17   S    
C36   H40   S    
C37   H42   S    
C25   H5    S    
C11   N3    S    
C40   C42   A    
O9    Zn1   S    
C21   H46   S    
C30   H21   S    
H25   N5    S    
C40   N6    S    
C39   N1    A    
C28   H13   S    
C25   O3    S    
C39   O5    S    
O10   Zn1   S    
C3    O10   A    
C31   H26   S    
C4    O11   A    
C29   H19   S    
C27   O4    S    
C34   C39   A    
C20   H23   S    
C12   O7    A    
C4    C6    S    
C10   C14   A    
C26   H7    S    
C1    O1    A    
C32   H31   S    
C5    C7    T    
N2    Zn2   S    
C6    C8    T    
H29   N6    S    
C25   C26   S    
O12   Zn2   S    
O7    Zn2   S    
H20   N4    S    
C25   H6    S    
C29   H18   S    
C36   H39   S    
C22   H48   S    
C16   C18   A    
C40   N2    A    
C1    O8    A    
C30   H24   S    
C20   O14   S    
C9    C17   A    
C32   N6    S    
C34   H12   S    
C13   C15   A    
C24   H2    S    
C22   C24   S    
C2    C23   A    
C27   H10   S    
O8    Zn2   S    
C21   H44   S    
C41   N1    A    
C1    C10   S    
C15   O3    S    
C3    C5    S    
C27   H11   S    
C14   O4    S    
C3    O12   A    
C23   C38   A    
C35   H36   S    
C13   N4    S    
C24   H4    S    
C26   H8    S    
C9    C15   A    
C30   N4    S    
C10   C16   A    
C26   H9    S    
C29   N3    S    
C16   O2    S    
C41   N5    S    
C2    C42   A    
C31   N5    S    
C35   H37   S    
C17   C19   A    
C22   H47   S    
C9    C12   S    
C31   H27   S    
C20   C21   S    
C38   O6    S    
C27   C28   S    
C37   H41   S    
