data_mof_unit_61416.cif
_audit_creation_date              2012-12-10T18:24:07-0500
_audit_creation_method            fapswitch 2.2
_symmetry_space_group_name_H-M    P1
_symmetry_Int_Tables_number       1
_space_group_crystal_system       triclinic
_cell_length_a                    16.098487
_cell_length_b                    16.087765
_cell_length_c                    16.083851
_cell_angle_alpha                 95.691324
_cell_angle_beta                  84.416611
_cell_angle_gamma                 89.998084
_cell_volume                      4125.13918095

loop_
_atom_site_label
_atom_site_type_symbol
_atom_type_description
_atom_site_fract_x
_atom_site_fract_y
_atom_site_fract_z
_atom_type_partial_charge
C1    C     C_R   0.510663 0.724275 0.510537 0.508277
C2    C     C_1   0.483939 0.186511 0.487464 0.025541
C3    C     C_1   0.515998 0.483047 0.184666 -0.024584
C4    C     C_R   0.489360 0.275695 0.489485 0.503984
C5    C     C_2   0.529135 0.471709 0.017604 0.279494
C6    C     C_2   0.478161 0.519687 0.980921 -0.077185
C7    C     C_1   0.481582 0.517852 0.890728 0.006417
C8    C     C_1   0.521406 0.478204 0.109030 -0.080243
C9    C     C_1   0.484877 0.515564 0.815319 0.025065
C10   C     C_R   0.510703 0.488355 0.274587 0.508157
C11   C     C_R   0.489353 0.511747 0.725480 0.503560
C12   C     C_1   0.111520 0.524049 0.521025 -0.056815
C13   C     C_R   0.724295 0.487914 0.488094 0.504820
C14   C     C_R   0.275760 0.512029 0.511824 0.507513
C15   C     C_1   0.813522 0.483455 0.484474 0.011284
C16   C     C_2   0.977977 0.474991 0.483208 -0.126581
C17   C     C_2   0.021647 0.532065 0.527724 -0.006734
C18   C     C_R   0.981703 0.603745 0.582729 0.058855
C19   C     C_R   0.010422 0.685297 0.574293 -0.085413
C20   C     C_R   0.973738 0.752981 0.626233 -0.112611
C21   C     C_R   0.908680 0.739825 0.687446 -0.106532
C22   C     C_R   0.880270 0.658949 0.696971 -0.114554
C23   C     C_1   0.888407 0.479535 0.483052 -0.048656
C24   C     C_R   0.916780 0.591069 0.645221 -0.084926
C25   C     C_3   0.667381 0.970154 0.564679 0.021753
C26   C     C_3   0.659470 0.937069 0.651273 -0.261685
C27   C     C_3   0.733225 0.880495 0.661152 -0.486166
C28   C     C_3   0.634863 0.368390 0.010674 0.021798
C29   C     C_3   0.711459 0.414836 0.040548 -0.266574
C30   C     C_3   0.763191 0.359595 0.088113 -0.479893
C31   C     C_1   0.186506 0.517981 0.516331 0.002812
C32   C     C_1   0.516089 0.813512 0.514553 -0.024932
C33   C     C_2   0.533110 0.978362 0.518924 0.278526
C34   C     C_2   0.474956 0.022047 0.486903 -0.077897
C35   C     C_1   0.479667 0.111641 0.486917 0.006069
C36   C     C_1   0.522816 0.888307 0.516807 -0.077707
H1    H     H_    0.010486 0.423845 0.444019 0.125199
H2    H     H_    0.678542 0.918714 0.513004 0.127811
H3    H     H_    0.656960 0.990639 0.700757 0.175529
H4    H     H_    0.600949 0.901221 0.660506 0.171641
H5    H     H_    0.735744 0.825426 0.613443 0.159657
H6    H     H_    0.726070 0.858086 0.724546 0.145962
H7    H     H_    0.792684 0.915277 0.653943 0.144976
H8    H     H_    0.657379 0.314014 0.966171 0.155163
H9    H     H_    0.596993 0.341368 0.062942 0.128732
H10   H     H_    0.750877 0.434255 0.985288 0.173784
H11   H     H_    0.691838 0.471943 0.082369 0.171438
H12   H     H_    0.423044 0.990454 0.459283 0.076153
H13   H     H_    0.725386 0.340998 0.144694 0.152185
H14   H     H_    0.818370 0.394618 0.108398 0.154557
H15   H     H_    0.785251 0.302674 0.047124 0.148208
H16   H     H_    0.432672 0.561074 0.018679 0.076904
H17   H     H_    0.060718 0.696543 0.527050 0.110244
H18   H     H_    0.995826 0.815658 0.619077 0.107939
H19   H     H_    0.880581 0.792247 0.727774 0.108076
H20   H     H_    0.830216 0.648787 0.744774 0.111687
H21   H     H_    0.894946 0.528674 0.654442 0.117577
H22   H     H_    0.723899 0.009696 0.560056 0.152726
O1    O     O_3   0.500000 0.500000 0.500000 -0.436897
O2    O     O_R   0.689040 0.536050 0.444000 -0.536759
O3    O     O_R   0.315570 0.560650 0.560630 -0.535151
O4    O     O_R   0.679800 0.444450 0.536560 -0.536010
O5    O     O_R   0.315590 0.458850 0.458810 -0.535745
O6    O     O_3   0.597953 0.021502 0.555718 -0.552812
O7    O     O_3   0.587370 0.419989 0.966353 -0.553949
O8    O     O_R   0.458170 0.444480 0.314880 -0.534499
O9    O     O_R   0.445130 0.560630 0.690220 -0.540528
O10   O     O_R   0.559450 0.679320 0.457680 -0.536868
O11   O     O_R   0.537250 0.315570 0.537220 -0.525820
O12   O     O_R   0.458120 0.689530 0.559970 -0.534981
O13   O     O_R   0.445170 0.315580 0.445130 -0.541039
O14   O     O_R   0.559480 0.536070 0.314410 -0.537102
O15   O     O_R   0.537220 0.458810 0.680490 -0.526432
Zn1   Zn    Zn3+2 0.430930 0.430930 0.430910 0.945694
Zn2   Zn    Zn3+2 0.575680 0.561790 0.430230 0.942483
Zn3   Zn    Zn3+2 0.562480 0.430910 0.562480 0.959669
Zn4   Zn    Zn3+2 0.430910 0.576380 0.576380 0.946359

loop_
_geom_bond_atom_site_label_1
_geom_bond_atom_site_label_2
_ccdc_geom_bond_type
C2    C35   T    
C30   H15   S    
C19   C20   A    
O9    Zn4   S    
C14   C31   S    
O1    Zn4   S    
C13   O2    A    
O10   Zn2   S    
C26   C27   S    
C29   H11   S    
C18   C24   A    
C32   C36   T    
C28   C29   S    
C34   C35   S    
C5    C6    D    
C26   H3    S    
O8    Zn1   S    
C1    O10   A    
O11   Zn3   S    
C18   C19   A    
C13   O4    A    
O3    Zn4   S    
C16   C17   D    
C12   C17   S    
C16   H1    S    
C19   H17   S    
C15   C23   T    
C30   H14   S    
C21   C22   A    
O12   Zn4   S    
O4    Zn3   S    
O14   Zn2   S    
C4    O11   A    
C11   O9    A    
C17   C18   S    
C10   O8    A    
C28   H9    S    
C33   C36   S    
C20   H18   S    
C3    C8    T    
C11   O15   A    
C21   H19   S    
C24   H21   S    
C22   H20   S    
C25   C26   S    
C14   O3    A    
C28   H8    S    
C1    C32   S    
C25   O6    S    
C2    C4    S    
C29   C30   S    
C25   H2    S    
C5    C8    S    
C27   H5    S    
C33   C34   D    
C9    C11   S    
O1    Zn1   S    
C5    O7    S    
C30   H13   S    
C16   C23   S    
C13   C15   S    
C12   C31   T    
O15   Zn3   S    
C22   C24   A    
C34   H12   S    
C25   H22   S    
O1    Zn2   S    
C7    C9    T    
O13   Zn1   S    
C6    C7    S    
O5    Zn1   S    
O2    Zn2   S    
C1    O12   A    
C29   H10   S    
C28   O7    S    
C3    C10   S    
C27   H6    S    
C26   H4    S    
C33   O6    S    
C14   O5    A    
C27   H7    S    
C20   C21   A    
C6    H16   S    
O1    Zn3   S    
C4    O13   A    
C10   O14   A    
