data_mof_unit_6138.cif
_audit_creation_date              2012-12-10T17:32:41-0500
_audit_creation_method            fapswitch 2.2
_symmetry_space_group_name_H-M    P1
_symmetry_Int_Tables_number       1
_space_group_crystal_system       triclinic
_cell_length_a                    12.010332
_cell_length_b                    12.991974
_cell_length_c                    14.157028
_cell_angle_alpha                 90.11382
_cell_angle_beta                  86.732818
_cell_angle_gamma                 90.402604
_cell_volume                      2205.385479

loop_
_atom_site_label
_atom_site_type_symbol
_atom_type_description
_atom_site_fract_x
_atom_site_fract_y
_atom_site_fract_z
_atom_type_partial_charge
C1    C     C_R   0.519191 0.699849 0.498469 0.920918
C2    C     C_R   0.144197 0.479371 0.447287 -0.065080
C3    C     C_R   0.973903 0.520693 0.541540 0.088526
C4    C     C_R   0.026123 0.479818 0.458341 0.095697
C5    C     C_R   0.500321 0.500064 0.670910 0.899586
C6    C     C_R   0.499686 0.500161 0.329098 0.862770
C7    C     C_1   0.500910 0.500332 0.772318 -0.205047
C8    C     C_1   0.499085 0.500593 0.227720 -0.222045
C9    C     C_1   0.500790 0.500610 0.857543 -0.011990
C10   C     C_1   0.499139 0.500868 0.142512 -0.020927
C11   C     C_1   0.500221 0.500881 0.957414 0.005135
C12   C     C_R   0.480784 0.299830 0.496800 0.928376
C13   C     C_1   0.499648 0.500976 0.042654 0.002149
C14   C     C_R   0.471986 0.189350 0.487104 -0.259068
C15   C     C_R   0.527658 0.809870 0.497761 -0.253240
C16   C     C_R   0.643969 0.959256 0.518512 0.551716
C17   C     C_R   0.350504 0.039756 0.478228 0.557085
C18   C     C_R   0.626210 0.853741 0.525126 -0.417452
C19   C     C_R   0.366183 0.146218 0.482583 -0.433494
C20   C     C_R   0.437925 0.870561 0.472574 0.492691
C21   C     C_R   0.566997 0.127008 0.484375 0.504204
C22   C     C_3   0.698099 0.188254 0.373823 0.133560
C23   C     C_R   0.445896 0.977069 0.482904 -0.169994
C24   C     C_3   0.728761 0.090351 0.317482 -0.408136
C25   C     C_3   0.765371 0.115980 0.215219 -0.958278
C26   C     C_3   0.360817 0.796875 0.343418 0.137542
C27   C     C_3   0.327594 0.883473 0.277626 -0.374027
C28   C     C_3   0.340818 0.850525 0.174113 -0.956784
C29   C     C_3   0.839140 0.946663 0.520252 0.079417
C30   C     C_3   0.886118 0.897953 0.608148 -0.374200
C31   C     C_3   0.983627 0.826978 0.581392 -0.919337
C32   C     C_3   0.159554 0.054631 0.446521 0.058785
C33   C     C_3   0.096773 0.115515 0.526109 -0.373611
C34   C     C_R   0.552947 0.021348 0.495882 -0.176868
C35   C     C_3   0.024198 0.198901 0.485967 -0.902511
C36   C     C_R   0.959116 0.440477 0.388594 -0.343900
C37   C     C_R   0.040917 0.561819 0.610489 -0.342025
C38   C     C_R   0.842395 0.442668 0.402527 0.033433
C39   C     C_R   0.157685 0.560894 0.596011 0.065106
C40   C     C_R   0.855813 0.520080 0.553013 -0.045237
H1    H     H_    0.296291 0.197455 0.481911 0.202582
H2    H     H_    0.629222 0.229555 0.340702 0.108791
H3    H     H_    0.798094 0.050614 0.350460 0.226839
H4    H     H_    0.655847 0.037345 0.317229 0.207451
H5    H     H_    0.696979 0.154956 0.179939 0.268305
H6    H     H_    0.786596 0.043922 0.176122 0.269811
H7    H     H_    0.840193 0.166890 0.212725 0.260137
H8    H     H_    0.307359 0.728542 0.331118 0.172531
H9    H     H_    0.448336 0.772715 0.324652 0.087935
H10   H     H_    0.239253 0.904597 0.294709 0.235222
H11   H     H_    0.380963 0.952289 0.288019 0.207057
H12   H     H_    0.689945 0.804378 0.550513 0.192192
H13   H     H_    0.429049 0.830617 0.154936 0.267898
H14   H     H_    0.316143 0.914723 0.128237 0.268162
H15   H     H_    0.286738 0.782798 0.161239 0.266014
H16   H     H_    0.902063 0.000207 0.488090 0.159063
H17   H     H_    0.827003 0.888388 0.463743 0.114924
H18   H     H_    0.914138 0.959551 0.656029 0.229438
H19   H     H_    0.820595 0.852930 0.648445 0.221506
H20   H     H_    0.955485 0.762475 0.536775 0.266837
H21   H     H_    0.016983 0.794749 0.646528 0.265050
H22   H     H_    0.051559 0.869862 0.542025 0.297547
H23   H     H_    0.185253 0.445783 0.384643 0.122480
H24   H     H_    0.098932 0.001669 0.414904 0.143242
H25   H     H_    0.190982 0.104652 0.386765 0.121779
H26   H     H_    0.044539 0.062386 0.570750 0.226610
H27   H     H_    0.154771 0.151873 0.574618 0.232005
H28   H     H_    0.077770 0.256047 0.446509 0.254511
H29   H     H_    0.976588 0.238954 0.544508 0.285883
H30   H     H_    0.964467 0.165209 0.437281 0.260276
H31   H     H_    0.814752 0.552961 0.615981 0.127109
H32   H     H_    0.208425 0.592074 0.650040 0.135193
H33   H     H_    0.791779 0.415749 0.346722 0.117709
H34   H     H_    0.996497 0.409305 0.323318 0.143836
H35   H     H_    0.003476 0.594234 0.675207 0.148750
H36   H     H_    0.771744 0.240095 0.368907 0.159349
N1    N     N_R   0.207800 0.519340 0.515940 -0.092479
N2    N     N_R   0.792200 0.480660 0.484060 -0.088822
O1    O     O_R   0.421690 0.658830 0.504250 -0.575839
O2    O     O_3   0.342066 0.826055 0.439590 -0.579341
O3    O     O_3   0.742553 0.004730 0.546437 -0.582630
O4    O     O_3   0.244456 0.993756 0.483258 -0.592979
O5    O     O_R   0.578310 0.341170 0.495750 -0.576568
O6    O     O_R   0.609320 0.646410 0.494030 -0.625289
O7    O     O_R   0.390680 0.353590 0.505970 -0.621628
O8    O     O_R   0.406170 0.506210 0.631400 -0.610627
O9    O     O_R   0.593830 0.493790 0.368600 -0.616540
O10   O     O_R   0.593790 0.493790 0.621170 -0.601500
O11   O     O_R   0.406210 0.506210 0.378830 -0.615214
O12   O     O_3   0.673664 0.168176 0.471354 -0.574321
Zn1   Zn    Zn3+2 0.374720 0.508290 0.506830 0.947346
Zn2   Zn    Zn3+2 0.625280 0.491710 0.493170 0.948961

loop_
_geom_bond_atom_site_label_1
_geom_bond_atom_site_label_2
_ccdc_geom_bond_type
C15   C18   A    
C4    C36   A    
C40   H31   S    
C31   H21   S    
C22   H36   S    
O7    Zn1   S    
C18   H12   S    
C1    O6    A    
O5    Zn2   S    
C26   C27   S    
C17   C23   A    
C12   O7    A    
C39   N1    A    
C14   C21   A    
O8    Zn1   S    
C30   C31   S    
C17   O4    S    
C16   C34   A    
C5    O10   A    
O10   Zn2   S    
C35   H30   S    
C39   H32   S    
C1    C15   S    
O11   Zn1   S    
C25   H7    S    
O1    Zn1   S    
C27   H10   S    
C26   H8    S    
C37   H35   S    
O9    Zn2   S    
C31   H22   S    
C28   H15   S    
C27   H11   S    
C33   H26   S    
C21   O12   S    
C15   C20   A    
C20   O2    S    
C24   C25   S    
C32   H24   S    
C26   H9    S    
C5    C7    S    
C28   H14   S    
C17   C19   A    
C6    C8    S    
C21   C34   A    
C38   N2    A    
N2    Zn2   S    
C26   O2    S    
C6    O9    A    
C12   O5    A    
C31   H20   S    
C2    C4    A    
C29   O3    S    
C29   C30   S    
C20   C23   A    
C23   C34   A    
C30   H19   S    
C22   O12   S    
C9    C11   S    
C3    C37   A    
C36   H34   S    
C5    O8    A    
C16   C18   A    
C29   H17   S    
C3    C40   A    
C1    O1    A    
C40   N2    A    
C3    C4    A    
C25   H5    S    
C2    H23   S    
C33   H27   S    
C7    C9    T    
N1    Zn1   S    
C14   C19   A    
C12   C14   S    
C10   C13   S    
C28   H13   S    
C29   H16   S    
C6    O11   A    
C32   O4    S    
C32   C33   S    
C36   C38   A    
C37   C39   A    
C2    N1    A    
C11   C13   T    
C22   H2    S    
C35   H28   S    
C24   H4    S    
C30   H18   S    
C16   O3    S    
C33   C35   S    
C22   C24   S    
C35   H29   S    
C8    C10   T    
C27   C28   S    
C24   H3    S    
O6    Zn2   S    
C25   H6    S    
C19   H1    S    
C32   H25   S    
C38   H33   S    
