data_mof_unit_24514.cif
_audit_creation_date              2012-12-10T18:18:16-0500
_audit_creation_method            fapswitch 2.2
_symmetry_space_group_name_H-M    P1
_symmetry_Int_Tables_number       1
_space_group_crystal_system       triclinic
_cell_length_a                    14.066993
_cell_length_b                    15.006526
_cell_length_c                    15.437771
_cell_angle_alpha                 89.789837
_cell_angle_beta                  66.629696
_cell_angle_gamma                 90.477126
_cell_volume                      2991.31649875

loop_
_atom_site_label
_atom_site_type_symbol
_atom_type_description
_atom_site_fract_x
_atom_site_fract_y
_atom_site_fract_z
_atom_type_partial_charge
C1    C     C_R   0.500549 0.673398 0.499358 0.917304
C2    C     C_R   0.501345 0.769231 0.498193 -0.090494
C3    C     C_R   0.422906 0.184529 0.482644 -0.168059
C4    C     C_R   0.577099 0.815471 0.517348 -0.168055
C5    C     C_R   0.423077 0.092422 0.481717 0.060091
C6    C     C_R   0.576927 0.907579 0.518274 0.060090
C7    C     C_R   0.499863 0.046407 0.500714 0.019245
C8    C     C_R   0.500141 0.953594 0.499278 0.019245
C9    C     C_R   0.576274 0.093268 0.521051 0.021542
C10   C     C_R   0.423728 0.906732 0.478943 0.021544
C11   C     C_R   0.347842 0.046058 0.461528 -0.215802
C12   C     C_R   0.499451 0.326602 0.500641 0.917306
C13   C     C_R   0.652162 0.953943 0.538463 -0.215802
C14   C     C_R   0.347582 0.953507 0.459912 0.394444
C15   C     C_R   0.652420 0.046493 0.540083 0.394444
C16   C     C_R   0.434741 0.498304 0.676532 0.962702
C17   C     C_R   0.565259 0.501695 0.323467 0.962700
C18   C     C_R   0.173789 0.446625 0.563009 0.445014
C19   C     C_R   0.826211 0.553374 0.436991 0.445014
C20   C     C_R   0.229223 0.553100 0.437849 -0.100970
C21   C     C_R   0.770777 0.446900 0.562151 -0.100969
C22   C     C_R   0.129751 0.553932 0.436162 0.006847
C23   C     C_R   0.382860 0.528774 0.105816 -0.153655
C24   C     C_R   0.870248 0.446068 0.563838 0.006849
C25   C     C_R   0.050488 0.499833 0.500212 0.063172
C26   C     C_R   0.949512 0.500167 0.499788 0.063172
C27   C     C_R   0.072070 0.445515 0.564694 -0.063149
C28   C     C_R   0.927930 0.554485 0.435305 -0.063149
C29   C     C_R   0.107998 0.607633 0.371936 -0.165833
C30   C     C_R   0.892001 0.392367 0.628064 -0.165834
C31   C     C_R   0.008548 0.607993 0.371397 -0.104514
C32   C     C_R   0.991452 0.392007 0.628603 -0.104513
C33   C     C_R   0.391809 0.499032 0.779232 -0.184953
C34   C     C_R   0.617138 0.471207 0.894185 -0.153654
C35   C     C_R   0.608190 0.500962 0.220768 -0.184953
C36   C     C_R   0.268583 0.554645 0.927863 0.418177
C37   C     C_R   0.731416 0.445343 0.072139 0.418176
C38   C     C_R   0.299366 0.542887 0.830907 -0.248531
C39   C     C_R   0.700634 0.457106 0.169095 -0.248532
C40   C     C_R   0.450980 0.463893 0.824986 0.307411
C41   C     C_R   0.549019 0.536096 0.175013 0.307411
C42   C     C_R   0.435038 0.494520 0.915390 -0.036371
C43   C     C_R   0.564959 0.505463 0.084610 -0.036373
C44   C     C_R   0.337485 0.532325 0.970580 0.005004
C45   C     C_R   0.310919 0.544788 0.066970 -0.123934
C46   C     C_R   0.662513 0.467658 0.029421 0.005004
C47   C     C_R   0.512914 0.489916 0.951963 0.113641
C48   C     C_R   0.487083 0.510065 0.048037 0.113641
C49   C     C_R   0.689078 0.455192 0.933032 -0.123936
C50   C     C_R   0.574450 0.185743 0.521429 -0.144612
C51   C     C_R   0.425550 0.814258 0.478569 -0.144615
C52   C     C_R   0.498656 0.230769 0.501804 -0.090492
Cl1   Cl    Cl    0.203606 0.379374 0.642393 -0.554009
Cl2   Cl    Cl    0.796394 0.620626 0.357606 -0.554012
Cl3   Cl    Cl    0.477424 0.634169 0.221781 -0.604906
Cl4   Cl    Cl    0.522577 0.365822 0.778210 -0.604910
Cl5   Cl    Cl    0.147793 0.604568 0.990712 -0.521735
Cl6   Cl    Cl    0.852207 0.395421 0.009292 -0.521735
Cl7   Cl    Cl    0.250269 0.899555 0.433787 -0.554578
Cl8   Cl    Cl    0.749729 0.100445 0.566215 -0.554576
H1    H     H_    0.290316 0.595066 0.389662 0.204407
H2    H     H_    0.251539 0.568030 0.796069 0.215957
H3    H     H_    0.355204 0.531262 0.181709 0.184656
H4    H     H_    0.644795 0.468719 0.818292 0.184657
H5    H     H_    0.631639 0.223332 0.537073 0.217524
H6    H     H_    0.368359 0.776668 0.462930 0.217522
H7    H     H_    0.364498 0.220161 0.467340 0.178334
H8    H     H_    0.635508 0.779840 0.532649 0.178337
H9    H     H_    0.289147 0.081839 0.446873 0.194752
H10   H     H_    0.710857 0.918161 0.553119 0.194752
H11   H     H_    0.709684 0.404934 0.610338 0.204407
H12   H     H_    0.234063 0.565420 0.113457 0.199991
H13   H     H_    0.765935 0.434559 0.886546 0.199990
H14   H     H_    0.168051 0.649470 0.321889 0.182706
H15   H     H_    0.831949 0.350531 0.678111 0.182703
H16   H     H_    0.995798 0.650589 0.320454 0.216123
H17   H     H_    0.004202 0.349411 0.679545 0.216122
H18   H     H_    0.748462 0.431969 0.203933 0.215959
N1    N     N_R   0.249980 0.499930 0.499960 -0.136178
N2    N     N_R   0.750020 0.500070 0.500040 -0.136178
O1    O     O_R   0.419720 0.632140 0.499980 -0.623703
O2    O     O_R   0.580280 0.367860 0.500020 -0.623703
O3    O     O_R   0.580270 0.632160 0.499970 -0.584164
O4    O     O_R   0.419730 0.367840 0.500030 -0.584165
O5    O     O_R   0.373870 0.499980 0.632250 -0.569986
O6    O     O_R   0.626130 0.500020 0.367750 -0.569987
O7    O     O_R   0.534420 0.500000 0.632240 -0.606878
O8    O     O_R   0.465580 0.500000 0.367760 -0.606879
Zn1   Zn    Zn3+2 0.392800 0.499980 0.500010 1.027974
Zn2   Zn    Zn3+2 0.607200 0.500020 0.499990 1.027974

loop_
_geom_bond_atom_site_label_1
_geom_bond_atom_site_label_2
_ccdc_geom_bond_type
C23   C45   A    
C22   C29   A    
C17   O8    A    
C15   Cl8   S    
C2    C4    A    
C7    C8    A    
C14   Cl7   S    
C46   C49   A    
C43   C46   A    
C21   H11   S    
C24   C26   A    
C5    C11   A    
C11   C14   A    
C13   H10   S    
C1    O1    A    
C12   O4    A    
C1    C2    S    
C20   H1    S    
C41   Cl3   S    
C18   Cl1   S    
C32   H17   S    
O7    Zn2   S    
C18   N1    A    
C40   Cl4   S    
C22   C25   A    
C16   O7    A    
C50   C52   A    
C43   C48   A    
C37   Cl6   S    
O1    Zn1   S    
C40   C42   A    
C45   H12   S    
C41   C43   A    
C42   C44   A    
C10   C51   A    
C12   C52   S    
C33   C40   A    
C18   C27   A    
C17   O6    A    
C39   H18   S    
C4    C6    A    
C36   Cl5   S    
O6    Zn2   S    
C5    C7    A    
O5    Zn1   S    
C6    C8    A    
C29   H14   S    
C25   C26   A    
C51   H6    S    
C35   C39   A    
C16   C33   S    
C47   C48   A    
C34   H4    S    
C12   O2    A    
C19   C28   A    
C19   Cl2   S    
C8    C10   A    
C20   C22   A    
C13   C15   A    
C10   C14   A    
C16   O5    A    
C49   H13   S    
C36   C44   A    
C25   C27   A    
O4    Zn1   S    
C44   C45   A    
C4    H8    S    
C7    C9    A    
O3    Zn2   S    
C34   C49   A    
C23   C48   A    
C20   N1    A    
C27   C32   A    
C28   C31   A    
C3    H7    S    
C9    C50   A    
C3    C5    A    
C3    C52   A    
C11   H9    S    
C1    O3    A    
C26   C28   A    
C33   C38   A    
O2    Zn2   S    
C36   C38   A    
C9    C15   A    
C37   C39   A    
C6    C13   A    
C30   C32   A    
C30   H15   S    
C31   H16   S    
C21   N2    A    
C23   H3    S    
C42   C47   A    
N2    Zn2   S    
C19   N2    A    
C35   C41   A    
C50   H5    S    
C24   C30   A    
N1    Zn1   S    
C2    C51   A    
O8    Zn1   S    
C29   C31   A    
C21   C24   A    
C34   C47   A    
C17   C35   S    
C37   C46   A    
C38   H2    S    
