data_mof_unit_56227.cif
_audit_creation_date              2012-12-10T17:50:37-0500
_audit_creation_method            fapswitch 2.2
_symmetry_space_group_name_H-M    P1
_symmetry_Int_Tables_number       1
_space_group_crystal_system       triclinic
_cell_length_a                    15.734021
_cell_length_b                    10.60761
_cell_length_c                    10.026813
_cell_angle_alpha                 86.079613
_cell_angle_beta                  90.121454
_cell_angle_gamma                 92.731314
_cell_volume                      1667.66502482

loop_
_atom_site_label
_atom_site_type_symbol
_atom_type_description
_atom_site_fract_x
_atom_site_fract_y
_atom_site_fract_z
_atom_type_partial_charge
C1    C     C_R   0.508785 0.260476 0.504995 0.869761
C2    C     C_3   0.082563 0.516208 0.486406 0.059653
C3    C     C_3   0.971669 0.396082 0.536813 0.001714
C4    C     C_3   0.916091 0.506790 0.497466 0.012224
C5    C     C_3   0.030244 0.485086 0.615413 -0.241754
C6    C     C_3   0.974084 0.596991 0.573771 0.103596
C7    C     C_1   0.173758 0.512699 0.491049 0.025544
C8    C     C_1   0.825203 0.502988 0.501139 0.006410
C9    C     C_R   0.481130 0.088776 0.752904 -0.230999
C10   C     C_R   0.431026 0.021327 0.850111 -0.118424
C11   C     C_R   0.382199 0.915508 0.815510 -0.184873
C12   C     C_R   0.338085 0.500370 0.499607 0.892054
C13   C     C_R   0.388169 0.872112 0.687245 0.205045
C14   C     C_R   0.449731 0.931191 0.595971 0.083109
C15   C     C_R   0.484838 0.049950 0.622025 0.051512
C16   C     C_R   0.523657 0.125736 0.516667 -0.158918
C17   C     C_R   0.554510 0.071090 0.403932 0.119575
C18   C     C_R   0.522267 0.949587 0.377772 -0.078095
C19   C     C_R   0.479474 0.875499 0.482303 -0.230430
C20   C     C_R   0.354753 0.391005 0.137633 -0.054781
C21   C     C_R   0.280560 0.384629 0.058508 0.100355
C22   C     C_R   0.289453 0.355303 0.924283 0.137257
C23   C     C_R   0.493062 0.740218 0.494842 0.875073
C24   C     C_R   0.370242 0.370927 0.867143 -0.218772
C25   C     C_R   0.435152 0.437559 0.931353 0.108085
C26   C     C_R   0.431792 0.441835 0.074294 0.078801
C27   C     C_R   0.566429 0.552123 0.067367 -0.070972
C28   C     C_R   0.564226 0.557571 0.924248 -0.052170
C29   C     C_R   0.661493 0.500195 0.500264 0.883175
C30   C     C_3   0.968084 0.538042 0.368943 0.061101
C31   C     C_3   0.027056 0.628528 0.445631 -0.006864
C32   C     C_1   0.248961 0.506920 0.496741 -0.117004
C33   C     C_1   0.750081 0.501165 0.501124 -0.094139
C34   C     C_3   0.024654 0.425328 0.408032 -0.221317
H1    H     H_    0.338835 0.867141 0.888007 0.167106
H2    H     H_    0.380707 0.336763 0.770528 0.206506
H3    H     H_    0.055597 0.464245 0.717235 0.145876
H4    H     H_    0.046585 0.355240 0.340048 0.164330
H5    H     H_    0.519223 0.169563 0.781169 0.178274
N1    N     N_R   0.499210 0.498800 0.142780 -0.148194
N2    N     N_R   0.499180 0.498720 0.857170 -0.155481
O1    O     O_R   0.500000 0.316780 0.614690 -0.651091
O2    O     O_R   0.499990 0.316750 0.385360 -0.595543
O3    O     O_R   0.376780 0.500000 0.614650 -0.667646
O4    O     O_R   0.376770 0.499980 0.385310 -0.608317
O5    O     O_R   0.500010 0.683250 0.614640 -0.584819
O6    O     O_R   0.500000 0.683220 0.385310 -0.562244
O7    O     O_R   0.623230 0.500020 0.614690 -0.588710
O8    O     O_R   0.623220 0.500000 0.385350 -0.619994
Zn1   Zn    Zn3+2 0.500010 0.500020 0.653130 0.953913
Zn2   Zn    Zn3+2 0.499990 0.499980 0.346870 1.001907
C35   C     C_2   0.057801 0.757822 0.391319 0.875699
O9    O     O_2   0.006749 0.840047 0.369754 -0.615765
O10   O     O_R   0.144119 0.783217 0.363615 -0.820273
H6    H     H_    0.156801 0.873577 0.326961 0.360672
C36   C     C_3   0.322076 0.773698 0.647771 -0.398945
C37   C     C_3   0.232294 0.821849 0.653475 -0.850803
H7    H     H_    0.215167 0.843325 0.756542 0.249158
H8    H     H_    0.226905 0.908197 0.585352 0.285419
H9    H     H_    0.186253 0.747427 0.621791 0.273113
H10   H     H_    0.331983 0.748417 0.543912 0.211471
H11   H     H_    0.325770 0.688194 0.717359 0.231347
C38   C     C_2   0.521220 0.907085 0.238717 1.087783
O11   O     O_2   0.580566 0.933779 0.162018 -0.631868
O12   O     O_R   0.449767 0.838317 0.194171 -0.755399
H12   H     H_    0.456908 0.811164 0.099969 0.328997
C39   C     C_2   0.643939 0.600869 0.133379 0.980663
O13   O     O_2   0.711476 0.551585 0.116930 -0.637211
O14   O     O_R   0.640706 0.702773 0.213397 -0.765102
H13   H     H_    0.698204 0.727180 0.252406 0.322848
C40   C     C_2   0.354499 0.287109 0.244803 1.032614
O15   O     O_2   0.402688 0.201448 0.237502 -0.552066
O16   O     O_R   0.293327 0.278069 0.346263 -0.850151
H14   H     H_    0.299154 0.200927 0.410584 0.329783
C41   C     C_3   0.196160 0.415122 0.117821 -0.435294
C42   C     C_3   0.198728 0.554210 0.149406 -0.783995
H15   H     H_    0.143226 0.572177 0.211237 0.268656
H16   H     H_    0.256554 0.580092 0.206866 0.291677
H17   H     H_    0.197589 0.615830 0.055315 0.249169
H18   H     H_    0.142156 0.398705 0.049530 0.204358
H19   H     H_    0.181345 0.354220 0.209448 0.253248
C43   C     C_3   0.215916 0.310082 0.839480 -0.416436
C44   C     C_3   0.181423 0.178358 0.889277 -0.777924
H20   H     H_    0.231180 0.108596 0.880450 0.272301
H21   H     H_    0.160451 0.176779 0.995026 0.260667
H22   H     H_    0.126115 0.150043 0.827247 0.273816
H23   H     H_    0.164888 0.378345 0.837456 0.196866
H24   H     H_    0.236097 0.305502 0.733754 0.214451
C45   C     C_2   0.631402 0.632528 0.847958 0.988765
O17   O     O_2   0.701283 0.589249 0.834485 -0.609434
O18   O     O_R   0.616278 0.755642 0.798237 -0.786886
H25   H     H_    0.667198 0.798250 0.748858 0.331229
C46   C     C_3   0.920749 0.565631 0.236714 -0.333640
C47   C     C_3   0.979403 0.588574 0.116336 -0.851444
H26   H     H_    0.023294 0.672022 0.128228 0.267226
H27   H     H_    0.015538 0.503198 0.102889 0.254954
H28   H     H_    0.940741 0.607725 0.025037 0.275276
H29   H     H_    0.876225 0.483855 0.219629 0.244193
H30   H     H_    0.882587 0.650172 0.245449 0.232345
C48   C     C_3   0.939338 0.688759 0.669250 -0.369203
C49   C     C_3   0.010260 0.763120 0.737470 -0.847116
H31   H     H_    0.054667 0.697976 0.789595 0.249546
H32   H     H_    0.045672 0.827349 0.662875 0.282144
H33   H     H_    0.982292 0.821497 0.812408 0.268040
H34   H     H_    0.898086 0.755627 0.612626 0.228782
H35   H     H_    0.899913 0.633918 0.746858 0.237677
C50   C     C_2   0.942135 0.265424 0.588345 0.928403
O19   O     O_2   0.994557 0.186535 0.616630 -0.630154
O20   O     O_R   0.855283 0.234181 0.603609 -0.807232
H36   H     H_    0.843618 0.143166 0.638935 0.343077
C51   C     C_3   0.626577 0.139360 0.321966 -0.315480
C52   C     C_3   0.709745 0.071695 0.342955 -0.805284
H37   H     H_    0.729100 0.071828 0.449570 0.257979
H38   H     H_    0.703393 0.972311 0.315220 0.279787
H39   H     H_    0.760727 0.122040 0.280766 0.265084
H40   H     H_    0.610115 0.150442 0.214720 0.268631
H41   H     H_    0.640343 0.236514 0.353254 0.207108
C53   C     C_2   0.424434 0.067944 0.984466 0.974320
O21   O     O_2   0.359746 0.043056 0.050013 -0.569591
O22   O     O_R   0.490577 0.141099 0.038491 -0.763710
H42   H     H_    0.546943 0.139227 0.990605 0.310661

loop_
_geom_bond_atom_site_label_1
_geom_bond_atom_site_label_2
_ccdc_geom_bond_type
C38   O12   S    
C49   H31   S    
C5    H3    S    
O16   H14   S    
C51   C52   S    
C42   H17   S    
C31   C35   S    
C4    C8    S    
O2    Zn2   S    
C52   H38   S    
C29   O8    A    
C35   O9    D    
C48   H34   S    
C24   H2    S    
C22   C43   S    
C42   H16   S    
C30   C46   S    
C5    C6    S    
C18   C38   S    
C37   H8    S    
O4    Zn2   S    
C43   H23   S    
C29   C33   S    
C28   N2    A    
C9    H5    S    
C36   C37   S    
C18   C19   A    
C53   O21   D    
C1    O2    A    
C2    C7    S    
C16   C17   A    
O8    Zn2   S    
C50   O19   D    
C20   C40   S    
C51   H40   S    
C45   O18   S    
C41   H18   S    
C46   H30   S    
C13   C36   S    
C2    C34   S    
O7    Zn1   S    
C6    C31   S    
C49   H32   S    
C23   O5    A    
C21   C22   A    
C12   C32   S    
C50   O20   S    
C47   H26   S    
C17   C51   S    
C52   H37   S    
C35   O10   S    
C23   O6    A    
C30   C34   S    
C29   O7    A    
C39   O13   D    
C24   C25   A    
C4    C6    S    
C25   N2    A    
O18   H25   S    
C40   O16   S    
C41   H19   S    
C37   H9    S    
O6    Zn2   S    
C3    C34   S    
C3    C50   S    
C25   C26   A    
C2    C31   S    
C39   O14   S    
C6    C48   S    
C19   C23   S    
C41   C42   S    
C10   C53   S    
C44   H20   S    
C14   C15   A    
C27   N1    A    
C17   C18   A    
C1    C16   S    
C42   H15   S    
C47   H27   S    
C28   C45   S    
O1    Zn1   S    
C44   H21   S    
C43   C44   S    
C49   H33   S    
C22   C24   A    
C2    C5    S    
C3    C4    S    
N2    Zn1   S    
O22   H42   S    
C9    C10   A    
O3    Zn1   S    
C21   C41   S    
O10   H6    S    
C7    C32   T    
C34   H4    S    
C14   C19   A    
C12   O4    A    
C3    C5    S    
N1    Zn2   S    
C46   C47   S    
O5    Zn1   S    
C48   H35   S    
C47   H28   S    
C51   H41   S    
C11   H1    S    
C9    C15   A    
C40   O15   D    
C12   O3    A    
O20   H36   S    
C11   C13   A    
C26   N1    A    
C37   H7    S    
C30   C31   S    
C20   C26   A    
C43   H24   S    
C48   C49   S    
C36   H11   S    
C8    C33   T    
O14   H13   S    
C53   O22   S    
C27   C39   S    
C10   C11   A    
C38   O11   D    
C1    O1    A    
C44   H22   S    
C20   C21   A    
O12   H12   S    
C27   C28   A    
C36   H10   S    
C45   O17   D    
C13   C14   A    
C46   H29   S    
C52   H39   S    
C4    C30   S    
C15   C16   A    
