data_mof_unit_31435.cif
_audit_creation_date              2012-10-26T20:17:39-0400
_audit_creation_method            fapswitch 2.2
_symmetry_space_group_name_H-M    P1
_symmetry_Int_Tables_number       1
_space_group_crystal_system       triclinic
_cell_length_a                    27.707655
_cell_length_b                    8.744407
_cell_length_c                    7.512548
_cell_angle_alpha                 102.121593
_cell_angle_beta                  96.035516
_cell_angle_gamma                 94.473808
_cell_volume                      1760.34476252

loop_
_atom_site_label
_atom_site_type_symbol
_atom_type_description
_atom_site_fract_x
_atom_site_fract_y
_atom_site_fract_z
_atom_type_partial_charge
C1    C     C_R   0.497008 0.200480 0.454718 0.540108
C2    C     C_R   0.867248 0.372408 0.492665 -0.005316
C3    C     C_R   0.354552 0.477897 0.490132 -0.077541
C4    C     C_R   0.645685 0.516490 0.505848 -0.082533
C5    C     C_R   0.967253 0.349816 0.452909 0.018403
C6    C     C_R   0.030857 0.629638 0.487576 0.015246
C7    C     C_R   0.981256 0.639689 0.516954 -0.031679
C8    C     C_R   0.017294 0.339990 0.429142 -0.023241
C9    C     C_R   0.949472 0.499864 0.495277 0.022481
C10   C     C_R   0.048691 0.479832 0.447409 0.024916
C11   C     C_R   0.933964 0.214480 0.434918 -0.142317
C12   C     C_R   0.502822 0.799504 0.545326 0.541932
C13   C     C_R   0.063460 0.764463 0.494334 -0.152824
C14   C     C_R   0.885076 0.226065 0.453679 -0.104885
C15   C     C_R   0.111673 0.752029 0.463539 -0.113190
C16   C     C_R   0.407621 0.494313 0.498272 0.515981
C17   C     C_R   0.592483 0.504318 0.501345 0.515631
C18   C     C_R   0.036779 0.194365 0.379495 -0.153182
C19   C     C_R   0.962322 0.785522 0.570123 -0.149671
C20   C     C_2   0.490029 0.033126 0.433368 0.220800
C21   C     C_2   0.509590 0.966815 0.566967 0.220685
C22   C     C_R   0.169318 0.323997 0.421060 0.468722
C23   C     C_R   0.098760 0.470055 0.427123 -0.080608
C24   C     C_R   0.829657 0.662101 0.547745 0.425604
C25   C     C_R   0.178620 0.592165 0.405694 0.440268
C26   C     C_R   0.817703 0.383717 0.508555 0.411615
C27   C     C_R   0.280373 0.581004 0.585625 0.277369
C28   C     C_R   0.717078 0.451140 0.358425 0.258864
C29   C     C_R   0.331363 0.578568 0.614304 -0.175348
C30   C     C_R   0.666628 0.444329 0.353034 -0.153099
C31   C     C_R   0.326928 0.366465 0.348599 -0.179879
C32   C     C_R   0.675585 0.600871 0.663798 -0.182686
C33   C     C_R   0.275647 0.350177 0.333388 0.274585
C34   C     C_R   0.899159 0.510022 0.513654 -0.083881
C35   C     C_R   0.726975 0.613828 0.670790 0.281713
C36   C     C_R   0.251878 0.461417 0.448640 0.258082
C37   C     C_R   0.747407 0.531765 0.519020 0.247448
C38   C     C_3   0.419773 0.286798 0.962424 0.074065
C39   C     C_3   0.392604 0.163061 0.802756 -0.398601
C40   C     C_3   0.579514 0.716576 0.039803 0.063053
C41   C     C_3   0.604947 0.846035 0.197360 -0.389469
C42   C     C_3   0.266606 0.087762 0.184837 -0.001699
C43   C     C_3   0.225161 0.957541 0.117826 -0.310743
C44   C     C_3   0.740680 0.814466 0.945050 -0.013023
C45   C     C_R   0.118109 0.324297 0.399443 0.038176
C46   C     C_3   0.729829 0.953451 0.858582 -0.364125
C47   C     C_3   0.070854 0.954789 0.125422 -0.021200
C48   C     C_3   0.097894 0.840650 0.000162 -0.361961
C49   C     C_3   0.904369 0.984470 0.838951 0.010146
C50   C     C_3   0.889710 0.149422 0.899781 -0.365336
C51   C     C_3   0.752509 0.466734 0.102138 -0.005882
C52   C     C_3   0.790775 0.391697 0.991617 -0.346898
C53   C     C_3   0.282469 0.849455 0.705294 -0.005943
C54   C     C_3   0.246152 0.968443 0.682135 -0.316927
C55   C     C_3   0.413212 0.940930 0.296115 -0.004063
C56   C     C_R   0.880532 0.657419 0.551420 0.014880
C57   C     C_3   0.383684 0.832209 0.129071 -0.341287
C58   C     C_3   0.586009 0.064436 0.704683 -0.004573
C59   C     C_3   0.614661 0.178175 0.869837 -0.336318
C60   C     C_R   0.086087 0.185311 0.352922 0.273223
C61   C     C_R   0.913179 0.795037 0.590640 0.255792
C62   C     C_R   0.129721 0.605937 0.431385 0.008819
Cu1   Cu    Cu3+1 0.505380 0.517380 0.684380 1.049896
Cu2   Cu    Cu3+1 0.494620 0.482620 0.315620 1.050587
H1    H     H_    0.345509 0.290428 0.251188 0.093088
H2    H     H_    0.579834 0.760225 0.911712 0.162291
H3    H     H_    0.600483 0.611998 0.031442 0.106135
H4    H     H_    0.606879 0.804630 0.327703 0.141551
H5    H     H_    0.642537 0.879234 0.170492 0.086015
H6    H     H_    0.584501 0.951415 0.211793 0.168491
H7    H     H_    0.284687 0.071219 0.318335 0.113242
H8    H     H_    0.293605 0.076336 0.085320 0.103142
H9    H     H_    0.239821 0.842714 0.074796 0.151989
H10   H     H_    0.201885 0.983509 0.001830 0.159726
H11   H     H_    0.202002 0.950584 0.227588 0.239437
H12   H     H_    0.658078 0.655533 0.778849 0.099365
H13   H     H_    0.769577 0.859459 0.062749 0.173351
H14   H     H_    0.709304 0.770593 0.007028 0.094037
H15   H     H_    0.698452 0.920989 0.748723 0.129415
H16   H     H_    0.720786 0.051545 0.965686 0.141949
H17   H     H_    0.762363 0.994022 0.799997 0.209777
H18   H     H_    0.042307 0.883878 0.175240 0.129775
H19   H     H_    0.053060 0.030490 0.040912 0.123814
H20   H     H_    0.121142 0.775323 0.081132 0.185037
H21   H     H_    0.071184 0.754767 0.900445 0.114787
H22   H     H_    0.120658 0.905573 0.921903 0.145934
H23   H     H_    0.014544 0.084693 0.357589 0.083910
H24   H     H_    0.881073 0.902662 0.897555 0.158559
H25   H     H_    0.943318 0.984802 0.894615 0.102889
H26   H     H_    0.892086 0.181538 0.051567 0.101096
H27   H     H_    0.914393 0.235356 0.853447 0.158924
H28   H     H_    0.851682 0.154213 0.839596 0.182934
H29   H     H_    0.643862 0.378563 0.230952 0.134325
H30   H     H_    0.353206 0.663914 0.724418 0.114072
H31   H     H_    0.769441 0.583936 0.183430 0.148200
H32   H     H_    0.720951 0.483607 0.006518 0.148143
H33   H     H_    0.773845 0.284307 0.891372 0.163568
H34   H     H_    0.984717 0.896241 0.600893 0.109819
H35   H     H_    0.807125 0.474704 0.916159 0.161196
H36   H     H_    0.820283 0.360445 0.085252 0.149871
H37   H     H_    0.308181 0.855029 0.601246 0.112043
H38   H     H_    0.303985 0.885339 0.842668 0.106753
H39   H     H_    0.209324 0.926591 0.708061 0.182859
H40   H     H_    0.258728 0.084318 0.774965 0.124885
H41   H     H_    0.243040 0.985314 0.539847 0.191287
H42   H     H_    0.860973 0.118705 0.434500 0.215926
H43   H     H_    0.135366 0.858227 0.471255 0.203696
H44   H     H_    0.943977 0.096363 0.405257 0.130818
H45   H     H_    0.399627 0.393473 0.977796 0.124328
H46   H     H_    0.052924 0.882085 0.519794 0.122464
H47   H     H_    0.400778 0.060447 0.309216 0.090459
H48   H     H_    0.405739 0.895096 0.419379 0.102791
H49   H     H_    0.395208 0.711704 0.112954 0.185318
H50   H     H_    0.344291 0.827411 0.145899 0.082239
H51   H     H_    0.389436 0.876442 0.004042 0.141300
H52   H     H_    0.592691 0.109210 0.579983 0.111289
H53   H     H_    0.599822 0.947000 0.694098 0.098194
H54   H     H_    0.653662 0.193479 0.849024 0.100775
H55   H     H_    0.600140 0.294593 0.887984 0.180619
H56   H     H_    0.419909 0.238802 0.087680 0.159433
H57   H     H_    0.611696 0.131811 0.995384 0.151010
H58   H     H_    0.411006 0.053417 0.784998 0.154872
H59   H     H_    0.354630 0.136738 0.830197 0.067603
H60   H     H_    0.391616 0.206734 0.674039 0.145608
N1    N     N_R   0.199045 0.457797 0.422612 -0.358924
N2    N     N_R   0.799460 0.526388 0.528117 -0.378301
N3    N     N_2   0.486510 0.456430 0.038510 0.090364
N4    N     N_2   0.513490 0.543570 0.961490 0.090495
O1    O     O_R   0.503500 0.286120 0.619780 -0.440527
O2    O     O_2   0.810304 0.800033 0.557879 -0.449986
O3    O     O_2   0.787751 0.252703 0.502164 -0.488261
O4    O     O_2   0.205587 0.711743 0.364806 -0.538060
O5    O     O_3   0.467762 0.319326 0.925810 -0.420330
O6    O     O_3   0.531341 0.682010 0.073292 -0.417512
O7    O     O_3   0.247859 0.235312 0.197554 -0.519765
O8    O     O_3   0.759411 0.693410 0.823346 -0.565471
O9    O     O_3   0.103602 0.043960 0.276453 -0.542348
O10   O     O_3   0.897465 0.941660 0.645380 -0.539710
O11   O     O_3   0.736671 0.365266 0.212285 -0.549363
O12   O     O_R   0.496500 0.713880 0.380220 -0.439504
O13   O     O_3   0.257448 0.697996 0.689984 -0.537677
O14   O     O_3   0.463245 0.944484 0.273477 -0.523124
O15   O     O_3   0.535987 0.055377 0.727718 -0.525427
O16   O     O_R   0.494410 0.256780 0.308360 -0.490575
O17   O     O_R   0.505590 0.743220 0.691640 -0.489154
O18   O     O_R   0.434810 0.514700 0.655690 -0.494708
O19   O     O_R   0.565190 0.485300 0.344310 -0.499553
O20   O     O_R   0.425720 0.485350 0.344280 -0.551295
O21   O     O_R   0.574280 0.514650 0.655720 -0.554194
O22   O     O_2   0.188830 0.194187 0.450691 -0.482676

loop_
_geom_bond_atom_site_label_1
_geom_bond_atom_site_label_2
_ccdc_geom_bond_type
C12   O12   A    
C44   O8    S    
C58   H52   S    
C22   O22   S    
C45   C60   A    
C43   H9    S    
C23   C45   A    
C55   H48   S    
C27   C29   A    
C6    C7    A    
C36   N1    S    
C57   H51   S    
C53   C54   S    
C34   C56   A    
C39   H58   S    
C54   H40   S    
C44   H13   S    
C35   C37   A    
C5    C11   A    
C30   H29   S    
C1    O1    A    
C46   H15   S    
C11   C14   A    
C61   O10   S    
C47   H18   S    
C52   H33   S    
C33   C36   A    
C39   H59   S    
C17   O19   A    
C16   O18   A    
C26   N2    A    
C38   O5    S    
C15   H43   S    
C3    C29   A    
C25   N1    A    
Cu1   O21   S    
C58   O15   S    
C50   H26   S    
C23   C62   A    
C53   H37   S    
C40   H3    S    
C31   C33   A    
C47   H19   S    
Cu1   O18   S    
Cu1   N4    S    
C51   H32   S    
C38   H56   S    
C2    C34   A    
C43   H10   S    
C55   O14   S    
C40   H2    S    
C49   O10   S    
Cu2   O20   S    
C24   N2    A    
C49   H24   S    
C28   O11   S    
C19   H34   S    
C44   C46   S    
C41   H4    S    
C43   H11   S    
C51   C52   S    
C32   C35   A    
C20   O14   S    
C54   H39   S    
C21   O15   S    
C31   H1    S    
C22   N1    A    
C57   H49   S    
Cu2   O16   S    
C58   C59   S    
C40   O6    S    
C12   C21   S    
C52   H36   S    
C58   H53   S    
C8    C18   A    
C39   H60   S    
C48   H20   S    
C42   O7    S    
C12   O17   A    
C5    C9    A    
C13   H46   S    
N4    O6    S    
C46   H17   S    
C33   O7    S    
C47   C48   S    
C13   C15   A    
C53   H38   S    
Cu2   N3    S    
C47   O9    S    
C42   H8    S    
C2    C26   A    
C38   H45   S    
C3    C31   A    
C4    C32   A    
C4    C17   S    
C50   H28   S    
C40   C41   S    
C59   H54   S    
C7    C19   A    
C55   C57   S    
Cu2   O19   S    
C9    C34   A    
C10   C23   A    
C48   H22   S    
C42   C43   S    
N3    N4    D    
C41   H5    S    
C37   N2    S    
Cu2   O12   S    
C18   C60   A    
C7    C9    A    
C1    C20   S    
C59   H55   S    
C54   H41   S    
C55   H47   S    
C48   H21   S    
C17   O21   A    
N3    O5    S    
C49   H25   S    
Cu1   Cu2   S    
C35   O8    S    
C32   H12   S    
C5    C8    A    
C57   H50   S    
C27   C36   A    
C24   C56   A    
C60   O9    S    
C52   H35   S    
C18   H23   S    
C16   O20   A    
C44   H14   S    
C1    O16   A    
C6    C13   A    
C46   H16   S    
C38   C39   S    
C28   C37   A    
C19   C61   A    
C28   C30   A    
C42   H7    S    
C27   O13   S    
C15   C62   A    
C29   H30   S    
C53   O13   S    
C25   C62   A    
Cu1   O1    S    
C2    C14   A    
C6    C10   A    
C3    C16   S    
C59   H57   S    
C24   O2    S    
C50   H27   S    
C14   H42   S    
C22   C45   A    
C20   C21   D    
C8    C10   A    
C49   C50   S    
C11   H44   S    
C56   C61   A    
C25   O4    S    
Cu1   O17   S    
C4    C30   A    
C26   O3    S    
C51   H31   S    
C41   H6    S    
C51   O11   S    
