data_mof_unit_42509.cif
_audit_creation_date              2012-12-10T17:23:13-0500
_audit_creation_method            fapswitch 2.2
_symmetry_space_group_name_H-M    P1
_symmetry_Int_Tables_number       1
_space_group_crystal_system       triclinic
_cell_length_a                    15.866411
_cell_length_b                    10.900171
_cell_length_c                    9.618521
_cell_angle_alpha                 90.137716
_cell_angle_beta                  90.363897
_cell_angle_gamma                 93.547718
_cell_volume                      1660.26253478

loop_
_atom_site_label
_atom_site_type_symbol
_atom_type_description
_atom_site_fract_x
_atom_site_fract_y
_atom_site_fract_z
_atom_type_partial_charge
C1    C     C_R   0.488706 0.263215 0.499551 0.784860
C2    C     C_3   0.083114 0.500252 0.501870 0.115603
C3    C     C_3   0.976453 0.614108 0.467933 -0.226810
C4    C     C_3   0.916862 0.501182 0.503131 0.127793
C5    C     C_3   0.027388 0.528988 0.377815 0.323782
C6    C     C_3   0.967222 0.416760 0.409854 -0.179147
C7    C     C_1   0.174771 0.499937 0.499867 -0.029344
C8    C     C_1   0.825195 0.501411 0.502185 0.014237
C9    C     C_R   0.423718 0.107094 0.743066 0.018886
C10   C     C_R   0.446478 0.059050 0.872100 -0.070460
C11   C     C_R   0.500702 0.963487 0.876712 -0.146283
C12   C     C_R   0.340004 0.499593 0.499626 0.817888
C13   C     C_R   0.520914 0.903882 0.754167 -0.150863
C14   C     C_R   0.492881 0.944663 0.624521 0.094399
C15   C     C_R   0.461384 0.062175 0.621547 0.019150
C16   C     C_R   0.470715 0.129352 0.497900 -0.169956
C17   C     C_R   0.474033 0.065688 0.372591 -0.182040
C18   C     C_R   0.478757 0.938558 0.371412 -0.001840
C19   C     C_R   0.495217 0.875697 0.498163 -0.188467
C20   C     C_R   0.621240 0.651279 0.145927 -0.167611
C21   C     C_R   0.684130 0.719239 0.075425 -0.217195
C22   C     C_R   0.686177 0.715764 0.932333 -0.185057
C23   C     C_R   0.500719 0.739201 0.499814 0.759013
C24   C     C_R   0.624710 0.645509 0.859290 -0.140147
C25   C     C_R   0.561588 0.570805 0.926571 0.218293
C26   C     C_R   0.560680 0.572386 0.075828 0.217196
C27   C     C_R   0.440852 0.433689 0.073082 -0.041877
C28   C     C_R   0.440106 0.435789 0.925575 -0.049035
C29   C     C_R   0.659974 0.500481 0.500411 0.807992
C30   C     C_3   0.972060 0.472145 0.628970 0.067670
C31   C     C_3   0.023541 0.387736 0.537341 -0.254751
C32   C     C_1   0.250306 0.499715 0.499124 -0.149413
C33   C     C_1   0.749657 0.501121 0.501355 -0.146770
C34   C     C_3   0.032796 0.584293 0.595167 -0.258416
Cu1   Cu    Cu3+1 0.499990 0.499990 0.640660 0.957553
Cu2   Cu    Cu3+1 0.500010 0.500010 0.359340 0.948982
H1    H     H_    0.043699 0.295606 0.567095 0.156717
H2    H     H_    0.524230 0.931609 0.974767 0.150897
H3    H     H_    0.562473 0.831696 0.761067 0.146552
H4    H     H_    0.392189 0.379192 0.127231 0.151741
H5    H     H_    0.620384 0.668969 0.254577 0.185955
H6    H     H_    0.729728 0.778390 0.132190 0.149024
H7    H     H_    0.733213 0.772575 0.877028 0.153038
H8    H     H_    0.625669 0.661017 0.750526 0.177835
H9    H     H_    0.389663 0.386785 0.870405 0.179464
H10   H     H_    0.939864 0.349134 0.332978 0.145860
H11   H     H_    0.956633 0.706244 0.437543 0.142984
H12   H     H_    0.060431 0.651784 0.671983 0.155496
H13   H     H_    0.472919 0.114846 0.274706 0.170125
H14   H     H_    0.422749 0.095392 0.968144 0.180200
N1    N     N_R   0.500800 0.501210 0.147910 -0.203856
N2    N     N_R   0.500830 0.501290 0.852040 -0.206689
O1    O     O_R   0.499990 0.319640 0.618810 -0.579161
O2    O     O_R   0.500000 0.319660 0.381240 -0.576910
O3    O     O_R   0.379070 0.499980 0.618770 -0.578291
O4    O     O_R   0.379080 0.500000 0.381190 -0.569126
O5    O     O_R   0.500000 0.680340 0.618760 -0.589191
O6    O     O_R   0.500010 0.680360 0.381190 -0.607116
O7    O     O_R   0.620920 0.500000 0.618810 -0.575161
O8    O     O_R   0.620930 0.500020 0.381230 -0.589921
C35   C     C_2   0.466135 0.878112 0.234927 0.367521
H15   H     H_    0.513557 0.822235 0.192523 0.076476
O9    O     O_2   0.402339 0.893162 0.167027 -0.538786
C36   C     C_2   0.943113 0.439779 0.772886 0.338282
H16   H     H_    0.989165 0.418509 0.851608 0.072599
O10   O     O_2   0.868356 0.437078 0.802413 -0.532071
N3    N     N_2   0.060306 0.560325 0.241647 -0.427581
H17   H     H_    0.107124 0.630229 0.244683 0.261836
C37   C     C_3   0.996962 0.578186 0.136184 -0.658608
H18   H     H_    0.028228 0.596991 0.034840 0.225913
H19   H     H_    0.959552 0.657546 0.163645 0.219045
H20   H     H_    0.954161 0.494178 0.124735 0.243215
C38   C     C_2   0.350372 0.184539 0.732205 0.347780
H21   H     H_    0.335271 0.227986 0.634602 0.059923
O11   O     O_2   0.302960 0.195187 0.830484 -0.563826

loop_
_geom_bond_atom_site_label_1
_geom_bond_atom_site_label_2
_ccdc_geom_bond_type
C23   O6    A    
C30   C36   S    
Cu1   O1    S    
C28   N2    A    
C38   H21   S    
C2    C7    S    
C4    C8    S    
C20   H5    S    
Cu2   O6    S    
C5    C6    S    
C15   C16   A    
C29   C33   S    
Cu1   O7    S    
C18   C19   A    
C35   O9    D    
C1    O1    A    
C29   O7    A    
C16   C17   A    
C9    C10   A    
C5    N3    S    
C2    C34   S    
C6    C31   S    
C21   C22   A    
C12   C32   S    
C38   O11   D    
C37   H18   S    
C9    C38   S    
C27   N1    A    
C28   H9    S    
C37   H19   S    
C30   C34   S    
Cu1   O3    S    
N3    H17   S    
C24   C25   A    
C4    C6    S    
C17   H13   S    
C3    C34   S    
Cu2   O8    S    
C25   C26   A    
C31   H1    S    
C2    C31   S    
N3    C37   S    
Cu1   Cu2   S    
C36   O10   D    
C37   H20   S    
C19   C23   S    
C1    O2    A    
Cu2   O4    S    
C22   H7    S    
C29   O8    A    
C27   H4    S    
C17   C18   A    
C1    C16   S    
C12   O4    A    
Cu2   N1    S    
C24   H8    S    
C22   C24   A    
C2    C5    S    
C34   H12   S    
C3    C4    S    
C10   H14   S    
C27   C28   A    
C23   O5    A    
C7    C32   T    
C6    H10   S    
C14   C19   A    
C3    C5    S    
C18   C35   S    
Cu1   O5    S    
C36   H16   S    
C9    C15   A    
C25   N2    A    
C26   N1    A    
C11   C13   A    
C30   C31   S    
C20   C26   A    
C3    H11   S    
C8    C33   T    
C35   H15   S    
C13   H3    S    
C12   O3    A    
Cu2   O2    S    
C10   C11   A    
C21   H6    S    
C20   C21   A    
Cu1   N2    S    
C14   C15   A    
C11   H2    S    
C13   C14   A    
C4    C30   S    
