data_mof_unit_36373.cif
_audit_creation_date              2012-12-10T19:15:16-0500
_audit_creation_method            fapswitch 2.2
_symmetry_space_group_name_H-M    P1
_symmetry_Int_Tables_number       1
_space_group_crystal_system       triclinic
_cell_length_a                    13.337323
_cell_length_b                    14.750055
_cell_length_c                    15.987396
_cell_angle_alpha                 89.960893
_cell_angle_beta                  89.325874
_cell_angle_gamma                 71.540645
_cell_volume                      2983.09642136

loop_
_atom_site_label
_atom_site_type_symbol
_atom_type_description
_atom_site_fract_x
_atom_site_fract_y
_atom_site_fract_z
_atom_type_partial_charge
C1    C     C_R   0.501328 0.499575 0.659101 0.881022
C2    C     C_R   0.979204 0.461936 0.497771 0.013682
C3    C     C_R   0.875361 0.474159 0.525373 -0.129190
C4    C     C_R   0.026037 0.533877 0.513736 -0.066473
C5    C     C_R   0.971667 0.613643 0.564301 -0.221870
C6    C     C_R   0.876009 0.615981 0.605056 0.475634
C7    C     C_R   0.832167 0.542253 0.589201 0.400593
C8    C     C_R   0.121581 0.531742 0.473712 0.406207
C9    C     C_R   0.126689 0.666204 0.561417 0.245034
C10   C     C_R   0.819621 0.415284 0.491259 -0.260798
C11   C     C_R   0.473885 0.428304 0.044676 0.374189
C12   C     C_R   0.702023 0.448408 0.497248 0.939491
C13   C     C_R   0.487520 0.506865 0.087484 -0.254140
C14   C     C_R   0.496871 0.586789 0.043337 0.293922
C15   C     C_R   0.501953 0.583392 0.955196 0.342633
C16   C     C_R   0.488891 0.504458 0.912659 -0.209876
C17   C     C_R   0.472875 0.427634 0.957063 0.370545
C18   C     C_1   0.493653 0.503402 0.177069 0.198795
C19   C     C_1   0.494518 0.501856 0.823041 0.110684
C20   C     C_1   0.498446 0.500401 0.748079 -0.150944
C21   C     C_1   0.497376 0.501159 0.251966 -0.062341
C22   C     C_R   0.552953 0.032886 0.431115 0.279036
C23   C     C_R   0.499988 0.500056 0.340882 0.814326
C24   C     C_R   0.496871 0.097768 0.494609 -0.342202
C25   C     C_R   0.438517 0.065501 0.555977 0.342818
C26   C     C_R   0.442441 0.968047 0.557780 0.357773
C27   C     C_R   0.502738 0.902076 0.498023 -0.320016
C28   C     C_R   0.562240 0.933199 0.436619 0.290372
C29   C     C_1   0.499043 0.197605 0.497729 0.490484
C30   C     C_1   0.500468 0.802482 0.499382 0.425155
C31   C     C_R   0.297963 0.551742 0.502101 0.856018
C32   C     C_R   0.016748 0.687709 0.574330 0.391566
C33   C     C_R   0.180955 0.585838 0.510131 -0.304812
C34   C     C_R   0.876875 0.331914 0.444247 0.282804
C35   C     C_R   0.988527 0.306228 0.440348 0.361080
C36   C     C_R   0.036871 0.373863 0.461771 -0.199908
Cu1   Cu    Cu3+1 0.499970 0.410790 0.500000 1.087915
Cu2   Cu    Cu3+1 0.500030 0.589210 0.500000 1.096044
H1    H     H_    0.121473 0.355006 0.454154 0.204717
N1    N     N_1   0.499970 0.723300 0.500020 -0.133056
N2    N     N_1   0.500030 0.276700 0.499980 -0.123371
O1    O     O_R   0.499950 0.424690 0.619690 -0.574679
O2    O     O_R   0.500000 0.575360 0.619690 -0.550283
O3    O     O_R   0.650940 0.387890 0.499980 -0.528541
O4    O     O_R   0.650990 0.538570 0.499980 -0.553875
O5    O     O_R   0.500000 0.424640 0.380310 -0.544750
O6    O     O_R   0.500050 0.575310 0.380310 -0.554705
O7    O     O_R   0.349010 0.461430 0.500020 -0.611106
O8    O     O_R   0.349060 0.612110 0.500020 -0.504480
S1    S     S_3+6 0.194691 0.733243 0.617592 0.088371
O9    O     O_2   0.237519 0.790568 0.557378 -0.208874
O10   O     O_2   0.123942 0.799737 0.680480 -0.183843
O11   O     O_3   0.294447 0.657649 0.670327 -0.571659
H2    H     H_    0.325436 0.699222 0.702773 0.376314
O12   O     O_3   0.471241 0.347771 0.088037 -0.506832
C37   C     C_3   0.366368 0.360270 0.114326 -0.176714
H3    H     H_    0.314643 0.361962 0.060054 0.156623
H4    H     H_    0.333167 0.425798 0.153124 0.115973
H5    H     H_    0.366016 0.298374 0.153649 0.215759
S2    S     S_3+6 0.507150 0.688409 0.098368 0.075289
O13   O     O_2   0.428575 0.713074 0.169630 -0.235875
O14   O     O_2   0.486976 0.773794 0.041989 -0.202831
O15   O     O_3   0.629862 0.660856 0.137017 -0.523294
H6    H     H_    0.639077 0.723018 0.151331 0.408409
O16   O     O_3   0.515122 0.658929 0.909937 -0.523317
C38   C     C_3   0.624227 0.641896 0.895961 -0.172992
H7    H     H_    0.667986 0.634317 0.955753 0.194511
H8    H     H_    0.634812 0.704106 0.862363 0.185052
H9    H     H_    0.659093 0.577663 0.856092 0.128347
S3    S     S_3+6 0.647184 0.845267 0.367881 0.091408
O17   O     O_2   0.583849 0.833122 0.294058 -0.219077
O18   O     O_2   0.740032 0.873690 0.337831 -0.168442
O19   O     O_3   0.695255 0.739265 0.416435 -0.544876
H10   H     H_    0.732368 0.693670 0.372105 0.384693
S4    S     S_3+6 0.604278 0.078277 0.342180 0.103294
O20   O     O_2   0.549716 0.183418 0.330230 -0.277143
O21   O     O_2   0.720213 0.061695 0.354346 -0.201962
O22   O     O_3   0.587184 0.022108 0.254586 -0.429786
H11   H     H_    0.627311 0.043577 0.210519 0.389674
S5    S     S_3+6 0.358857 0.148271 0.630365 0.051222
O23   O     O_2   0.278651 0.110443 0.671977 -0.179742
O24   O     O_2   0.429882 0.167236 0.695728 -0.312388
O25   O     O_3   0.294498 0.251694 0.582554 -0.533880
H12   H     H_    0.260920 0.296594 0.628387 0.362925
O26   O     O_3   0.381740 0.938035 0.615613 -0.486885
C39   C     C_3   0.444390 0.900226 0.685682 -0.132769
H13   H     H_    0.392834 0.885306 0.735186 0.221345
H14   H     H_    0.481564 0.951575 0.712070 0.169837
H15   H     H_    0.505778 0.831492 0.669898 0.080663
O27   O     O_3   0.837470 0.680647 0.670152 -0.543668
C40   C     C_3   0.727537 0.727861 0.663431 -0.110889
H16   H     H_    0.683135 0.693781 0.705311 0.163675
H17   H     H_    0.697643 0.730953 0.598341 0.167942
H18   H     H_    0.710405 0.802657 0.685265 0.174668
S6    S     S_3+6 0.934227 0.809235 0.580773 0.123234
O28   O     O_2   0.908062 0.837735 0.670666 -0.210040
O29   O     O_2   0.989084 0.873752 0.541681 -0.180644
O30   O     O_3   0.821837 0.822578 0.528601 -0.498731
H19   H     H_    0.777982 0.889787 0.538631 0.368948
O31   O     O_3   0.126151 0.512206 0.387939 -0.553008
C41   C     C_3   0.226253 0.456325 0.358129 -0.199415
H20   H     H_    0.262569 0.393237 0.398244 0.181822
H21   H     H_    0.278241 0.501034 0.347943 0.139341
H22   H     H_    0.215860 0.427605 0.295882 0.182622
S7    S     S_3+6 0.809773 0.266148 0.385578 0.108199
O32   O     O_2   0.771843 0.204654 0.444946 -0.202976
O33   O     O_2   0.716693 0.334352 0.342545 -0.301004
O34   O     O_3   0.886279 0.196725 0.310984 -0.422414
H23   H     H_    0.839171 0.167849 0.281124 0.403817
S8    S     S_3+6 0.072989 0.190549 0.412664 0.102442
O35   O     O_2   0.093676 0.186449 0.319903 -0.221636
O36   O     O_2   0.176587 0.170497 0.456880 -0.246042
O37   O     O_3   0.017961 0.106712 0.440382 -0.411197
H24   H     H_    0.068755 0.045477 0.420749 0.404823
O38   O     O_3   0.751997 0.532900 0.640842 -0.598578
C42   C     C_3   0.797142 0.464693 0.702911 -0.329921
H25   H     H_    0.852035 0.488517 0.742743 0.188030
H26   H     H_    0.838527 0.393261 0.675116 0.185970
H27   H     H_    0.732933 0.456642 0.743905 0.182510
O39   O     O_3   0.465933 0.347073 0.916174 -0.514845
C43   C     C_3   0.364535 0.366681 0.881019 -0.169531
H28   H     H_    0.363693 0.395377 0.816786 0.170988
H29   H     H_    0.300170 0.416629 0.919368 0.111096
H30   H     H_    0.346331 0.298552 0.875909 0.216766

loop_
_geom_bond_atom_site_label_1
_geom_bond_atom_site_label_2
_ccdc_geom_bond_type
C38   H8    S    
O12   C37   S    
C41   H20   S    
C25   S5    S    
O19   H10   S    
C35   C36   A    
C4    C8    A    
S6    O30   S    
Cu2   O8    S    
O26   C39   S    
C37   H3    S    
S7    O33   D    
C26   C27   A    
C13   C18   S    
S2    O15   S    
C3    C7    A    
C26   O26   S    
C5    C6    A    
C39   H14   S    
C38   H9    S    
O38   C42   S    
C18   C21   T    
O34   H23   S    
S2    O14   D    
C34   C35   A    
C7    O38   S    
Cu1   O1    S    
C37   H5    S    
C24   C29   S    
C43   H30   S    
C9    C32   A    
S8    O35   D    
C1    O2    A    
C19   C20   T    
C37   H4    S    
C16   C17   A    
Cu2   O4    S    
S1    O10   D    
C31   C33   S    
S3    O17   D    
C17   O39   S    
C5    C32   A    
C38   H7    S    
C41   H21   S    
C23   O5    A    
C22   C28   A    
C13   C14   A    
C27   C30   S    
C9    C33   A    
C22   S4    S    
C31   O8    A    
S5    O25   S    
S7    O34   S    
S1    O11   S    
C23   O6    A    
C24   C25   A    
S5    O24   D    
C40   H16   S    
O22   H11   S    
S5    O23   D    
C25   C26   A    
C6    O27   S    
S2    O13   D    
C2    C4    A    
S4    O20   D    
Cu1   Cu2   S    
C40   H17   S    
O25   H12   S    
S3    O19   S    
S1    O9    D    
C43   H28   S    
C30   N1    T    
C10   C34   A    
Cu1   O7    S    
S4    O21   D    
S8    O37   S    
Cu2   O6    S    
C35   S8    S    
C10   C12   S    
O16   C38   S    
C41   H22   S    
C31   O7    A    
C21   C23   S    
C22   C24   A    
C11   O12   S    
O39   C43   S    
O37   H24   S    
C2    C36   A    
C11   C17   A    
C1    C20   S    
C29   N2    T    
C39   H13   S    
C34   S7    S    
C36   H1    S    
C28   S3    S    
C9    S1    S    
C12   O4    A    
C39   H15   S    
S6    O29   D    
O11   H2    S    
C6    C7    A    
C14   S2    S    
S7    O32   D    
C42   H27   S    
Cu1   O3    S    
C2    C3    A    
C8    O31   S    
Cu2   O2    S    
C12   O3    A    
C3    C10   A    
C40   H18   S    
Cu2   N1    S    
C11   C13   A    
O27   C40   S    
C16   C19   S    
O31   C41   S    
C42   H26   S    
C42   H25   S    
C8    C33   A    
Cu1   N2    S    
S4    O22   S    
S8    O36   D    
C43   H29   S    
O15   H6    S    
C1    O1    A    
C4    C5    A    
C32   S6    S    
O30   H19   S    
C27   C28   A    
C14   C15   A    
S3    O18   D    
Cu1   O5    S    
S6    O28   D    
C15   C16   A    
C15   O16   S    
