data_mof_unit_13788.cif
_audit_creation_date              2013-03-05T16:00:37-0500
_audit_creation_method            fapswitch 2.2
_symmetry_space_group_name_H-M    P1
_symmetry_Int_Tables_number       1
_space_group_crystal_system       triclinic
_cell_length_a                    10.734249
_cell_length_b                    14.708547
_cell_length_c                    14.764397
_cell_angle_alpha                 64.68389
_cell_angle_beta                  103.862118
_cell_angle_gamma                 102.852494
_cell_volume                      2026.62470473

loop_
_atom_site_label
_atom_site_type_symbol
_atom_site_description
_atom_site_fract_x
_atom_site_fract_y
_atom_site_fract_z
_atom_type_partial_charge
O1    O     O_R   0.455060 0.022100 0.338110 -0.580123
O2    O     O_R   0.512640 0.160150 0.379180 -0.586279
C1    C     C_R   0.477587 0.119842 0.312055 0.907070
O3    O     O_R   0.288900 0.930980 0.479450 -0.553098
O4    O     O_R   0.346480 0.069030 0.520520 -0.595251
C2    C     C_R   0.260159 0.001083 0.498926 0.833920
Cu1   Cu    Cu3+1 0.465900 0.918260 0.475680 1.023240
Cu2   Cu    Cu3+1 0.534100 0.081740 0.524320 0.971825
O5    O     O_R   0.487360 0.839850 0.620820 -0.578985
O6    O     O_R   0.544940 0.977900 0.661890 -0.590295
O7    O     O_R   0.653520 0.930970 0.479480 -0.577642
O8    O     O_R   0.711100 0.069020 0.520550 -0.590554
C3    C     C_R   0.520519 0.880012 0.687759 0.809209
C4    C     C_R   0.739564 0.001185 0.497983 0.859054
C5    C     C_3   0.038759 0.000315 0.394580 0.132287
H1    H     H_    0.050372 0.929837 0.388918 0.149428
C6    C     C_3   0.892227 0.993688 0.396553 0.130845
H2    H     H_    0.845808 0.915909 0.403154 0.153260
H3    H     H_    0.869027 0.839820 0.586248 0.268140
C7    C     C_3   0.073036 0.910210 0.590502 0.135691
C8    C     C_3   0.105142 0.099517 0.508237 -0.417998
C9    C     C_3   0.122126 0.002626 0.496930 -0.134469
H4    H     H_    0.158972 0.099620 0.582772 0.194987
H5    H     H_    0.147062 0.170153 0.450213 0.221888
C10   C     C_3   0.877253 0.003381 0.495025 -0.074090
C11   C     C_3   0.928372 0.911137 0.588320 -0.488214
C12   C     C_3   0.961492 0.101927 0.502802 -0.330128
H6    H     H_    0.930599 0.170917 0.437359 0.241951
H7    H     H_    0.950018 0.108984 0.572435 0.192817
H8    H     H_    0.128365 0.920987 0.660324 0.133532
H9    H     H_    0.917102 0.915054 0.659578 0.171171
C13   C     C_R   0.457977 0.186955 0.203563 -0.088179
C14   C     C_R   0.519838 0.811556 0.794887 -0.060624
C15   C     C_R   0.401632 0.212277 0.025536 0.358691
C16   C     C_R   0.419185 0.147498 0.128548 -0.148985
C17   C     C_R   0.475656 0.291657 0.175239 -0.176673
C18   C     C_R   0.442791 0.358146 0.073977 0.045490
C19   C     C_R   0.413258 0.318495 0.997608 0.022462
C20   C     C_R   0.445487 0.463972 0.046696 0.055903
C21   C     C_R   0.448699 0.531152 0.943750 0.029789
C22   C     C_R   0.416896 0.489916 0.869115 -0.172237
C23   C     C_R   0.394794 0.385784 0.895624 -0.106623
C24   C     C_R   0.440350 0.505019 0.117367 0.221561
C25   C     C_R   0.465382 0.609875 0.090498 -0.256112
C26   C     C_R   0.487058 0.676027 0.992982 0.103510
C27   C     C_R   0.477959 0.637465 0.918358 0.088821
C28   C     C_R   0.512591 0.781083 0.968123 -0.134732
C29   C     C_R   0.527536 0.848584 0.869320 -0.157482
C30   C     C_R   0.500238 0.706736 0.820850 -0.158213
H10   H     H_    0.365479 0.359098 0.834868 0.201960
H11   H     H_    0.503565 0.680693 0.763583 0.149235
H12   H     H_    0.542518 0.929437 0.850832 0.184595
H13   H     H_    0.463408 0.640006 0.145515 0.156625
H14   H     H_    0.407490 0.066268 0.149710 0.190465
H15   H     H_    0.518747 0.320737 0.233140 0.198499
H16   H     H_    0.402194 0.536404 0.788827 0.156803
H17   H     H_    0.518113 0.811112 0.024643 0.164308
N1    N     N_R   0.585360 0.204570 0.560800 -0.210620
N2    N     N_R   0.414550 0.795430 0.439160 -0.200367
C31   C     C_R   0.732713 0.287068 0.660731 0.257308
C32   C     C_R   0.690803 0.204449 0.632730 0.020533
C33   C     C_R   0.512966 0.282322 0.516684 0.022709
C34   C     C_R   0.548535 0.368801 0.541674 -0.047249
C35   C     C_R   0.664470 0.372194 0.611061 -0.034697
C36   C     C_R   0.476239 0.453043 0.497116 0.065986
C37   C     C_R   0.528935 0.545192 0.512199 -0.045779
C38   C     C_R   0.655802 0.550297 0.569457 0.277551
C39   C     C_R   0.716368 0.463161 0.622717 -0.147241
C40   C     C_R   0.352661 0.447629 0.437806 -0.206852
C41   C     C_R   0.287647 0.531840 0.385987 -0.182374
C42   C     C_R   0.336840 0.622083 0.399137 0.146881
C43   C     C_R   0.453148 0.628195 0.467409 -0.002890
C44   C     C_R   0.267158 0.705088 0.347846 -0.274706
C45   C     C_R   0.309554 0.792363 0.367532 0.121524
C46   C     C_R   0.483474 0.715582 0.490807 0.090057
H18   H     H_    0.812350 0.470570 0.665588 0.231062
H19   H     H_    0.557663 0.720258 0.552717 0.160433
H20   H     H_    0.255782 0.856398 0.328529 0.155689
H21   H     H_    0.195485 0.525071 0.337717 0.152479
H22   H     H_    0.742309 0.139101 0.668741 0.161653
H23   H     H_    0.431065 0.276474 0.459806 0.133127
H24   H     H_    0.303485 0.378530 0.429874 0.134696
H25   H     H_    0.179424 0.701898 0.294001 0.159055
N3    N     N_R   0.374538 0.168868 0.951093 0.122358
O9    O     O_R   0.294099 0.085476 0.964226 -0.320896
O10   O     O_R   0.448048 0.200365 0.882106 -0.342101
N4    N     N_R   0.084231 0.085420 0.305109 0.149776
O11   O     O_R   0.137397 0.067239 0.245153 -0.351964
O12   O     O_R   0.067063 0.178217 0.281541 -0.338585
N5    N     N_2   0.395194 0.443261 0.211092 -0.475263
H26   H     H_    0.429299 0.471521 0.266705 0.259240
C47   C     C_3   0.256988 0.410264 0.201166 -0.569572
H27   H     H_    0.232040 0.355234 0.276033 0.229441
H28   H     H_    0.225737 0.371685 0.147531 0.272704
H29   H     H_    0.203778 0.476357 0.173788 0.222193
N6    N     N_R   0.843148 0.282782 0.739384 0.119685
O13   O     O_R   0.938605 0.236912 0.747928 -0.337512
O14   O     O_R   0.838870 0.308921 0.812283 -0.292266
N7    N     N_R   0.825041 0.064017 0.301192 0.167467
O15   O     O_R   0.804887 0.046007 0.219493 -0.277054
O16   O     O_R   0.780532 0.141473 0.296739 -0.372562
N8    N     N_R   0.733446 0.644434 0.564745 0.094302
O17   O     O_R   0.750680 0.716480 0.476831 -0.362405
O18   O     O_R   0.805748 0.650998 0.646736 -0.348080
N9    N     N_R   0.095693 0.811727 0.598816 0.157035
O19   O     O_R   0.031765 0.772528 0.534270 -0.306242
O20   O     O_R   0.176455 0.759900 0.675122 -0.339710

loop_
_geom_bond_atom_site_label_1
_geom_bond_atom_site_label_2
_geom_bond_distance
_ccdc_geom_bond_type
N1    C33   1.360799 A    
N4    O11   1.301250 A    
C34   C36   1.433995 A    
N2    C46   1.363263 A    
C12   H7    1.113809 S    
C44   C45   1.391139 A    
Cu1   Cu2   2.697274 S    
C7    H8    1.115821 S    
C26   C27   1.415415 A    
C21   C27   1.421606 A    
N9    O20   1.301312 A    
C27   C30   1.403570 A    
C18   C19   1.421550 A    
C13   C17   1.392769 A    
C17   C18   1.402287 A    
N3    O10   1.301396 A    
C19   C23   1.398509 A    
C40   C41   1.387375 A    
C43   C46   1.420251 A    
O4    C2    1.295367 A    
O7    C4    1.300119 A    
C32   H22   1.082006 S    
C14   C30   1.398966 A    
C5    H1    1.110737 S    
C2    C9    1.479937 S    
C5    C6    1.560676 S    
C15   C16   1.399896 A    
C22   C23   1.387621 A    
H3    C11   1.108112 S    
O5    C3    1.299848 A    
C40   H24   1.076488 S    
Cu2   N1    2.026026 S    
C25   H13   1.084885 S    
C5    C9    1.570964 S    
C37   C43   1.443331 A    
N7    O15   1.301813 A    
C30   H11   1.077242 S    
N6    O14   1.301464 A    
C41   C42   1.392062 A    
N1    C32   1.353607 A    
C37   C38   1.425487 A    
C8    C12   1.532311 S    
C11   H9    1.113892 S    
C15   C19   1.418946 A    
C8    C9    1.557476 S    
C16   H14   1.083366 S    
N8    O17   1.301337 A    
C15   N3    1.436900 S    
O3    Cu1   1.966134 S    
Cu1   N2    2.026378 S    
C26   C28   1.404388 A    
C24   N5    1.423194 S    
C38   C39   1.395506 A    
C13   C16   1.399307 A    
N3    O9    1.301262 A    
O3    C2    1.295638 A    
C20   C21   1.418892 A    
C42   C44   1.402736 A    
C20   C24   1.427368 A    
C10   C11   1.552426 S    
C47   H29   1.111309 S    
C31   C32   1.395463 A    
O1    C1    1.300077 A    
Cu1   O7    1.970142 S    
C24   C25   1.397025 A    
C22   H16   1.078328 S    
C3    C14   1.468291 S    
C33   C34   1.420442 A    
C28   H17   1.083895 S    
C6    N7    1.473863 S    
N5    C47   1.447147 S    
C28   C29   1.393594 A    
Cu2   O8    1.966135 S    
N6    O13   1.301486 A    
C47   H28   1.110817 S    
C6    H2    1.113941 S    
N8    O18   1.301358 A    
C46   H19   1.074718 S    
N2    C45   1.355627 A    
C23   H10   1.081059 S    
C31   N6    1.438327 S    
C21   C22   1.413478 A    
N7    O16   1.301376 A    
C33   H23   1.076981 S    
C7    C9    1.567845 S    
C8    H4    1.114119 S    
C10   C12   1.562455 S    
C35   C39   1.396273 A    
C25   C26   1.391231 A    
C5    N4    1.474164 S    
C7    N9    1.470665 S    
Cu1   O5    1.934748 S    
C41   H21   1.084227 S    
O1    Cu1   1.945385 S    
O2    Cu2   1.934748 S    
O8    C4    1.291745 A    
O6    C3    1.302824 A    
O4    Cu2   1.970142 S    
C39   H18   1.081937 S    
N9    O19   1.300778 A    
C31   C35   1.416853 A    
C6    C10   1.568236 S    
N4    O12   1.301161 A    
O2    C1    1.303792 A    
C42   C43   1.416821 A    
C18   C20   1.426642 A    
C17   H15   1.078391 S    
N5    H26   1.030110 S    
C7    C11   1.548440 S    
C36   C40   1.410269 A    
C47   H27   1.108578 S    
C4    C10   1.481848 S    
C1    C13   1.470768 S    
C34   C35   1.416305 A    
C29   H12   1.083040 S    
Cu2   O6    1.945385 S    
C36   C37   1.436418 A    
C45   H20   1.081951 S    
C8    H5    1.109662 S    
C12   H6    1.109466 S    
C14   C29   1.399808 A    
C44   H25   1.083787 S    
C38   N8    1.431295 S    
