data_mof_unit_37869.cif
_audit_creation_date              2012-12-11T14:58:41-0500
_audit_creation_method            fapswitch 2.2
_symmetry_space_group_name_H-M    P1
_symmetry_Int_Tables_number       1
_space_group_crystal_system       triclinic
_cell_length_a                    10.932459
_cell_length_b                    10.897301
_cell_length_c                    18.772713
_cell_angle_alpha                 89.898973
_cell_angle_beta                  90.488435
_cell_angle_gamma                 60.505263
_cell_volume                      1946.5126224

loop_
_atom_site_label
_atom_site_type_symbol
_atom_type_description
_atom_site_fract_x
_atom_site_fract_y
_atom_site_fract_z
_atom_type_partial_charge
C1    C     C_R   0.357330 0.776609 0.398118 0.538817
C2    C     C_R   0.256489 0.457824 0.195565 -0.006681
C3    C     C_R   0.249655 0.457681 0.270938 -0.056629
C4    C     C_R   0.386675 0.356008 0.386738 0.536829
C5    C     C_R   0.891635 0.782003 0.380910 -0.118513
C6    C     C_R   0.939707 0.640171 0.396324 -0.112920
C7    C     C_R   0.051238 0.534761 0.358187 -0.066810
C8    C     C_R   0.123808 0.570649 0.308156 0.034873
C9    C     C_R   0.363716 0.347541 0.309665 -0.007307
C10   C     C_R   0.779333 0.268227 0.286439 -0.137682
C11   C     C_R   0.823053 0.245897 0.216593 -0.157885
C12   C     C_R   0.611109 0.127286 0.164051 0.052556
C13   C     C_R   0.841533 0.347342 0.180149 0.030348
C14   C     C_R   0.812531 0.473228 0.213780 -0.128423
C15   C     C_R   0.773515 0.493442 0.284005 -0.144169
C16   C     C_R   0.715423 0.414621 0.394645 0.566379
C17   C     C_R   0.756700 0.391333 0.320813 0.033892
C18   C     C_R   0.452838 0.829221 0.289655 -0.138594
C19   C     C_R   0.434480 0.866999 0.217656 -0.128844
C20   C     C_R   0.298799 0.938548 0.188505 0.033099
C21   C     C_R   0.183203 0.981076 0.233216 -0.139705
C22   C     C_R   0.201537 0.941708 0.304577 -0.140435
C23   C     C_R   0.364095 0.340075 0.160053 0.024649
C24   C     C_R   0.336726 0.856265 0.331796 0.029237
C25   C     C_R   0.461722 0.266427 0.715753 -0.114199
C26   C     C_R   0.444911 0.268123 0.787829 -0.125994
C27   C     C_R   0.310371 0.333772 0.816014 0.026214
C28   C     C_R   0.345951 0.765126 0.605876 0.565627
C29   C     C_R   0.191955 0.410793 0.771943 -0.134534
C30   C     C_R   0.209505 0.414333 0.698803 -0.139988
C31   C     C_R   0.344627 0.337977 0.670603 0.033447
C32   C     C_R   0.763431 0.471104 0.730418 -0.136644
C33   C     C_R   0.767503 0.461635 0.803332 -0.142962
C34   C     C_R   0.478486 0.243245 0.272587 -0.151408
C35   C     C_R   0.805135 0.332997 0.837116 -0.014162
C36   C     C_R   0.812213 0.219782 0.796535 0.003219
C37   C     C_R   0.806263 0.231584 0.721852 -0.116882
C38   C     C_R   0.786538 0.355397 0.688717 0.000612
C39   C     C_R   0.206555 0.813883 0.717144 0.093816
C40   C     C_R   0.372603 0.351127 0.596995 0.543967
C41   C     C_R   0.202041 0.824036 0.790531 -0.113738
C42   C     C_R   0.307383 0.833784 0.827902 0.000926
C43   C     C_R   0.424179 0.823249 0.792006 -0.141429
C44   C     C_R   0.431383 0.810760 0.718693 -0.164612
C45   C     C_R   0.483490 0.240929 0.198890 -0.034600
C46   C     C_R   0.323171 0.806419 0.680406 0.061504
C47   C     C_R   0.909636 0.316217 0.111633 0.531424
C48   C     C_R   0.330342 0.296435 0.091348 0.552265
C49   C     C_R   0.271879 0.964071 0.111848 0.565468
C50   C     C_R   0.876139 0.311361 0.906428 0.530935
C51   C     C_R   0.295688 0.291155 0.886487 0.550626
C52   C     C_R   0.757861 0.379645 0.612443 0.554932
C53   C     C_R   0.277202 0.891057 0.899056 0.567485
C54   C     C_R   0.829759 0.906787 0.088926 -0.095839
C55   C     C_R   0.775446 0.045743 0.065440 -0.094195
C56   C     C_R   0.077524 0.714326 0.295251 -0.079754
C57   C     C_R   0.666770 0.155893 0.102708 -0.065059
C58   C     C_2   0.817775 0.093827 0.830576 0.204696
C59   C     C_2   0.149305 0.578395 0.153235 0.243242
C60   C     C_R   0.959273 0.818976 0.329608 -0.108263
C61   C     C_R   0.670311 0.987466 0.188398 -0.106694
C62   C     C_R   0.776697 0.878134 0.150285 -0.120404
Cr1   Cr    Cr6+3 0.601770 0.606860 0.505860 0.993158
Cr2   Cr    Cr6+3 0.291380 0.601660 0.495070 1.043209
Cr3   Cr    Cr6+3 0.606880 0.291510 0.499120 1.009801
Cr4   Cr    Cr6+3 0.062440 0.063090 0.008210 1.009944
Cr5   Cr    Cr6+3 0.062880 0.375170 0.998920 1.037144
Cr6   Cr    Cr6+3 0.374700 0.061720 0.992470 1.028658
H1    H     H_    0.568924 0.163379 0.301411 0.132855
H2    H     H_    0.525565 0.832971 0.184269 0.132543
H3    H     H_    0.078805 0.037173 0.211466 0.125143
H4    H     H_    0.814561 0.771250 0.167872 0.092233
H5    H     H_    0.110522 0.970059 0.337200 0.128091
H6    H     H_    0.567581 0.210395 0.695605 0.155787
H7    H     H_    0.536702 0.209510 0.821376 0.145920
H8    H     H_    0.086660 0.461188 0.793313 0.140715
H9    H     H_    0.118807 0.473771 0.664461 0.125721
H10   H     H_    0.740570 0.571093 0.706952 0.140662
H11   H     H_    0.753757 0.552742 0.833017 0.141174
H12   H     H_    0.802741 0.863210 0.409116 0.110119
H13   H     H_    0.812768 0.146532 0.689470 0.151731
H14   H     H_    0.921309 0.928881 0.317296 0.094766
H15   H     H_    0.111374 0.832141 0.817692 0.179362
H16   H     H_    0.506876 0.831274 0.820146 0.144671
H17   H     H_    0.522366 0.803174 0.692110 0.134300
H18   H     H_    0.911828 0.821451 0.059194 0.148644
H19   H     H_    0.816228 0.067934 0.017868 0.124744
H20   H     H_    0.623849 0.262964 0.083113 0.112055
H21   H     H_    0.132330 0.745376 0.258050 0.133736
H22   H     H_    0.630419 0.961809 0.235293 0.098758
H23   H     H_    0.890440 0.612329 0.438025 0.150661
H24   H     H_    0.800455 0.091687 0.887111 0.125139
H25   H     H_    0.000806 0.906539 0.689571 0.261250
H26   H     H_    0.078932 0.729908 0.702360 0.238381
H27   H     H_    0.040628 0.628333 0.168295 0.084164
H28   H     H_    0.084490 0.425211 0.369552 0.114959
H29   H     H_    0.769199 0.186742 0.314187 0.123042
H30   H     H_    0.849743 0.146022 0.192788 0.133531
H31   H     H_    0.827958 0.552744 0.187383 0.123329
H32   H     H_    0.762283 0.586389 0.310076 0.125650
H33   H     H_    0.557559 0.771064 0.311242 0.115677
N1    N     N_3   0.092112 0.811047 0.680679 -0.581380
O1    O     O_R   0.748800 0.497470 0.428000 -0.542845
O2    O     O_R   0.417600 0.174890 0.067840 -0.523298
O3    O     O_R   0.375320 0.946260 0.070860 -0.497708
O4    O     O_R   0.476420 0.724060 0.429470 -0.524290
O5    O     O_R   0.160600 0.919630 0.926660 -0.510565
O6    O     O_R   0.933060 0.190520 0.936020 -0.530222
O7    O     O_R   0.908880 0.403460 0.925020 -0.513864
O8    O     O_R   0.179600 0.361450 0.918490 -0.494710
O9    O     O_R   0.391510 0.170860 0.907530 -0.521722
O10   O     O_R   0.351130 0.942530 0.922260 -0.497137
O11   O     O_3   0.166667 0.166667 0.999870 -0.274076
O12   O     O_R   0.300070 0.471040 0.567100 -0.495051
O13   O     O_R   0.264580 0.744340 0.416750 -0.503823
O14   O     O_R   0.309380 0.472470 0.418200 -0.487723
O15   O     O_R   0.501710 0.260430 0.414300 -0.537704
O16   O     O_R   0.728090 0.305600 0.428960 -0.504278
O17   O     O_R   0.738760 0.495930 0.588610 -0.524219
O18   O     O_R   0.467110 0.722640 0.578360 -0.520162
O19   O     O_R   0.254530 0.742800 0.577360 -0.468664
O20   O     O_2   0.833901 0.993177 0.795191 -0.572280
O21   O     O_2   0.183054 0.622530 0.101446 -0.494119
O22   O     O_R   0.491670 0.258900 0.574910 -0.525178
O23   O     O_R   0.718780 0.304180 0.577850 -0.500961
O24   O     O_3   0.500010 0.500010 0.500020 -0.271996
O25   O     O_R   0.186690 0.923650 0.086970 -0.476496
O26   O     O_R   0.957250 0.194250 0.084630 -0.539884
O27   O     O_R   0.934970 0.407490 0.085330 -0.525905
O28   O     O_R   0.203780 0.365190 0.067090 -0.476291

loop_
_geom_bond_atom_site_label_1
_geom_bond_atom_site_label_2
_ccdc_geom_bond_type
C25   C31   A    
C23   C45   A    
Cr4   O11   S    
C27   C29   A    
C41   C42   A    
C35   C36   A    
Cr4   O5    S    
C37   H13   S    
C8    C56   A    
C47   O26   A    
C39   C41   A    
C29   H8    S    
Cr4   O25   S    
C7    H28   S    
C28   C46   S    
C26   C27   A    
C29   C30   A    
C47   O27   A    
C11   H30   S    
Cr2   O14   S    
C36   C37   A    
C37   C38   A    
C18   C19   A    
C36   C58   S    
C42   C53   S    
C30   C31   A    
C38   C52   S    
C10   C17   A    
Cr2   O19   S    
C48   O2    A    
C31   C40   S    
C25   H6    S    
Cr6   O10   S    
Cr3   O22   S    
Cr5   O8    S    
C30   H9    S    
C60   H14   S    
Cr5   O7    S    
C40   O12   A    
C19   C20   A    
C27   C51   S    
C16   C17   S    
Cr3   O16   S    
C32   C38   A    
C15   H32   S    
Cr6   O11   S    
Cr2   O13   S    
C13   C14   A    
C50   O6    A    
C43   H16   S    
C48   O28   A    
Cr5   O27   S    
C59   H27   S    
C49   O25   A    
C44   C46   A    
C59   O21   D    
C40   O22   A    
C58   O20   D    
Cr2   O12   S    
C14   H31   S    
C12   C61   A    
Cr1   O1    S    
C3    C8    S    
C28   O18   A    
C13   C47   S    
C2    C59   S    
C33   H11   S    
C49   O3    A    
C54   C62   A    
C25   C26   A    
C50   O7    A    
C56   C60   A    
Cr1   O4    S    
Cr6   O9    S    
Cr3   O23   S    
C10   H29   S    
C43   C44   A    
C20   C49   S    
C3    C9    A    
C16   O16   A    
Cr1   O17   S    
C53   O5    A    
C16   O1    A    
C35   C50   S    
C26   H7    S    
C62   H4    S    
C34   C45   A    
C5    H12   S    
C34   H1    S    
C39   C46   A    
C12   C57   A    
C53   O10   A    
C56   H21   S    
C21   H3    S    
C51   O8    A    
Cr2   O24   S    
C55   C57   A    
C9    C34   A    
C18   C24   A    
C4    O15   A    
Cr5   O28   S    
C42   C43   A    
C44   H17   S    
C61   H22   S    
C39   N1    S    
C54   H18   S    
C15   C17   A    
C54   C55   A    
C51   O9    A    
C23   C48   S    
C5    C60   A    
C28   O19   A    
C4    O14   A    
Cr6   O2    S    
Cr4   O6    S    
C12   C45   S    
H25   N1    S    
C52   O23   A    
C6    C7    A    
C1    O4    A    
C57   H20   S    
C32   C33   A    
C2    C3    A    
Cr5   O11   S    
Cr3   O24   S    
Cr1   O18   S    
C11   C13   A    
C5    C6    A    
C33   C35   A    
Cr4   O26   S    
C22   C24   A    
C55   H19   S    
C61   C62   A    
Cr1   O24   S    
C7    C8    A    
C10   C11   A    
C32   H10   S    
C52   O17   A    
C20   C21   A    
H26   N1    S    
C1    C24   S    
Cr6   O3    S    
C2    C23   A    
Cr3   O15   S    
C14   C15   A    
C19   H2    S    
C1    O13   A    
C22   H5    S    
C4    C9    S    
C21   C22   A    
C58   H24   S    
C18   H33   S    
C6    H23   S    
C41   H15   S    
