data_mof_unit_14034.cif
_audit_creation_date              2012-12-10T16:48:51-0500
_audit_creation_method            fapswitch 2.2
_symmetry_space_group_name_H-M    P1
_symmetry_Int_Tables_number       1
_space_group_crystal_system       triclinic
_cell_length_a                    17.193922
_cell_length_b                    8.687708
_cell_length_c                    7.506476
_cell_angle_alpha                 103.390016
_cell_angle_beta                  90.074478
_cell_angle_gamma                 94.216358
_cell_volume                      1087.65857725

loop_
_atom_site_label
_atom_site_type_symbol
_atom_type_description
_atom_site_fract_x
_atom_site_fract_y
_atom_site_fract_z
_atom_type_partial_charge
Br1   Br    Br    0.915882 0.754334 0.800318 -0.460910
Br2   Br    Br    0.084175 0.245519 0.199507 -0.460940
Br3   Br    Br    0.399343 0.307712 0.920382 -0.401386
Br4   Br    Br    0.600663 0.692273 0.079614 -0.401329
C1    C     C_R   0.497507 0.199772 0.453332 0.872529
C2    C     C_R   0.778543 0.603081 0.603237 -0.217867
C3    C     C_R   0.140602 0.383978 0.402967 0.290981
C4    C     C_R   0.859417 0.615844 0.596939 0.291013
C5    C     C_R   0.103384 0.468233 0.557998 0.025255
C6    C     C_R   0.896610 0.531456 0.441950 0.025202
C7    C     C_R   0.147365 0.558032 0.707935 -0.101867
C8    C     C_R   0.852609 0.441619 0.292070 -0.101915
C9    C     C_R   0.228512 0.571331 0.702598 0.147059
C10   C     C_R   0.771462 0.428429 0.297419 0.147019
C11   C     C_2   0.018846 0.473241 0.563347 -0.107759
C12   C     C_R   0.502494 0.800227 0.546667 0.872552
C13   C     C_2   0.981145 0.526398 0.436576 -0.107785
C14   C     C_2   0.495962 0.031342 0.427804 -0.326356
C15   C     C_2   0.504039 0.968658 0.572195 -0.326347
C16   C     C_R   0.351065 0.501319 0.526503 0.800801
C17   C     C_R   0.648934 0.498665 0.473494 0.800786
C18   C     C_R   0.266157 0.491203 0.543854 -0.119825
C19   C     C_R   0.733840 0.508698 0.456121 -0.119793
C20   C     C_R   0.221475 0.396849 0.396681 -0.217871
Cu1   Cu    Cu3+1 0.508700 0.517250 0.683000 1.062658
Cu2   Cu    Cu3+1 0.491300 0.482750 0.317000 1.062649
H1    H     H_    0.249552 0.331495 0.276396 0.207095
H2    H     H_    0.692261 0.245071 0.190526 0.234063
H3    H     H_    0.303087 0.603386 0.919998 0.271470
H4    H     H_    0.307662 0.754749 0.809614 0.234079
H5    H     H_    0.750483 0.668541 0.723487 0.207062
H6    H     H_    0.011855 0.554677 0.320346 0.187547
H7    H     H_    0.988134 0.444984 0.679588 0.187519
H8    H     H_    0.118343 0.622814 0.827194 0.193295
H9    H     H_    0.881614 0.376732 0.172841 0.193311
H10   H     H_    0.488019 0.958678 0.289230 0.203620
H11   H     H_    0.511982 0.041322 0.710769 0.203622
H12   H     H_    0.696887 0.396353 0.080015 0.271447
N1    N     N_2   0.478180 0.456750 0.041980 0.051472
N2    N     N_2   0.521820 0.543250 0.958020 0.051485
N3    N     N_3   0.729639 0.327192 0.143900 -0.551929
N4    N     N_3   0.270310 0.672546 0.856171 -0.551914
O1    O     O_R   0.505650 0.286040 0.618880 -0.554114
O2    O     O_R   0.494350 0.713960 0.381120 -0.554116
O3    O     O_R   0.490960 0.256910 0.309800 -0.569752
O4    O     O_R   0.509040 0.743090 0.690200 -0.569745
O5    O     O_R   0.394600 0.516230 0.672450 -0.570275
O6    O     O_R   0.605400 0.483770 0.327550 -0.570261
O7    O     O_R   0.379910 0.487100 0.363380 -0.565775
O8    O     O_R   0.620090 0.512900 0.636620 -0.565757

loop_
_geom_bond_atom_site_label_1
_geom_bond_atom_site_label_2
_ccdc_geom_bond_type
C10   C19   A    
C16   O7    A    
H3    N4    S    
Br1   C4    S    
C7    C9    A    
Cu1   O5    S    
C9    N4    S    
Br2   C3    S    
C20   H1    S    
Cu2   O6    S    
C17   O6    A    
Cu1   O1    S    
C2    H5    S    
C5    C11   S    
Br3   N1    S    
C8    H9    S    
C5    C7    A    
C14   H10   S    
C6    C8    A    
C10   N3    S    
C2    C19   A    
C17   O8    A    
C8    C10   A    
C9    C18   A    
C17   C19   S    
Cu1   N2    S    
C12   C15   S    
C18   C20   A    
Cu2   N1    S    
C16   O5    A    
C6    C13   S    
Cu2   O2    S    
C3    C20   A    
C3    C5    A    
H2    N3    S    
H12   N3    S    
C4    C6    A    
C14   C15   D    
Cu2   O7    S    
C12   O4    A    
N1    N2    D    
C11   C13   D    
C13   H6    S    
C12   O2    A    
Cu1   O8    S    
C1    O1    A    
C2    C4    A    
C1    C14   S    
C15   H11   S    
Cu2   O3    S    
Cu1   Cu2   S    
C1    O3    A    
Cu1   O4    S    
C11   H7    S    
C7    H8    S    
H4    N4    S    
Br4   N2    S    
C16   C18   S    
