data_mof_unit_38989.cif
_audit_creation_date              2012-12-10T17:05:18-0500
_audit_creation_method            fapswitch 2.2
_symmetry_space_group_name_H-M    P1
_symmetry_Int_Tables_number       1
_space_group_crystal_system       triclinic
_cell_length_a                    10.028687
_cell_length_b                    10.70872
_cell_length_c                    15.470266
_cell_angle_alpha                 89.748578
_cell_angle_beta                  67.319806
_cell_angle_gamma                 88.793058
_cell_volume                      1532.59207429

loop_
_atom_site_label
_atom_site_type_symbol
_atom_type_description
_atom_site_fract_x
_atom_site_fract_y
_atom_site_fract_z
_atom_type_partial_charge
C1    C     C_R   0.494244 0.737241 0.507140 0.888387
C2    C     C_R   0.708859 0.379156 0.042341 0.153715
C3    C     C_R   0.576582 0.445352 0.091655 0.009942
C4    C     C_R   0.408718 0.499974 0.676543 0.864736
C5    C     C_R   0.807386 0.358181 0.087344 0.112713
C6    C     C_R   0.774222 0.404975 0.177964 -0.288955
C7    C     C_R   0.555471 0.500984 0.177407 -0.243830
C8    C     C_2   0.577668 0.065454 0.543873 0.150194
C9    C     C_2   0.509175 0.130042 0.498167 -0.301144
C10   C     C_2   0.586165 0.930919 0.534493 -0.224152
C11   C     C_2   0.473551 0.866710 0.533717 -0.079114
C12   C     C_R   0.403285 0.456154 0.918071 0.110544
C13   C     C_2   0.107148 0.422893 0.449443 0.158089
C14   C     C_2   0.953117 0.417468 0.455535 -0.209387
C15   C     C_R   0.501484 0.262500 0.500502 0.939694
C16   C     C_R   0.590805 0.497942 0.323794 0.879509
C17   C     C_R   0.349425 0.495148 0.779326 -0.111390
C18   C     C_R   0.647165 0.474648 0.223137 -0.077505
C19   C     C_R   0.165507 0.537786 0.933383 -0.181839
C20   C     C_R   0.207089 0.535031 0.836407 0.103119
C21   C     C_R   0.443330 0.453284 0.821025 -0.284167
C22   C     C_R   0.263308 0.502580 0.974171 0.113650
C23   C     C_R   0.502659 0.423138 0.959956 0.061905
C24   C     C_R   0.468105 0.455868 0.054434 0.081349
C25   C     C_R   0.324590 0.495154 0.109824 -0.216355
C26   C     C_R   0.223474 0.516155 0.070283 -0.256026
C27   C     C_R   0.634929 0.359146 0.910733 -0.312004
C28   C     C_R   0.735789 0.335031 0.951107 0.095394
H1    H     H_    0.690316 0.886051 0.521650 0.150923
H2    H     H_    0.264077 0.869842 0.624545 0.186017
H3    H     H_    0.214097 0.352759 0.319764 0.157948
H4    H     H_    0.176058 0.247118 0.406836 0.160813
H5    H     H_    0.071797 0.553920 0.548232 0.124961
H6    H     H_    0.926442 0.341863 0.418939 0.161559
H7    H     H_    0.464387 0.563240 0.212031 0.154888
H8    H     H_    0.844598 0.381792 0.214368 0.155529
H9    H     H_    0.919729 0.317090 0.835255 0.184978
H10   H     H_    0.839103 0.180900 0.879335 0.184852
H11   H     H_    0.057656 0.571476 0.976824 0.155203
H12   H     H_    0.879247 0.574915 0.528508 0.158952
H13   H     H_    0.149677 0.652272 0.752682 0.186458
H14   H     H_    0.082369 0.505425 0.762198 0.202936
H15   H     H_    0.551462 0.425402 0.775671 0.170577
H16   H     H_    0.286221 0.507171 0.184767 0.145293
H17   H     H_    0.661002 0.321368 0.841473 0.149141
H18   H     H_    0.115182 0.547595 0.114681 0.150594
H19   H     H_    0.023755 0.333395 0.044133 0.192790
H20   H     H_    0.927321 0.204592 0.087860 0.181445
H21   H     H_    0.602810 0.090159 0.665990 0.181578
H22   H     H_    0.756548 0.100110 0.569379 0.171460
H23   H     H_    0.460502 0.084628 0.455221 0.134193
H24   H     H_    0.289851 0.912440 0.513989 0.184673
N1    N     N_2   0.148330 0.498670 0.499030 -0.185596
N2    N     N_2   0.852680 0.498640 0.499000 -0.191441
N3    N     N_3   0.935649 0.282369 0.045124 -0.429773
N4    N     N_3   0.646847 0.125495 0.597893 -0.428665
N5    N     N_3   0.329937 0.921269 0.566801 -0.448535
N6    N     N_3   0.211796 0.337821 0.387123 -0.378638
N7    N     N_3   0.866635 0.267933 0.897217 -0.424512
N8    N     N_3   0.104781 0.578631 0.798626 -0.461373
O1    O     O_R   0.386950 0.680940 0.500010 -0.623709
O2    O     O_R   0.613110 0.680900 0.499990 -0.619473
O3    O     O_R   0.322330 0.500030 0.632270 -0.626916
O4    O     O_R   0.548480 0.499990 0.632240 -0.602493
O5    O     O_R   0.386890 0.319100 0.500010 -0.594234
O6    O     O_R   0.613050 0.319060 0.499990 -0.586859
O7    O     O_R   0.451520 0.500010 0.367760 -0.587680
O8    O     O_R   0.677670 0.499970 0.367730 -0.610625
Zn1   Zn    Zn3+2 0.349000 0.500030 0.500020 0.937535
Zn2   Zn    Zn3+2 0.651000 0.499970 0.499980 0.938151

loop_
_geom_bond_atom_site_label_1
_geom_bond_atom_site_label_2
_ccdc_geom_bond_type
C14   H6    S    
H20   N3    S    
C23   C24   A    
O2    Zn2   S    
C16   O8    A    
H24   N5    S    
O4    Zn2   S    
C20   N8    S    
H21   N4    S    
C16   C18   S    
C4    O4    A    
C3    C7    A    
C19   C20   A    
N2    Zn2   S    
H4    N6    S    
C7    C18   A    
N1    Zn1   S    
C1    O2    A    
C8    N4    S    
C2    C3    A    
C9    C15   S    
C16   O7    A    
H9    N7    S    
C13   C14   S    
C17   C20   A    
C12   C23   A    
C27   H17   S    
C3    C24   A    
O6    Zn2   S    
C19   H11   S    
O5    Zn1   S    
C4    C17   S    
H3    N6    S    
C4    O3    A    
C14   N2    D    
C6    H8    S    
C13   N1    D    
C23   C27   A    
H5    N1    S    
C5    C6    A    
C6    C18   A    
C12   C22   A    
C17   C21   A    
C2    C5    A    
C10   C11   D    
C26   H18   S    
O1    Zn1   S    
H10   N7    S    
C15   O5    A    
H2    N5    S    
C10   H1    S    
C7    H7    S    
C19   C22   A    
C1    O1    A    
C24   C25   A    
C25   H16   S    
H19   N3    S    
C22   C26   A    
C28   N7    S    
H14   N8    S    
C27   C28   A    
O8    Zn2   S    
C9    H23   S    
C2    C28   A    
C13   N6    S    
C25   C26   A    
C21   H15   S    
C15   O6    A    
C11   N5    S    
C12   C21   A    
C5    N3    S    
C8    C10   S    
H22   N4    S    
O3    Zn1   S    
H13   N8    S    
H12   N2    S    
C8    C9    D    
O7    Zn1   S    
C1    C11   S    
