data_mof_unit_54779.cif
_audit_creation_date              2012-12-10T17:19:02-0500
_audit_creation_method            fapswitch 2.2
_symmetry_space_group_name_H-M    P1
_symmetry_Int_Tables_number       1
_space_group_crystal_system       triclinic
_cell_length_a                    10.226251
_cell_length_b                    10.796965
_cell_length_c                    13.463182
_cell_angle_alpha                 93.114816
_cell_angle_beta                  100.272923
_cell_angle_gamma                 95.656383
_cell_volume                      1451.62091757

loop_
_atom_site_label
_atom_site_type_symbol
_atom_type_description
_atom_site_fract_x
_atom_site_fract_y
_atom_site_fract_z
_atom_type_partial_charge
C1    C     C_R   0.054733 0.732744 0.498132 0.918835
C2    C     C_2   0.028236 0.070655 0.539175 -0.157752
C3    C     C_2   0.430364 0.497324 0.521964 0.036990
C4    C     C_2   0.571508 0.473311 0.509558 0.006384
C5    C     C_R   0.094947 0.519267 0.686428 0.876019
C6    C     C_R   0.907027 0.488318 0.313054 0.901853
C7    C     C_R   0.153488 0.558404 0.792372 -0.184132
C8    C     C_R   0.862249 0.495091 0.203519 -0.149335
C9    C     C_R   0.164576 0.679580 0.951696 -0.321671
C10   C     C_R   0.876218 0.454182 0.027131 -0.317803
C11   C     C_R   0.092894 0.634614 0.855585 0.480119
C12   C     C_R   0.948948 0.268169 0.510344 0.942079
C13   C     C_R   0.933361 0.450228 0.130411 0.492831
C14   C     C_R   0.284860 0.534382 0.824370 -0.351585
C15   C     C_R   0.744805 0.550413 0.173541 -0.345690
C16   C     C_R   0.361825 0.590960 0.913873 0.108744
C17   C     C_R   0.689834 0.556758 0.071715 0.086599
C18   C     C_R   0.298639 0.657702 0.981312 0.085705
C19   C     C_R   0.756145 0.505328 0.998161 0.115577
C20   C     C_R   0.498649 0.575463 0.939742 0.076333
C21   C     C_R   0.564102 0.601831 0.041309 0.080239
C22   C     C_3   0.137967 0.390803 0.094012 0.084088
C23   C     C_R   0.499539 0.668733 0.108506 -0.219864
C24   C     C_3   0.123666 0.260312 0.039469 -0.382706
C25   C     C_3   0.207920 0.257103 0.956828 -0.942945
C26   C     C_3   0.963341 0.774860 0.776412 0.142978
C27   C     C_3   0.941314 0.882889 0.847913 -0.380564
C28   C     C_3   0.928700 0.002860 0.793666 -0.953017
C29   C     C_3   0.629815 0.733392 0.474419 0.168953
C30   C     C_3   0.604042 0.867349 0.499105 -0.392444
C31   C     C_3   0.603986 0.943718 0.406987 -0.998009
C32   C     C_3   0.269788 0.291001 0.338522 0.240956
C33   C     C_3   0.334445 0.186033 0.393755 -0.439612
C34   C     C_R   0.571565 0.534026 0.866878 -0.240379
C35   C     C_3   0.269383 0.058609 0.345283 -0.979387
C36   C     C_R   0.369747 0.699055 0.077639 -0.215532
C37   C     C_R   0.699336 0.500981 0.895894 -0.146159
C38   C     C_2   0.091495 0.865846 0.510572 -0.388792
C39   C     C_2   0.924992 0.138179 0.528022 -0.383402
C40   C     C_2   0.004713 0.937841 0.539901 -0.174359
H1    H     H_    0.115731 0.731531 0.002811 0.156136
H2    H     H_    0.326374 0.469096 0.778322 0.178504
H3    H     H_    0.241605 0.411688 0.137179 0.177624
H4    H     H_    0.128745 0.464882 0.040222 0.149930
H5    H     H_    0.155680 0.191793 0.094974 0.216711
H6    H     H_    0.017478 0.230806 0.004966 0.223936
H7    H     H_    0.168688 0.315940 0.895699 0.270147
H8    H     H_    0.202701 0.159829 0.923832 0.268179
H9    H     H_    0.314067 0.291366 0.988380 0.271140
H10   H     H_    0.878644 0.762284 0.711145 0.211140
H11   H     H_    0.055404 0.799211 0.744349 0.105415
H12   H     H_    0.920652 0.412878 0.968014 0.147494
H13   H     H_    0.848629 0.858212 0.878208 0.243465
H14   H     H_    0.026794 0.899779 0.912406 0.214758
H15   H     H_    0.021829 0.030979 0.765102 0.275807
H16   H     H_    0.911900 0.078959 0.847215 0.266926
H17   H     H_    0.842831 0.989587 0.729302 0.260763
H18   H     H_    0.824371 0.097523 0.530286 0.162156
H19   H     H_    0.187454 0.904756 0.496044 0.161882
H20   H     H_    0.584427 0.384296 0.473419 0.121082
H21   H     H_    0.419711 0.555066 0.587895 0.127646
H22   H     H_    0.540260 0.686846 0.421302 0.131499
H23   H     H_    0.548463 0.702005 0.184348 0.141845
H24   H     H_    0.716094 0.733808 0.434896 0.176456
H25   H     H_    0.505739 0.867236 0.523534 0.224915
H26   H     H_    0.682366 0.911305 0.562408 0.219235
H27   H     H_    0.701815 0.945465 0.381800 0.271348
H28   H     H_    0.587229 0.040963 0.427297 0.271949
H29   H     H_    0.523513 0.903272 0.343644 0.272059
H30   H     H_    0.271154 0.272271 0.257256 0.140618
H31   H     H_    0.163660 0.290836 0.345173 0.202661
H32   H     H_    0.442258 0.194557 0.389347 0.226150
H33   H     H_    0.325177 0.194002 0.474717 0.215042
H34   H     H_    0.531907 0.527777 0.786585 0.154006
H35   H     H_    0.161175 0.047469 0.348728 0.275406
H36   H     H_    0.318387 0.984172 0.386080 0.275426
H37   H     H_    0.281422 0.047968 0.264960 0.264610
H38   H     H_    0.129461 0.111644 0.538539 0.192414
H39   H     H_    0.909541 0.898748 0.556122 0.193746
H40   H     H_    0.323449 0.751091 0.130473 0.151542
H41   H     H_    0.751084 0.466203 0.838309 0.176000
H42   H     H_    0.693165 0.582755 0.231357 0.177174
N1    N     N_2   0.322180 0.446120 0.460900 0.053046
N2    N     N_2   0.677820 0.553880 0.539100 0.063749
O1    O     O_R   0.935190 0.693030 0.507870 -0.623510
O2    O     O_3   0.963107 0.662247 0.825865 -0.643443
O3    O     O_3   0.653505 0.671012 0.564696 -0.582258
O4    O     O_3   0.344906 0.407241 0.369141 -0.595317
O5    O     O_R   0.064810 0.306970 0.492130 -0.638697
O6    O     O_R   0.142080 0.658430 0.482770 -0.608437
O7    O     O_R   0.857920 0.341570 0.517230 -0.625958
O8    O     O_R   0.969700 0.527180 0.651960 -0.571538
O9    O     O_R   0.030300 0.472820 0.348040 -0.560959
O10   O     O_R   0.176600 0.492580 0.626860 -0.640896
O11   O     O_R   0.823400 0.507420 0.373140 -0.639230
O12   O     O_3   0.049170 0.393836 0.163667 -0.655370
Zn1   Zn    Zn3+2 0.861850 0.523100 0.516760 0.960748
Zn2   Zn    Zn3+2 0.138150 0.476900 0.483240 0.962986

loop_
_geom_bond_atom_site_label_1
_geom_bond_atom_site_label_2
_ccdc_geom_bond_type
C8    C13   A    
C34   C37   A    
C12   O7    A    
N2    O3    S    
C10   H12   S    
C5    O10   A    
C28   H16   S    
C27   H14   S    
C28   H17   S    
C7    C11   A    
C35   H35   S    
C26   C27   S    
C1    O6    A    
C24   H5    S    
C26   H10   S    
C30   C31   S    
O10   Zn2   S    
C11   O2    S    
C32   O4    S    
C19   C37   A    
C33   H32   S    
C17   C19   A    
C2    C39   D    
C7    C14   A    
C22   H4    S    
N1    Zn2   S    
C15   H42   S    
C25   H7    S    
C26   O2    S    
C14   H2    S    
C20   C34   A    
C23   H23   S    
N1    O4    S    
C29   H24   S    
C37   H41   S    
C28   H15   S    
O8    Zn1   S    
C32   H31   S    
C3    H21   S    
C1    O1    A    
C31   H28   S    
C35   H36   S    
C13   O12   S    
C5    O8    A    
C12   O5    A    
C24   C25   S    
C36   H40   S    
C5    C7    S    
C32   H30   S    
C39   H18   S    
C35   H37   S    
C17   C21   A    
C31   H27   S    
C29   C30   S    
C2    H38   S    
C22   H3    S    
C4    N2    D    
C10   C19   A    
C16   C20   A    
C6    O9    A    
C4    H20   S    
O11   Zn1   S    
C40   H39   S    
O7    Zn1   S    
C9    C11   A    
C25   H8    S    
C30   H26   S    
C1    C38   S    
C34   H34   S    
C33   H33   S    
C23   C36   A    
C8    C15   A    
C21   C23   A    
C3    N1    D    
C14   C16   A    
N2    Zn1   S    
C3    C4    S    
C15   C17   A    
C29   H22   S    
C22   O12   S    
C10   C13   A    
C6    C8    S    
C27   H13   S    
C9    H1    S    
O5    Zn2   S    
C24   H6    S    
C32   C33   S    
C12   C39   S    
C26   H11   S    
C38   C40   D    
C33   C35   S    
C22   C24   S    
C25   H9    S    
C29   O3    S    
C30   H25   S    
O1    Zn1   S    
C38   H19   S    
C2    C40   S    
C9    C18   A    
C31   H29   S    
C20   C21   A    
C16   C18   A    
C6    O11   A    
C27   C28   S    
C18   C36   A    
O9    Zn2   S    
O6    Zn2   S    
