data_mof_unit_41259.cif
_audit_creation_date              2012-12-11T15:48:55-0500
_audit_creation_method            fapswitch 2.2
_symmetry_space_group_name_H-M    P1
_symmetry_Int_Tables_number       1
_space_group_crystal_system       triclinic
_cell_length_a                    10.929441
_cell_length_b                    10.999573
_cell_length_c                    18.786655
_cell_angle_alpha                 90.830062
_cell_angle_beta                  90.249661
_cell_angle_gamma                 60.459093
_cell_volume                      1964.70175916

loop_
_atom_site_label
_atom_site_type_symbol
_atom_type_description
_atom_site_fract_x
_atom_site_fract_y
_atom_site_fract_z
_atom_type_partial_charge
C1    C     C_R   0.243386 0.644064 0.611182 0.582316
C2    C     C_R   0.575128 0.146069 0.710290 -0.175228
C3    C     C_R   0.575030 0.145196 0.783327 -0.177074
C4    C     C_R   0.654156 0.623209 0.600286 0.550420
C5    C     C_3   0.932722 0.107858 0.781749 -0.127760
C6    C     C_3   0.913198 0.153234 0.703936 -0.142473
C7    C     C_R   0.666519 0.177815 0.674107 0.039662
C8    C     C_R   0.184211 0.665858 0.836097 0.012341
C9    C     C_R   0.157563 0.575163 0.794564 0.010687
C10   C     C_R   0.166872 0.572957 0.720863 0.009300
C11   C     C_R   0.224024 0.757810 0.727725 -0.164785
C12   C     C_3   0.660197 0.561250 0.798976 -0.257255
C13   C     C_R   0.219726 0.756379 0.801612 -0.184222
C14   C     C_3   0.230794 0.419708 0.797307 -0.284058
C15   C     C_3   0.237026 0.418177 0.716788 -0.276210
C16   C     C_R   0.628497 0.228855 0.602465 0.566720
C17   C     C_R   0.202039 0.662702 0.686063 0.045018
C18   C     C_R   0.653555 0.662056 0.166323 0.019519
C19   C     C_R   0.750442 0.542244 0.202958 0.031402
C20   C     C_R   0.747660 0.537821 0.275557 0.022725
C21   C     C_R   0.533507 0.757270 0.279534 -0.160494
C22   C     C_R   0.537013 0.764559 0.204678 -0.172133
C23   C     C_3   0.699746 0.675414 0.811694 0.036629
C24   C     C_3   0.908691 0.462584 0.203231 -0.263419
C25   C     C_3   0.903142 0.461044 0.283474 -0.283145
C26   C     C_R   0.646326 0.647142 0.315945 0.020496
C27   C     C_R   0.629985 0.197568 0.167059 0.021040
C28   C     C_R   0.220129 0.649088 0.402260 0.560840
C29   C     C_R   0.508772 0.219587 0.203211 0.023762
C30   C     C_R   0.490893 0.254949 0.274526 0.014934
C31   C     C_R   0.703137 0.270300 0.273469 -0.157510
C32   C     C_R   0.719872 0.237119 0.200718 -0.159567
C33   C     C_3   0.451550 0.122013 0.211298 -0.270063
C34   C     C_3   0.670362 0.651175 0.675432 0.049850
C35   C     C_3   0.433276 0.159358 0.289517 -0.270186
C36   C     C_R   0.592828 0.270837 0.311845 0.016334
C37   C     C_R   0.116996 0.692095 0.188779 0.023484
C38   C     C_R   0.065636 0.811452 0.232416 0.042215
C39   C     C_R   0.079453 0.802096 0.304800 0.025514
C40   C     C_R   0.640385 0.620984 0.391288 0.543269
C41   C     C_R   0.173996 0.552719 0.294021 -0.172933
C42   C     C_R   0.162787 0.562523 0.220200 -0.181555
C43   C     C_3   0.091029 0.932754 0.229415 -0.267604
C44   C     C_3   0.103567 0.925021 0.309563 -0.270540
C45   C     C_3   0.822557 0.620042 0.690675 -0.120062
C46   C     C_R   0.146441 0.670855 0.335982 0.021569
C47   C     C_R   0.703082 0.097832 0.895180 0.546437
C48   C     C_R   0.723741 0.688408 0.888063 0.543142
C49   C     C_R   0.119712 0.705341 0.906384 0.539337
C50   C     C_R   0.672660 0.111598 0.102675 0.546860
C51   C     C_R   0.695375 0.689461 0.097167 0.543596
C52   C     C_R   0.579500 0.294564 0.388397 0.567269
C53   C     C_R   0.088657 0.712871 0.113933 0.543994
C54   C     C_3   0.580867 0.815125 0.781150 -0.235302
C55   C     C_3   0.564513 0.801974 0.700520 -0.241778
C56   C     C_3   0.639885 0.549624 0.718908 -0.234797
C57   C     C_3   0.837933 0.637988 0.770996 -0.217045
C58   C     C_1   0.990068 0.177762 0.826970 0.175881
C59   C     C_1   0.971894 0.043939 0.648914 0.197633
C60   C     C_1   0.858513 0.710265 0.648420 0.172381
C61   C     C_R   0.684193 0.147735 0.822682 0.013848
C62   C     C_R   0.776200 0.178194 0.786392 -0.020466
C63   C     C_R   0.760090 0.204312 0.714132 -0.024983
Cr1   Cr    Cr6+3 0.392960 0.397920 0.502240 1.008462
Cr2   Cr    Cr6+3 0.398340 0.708480 0.501250 1.018727
Cr3   Cr    Cr6+3 0.708670 0.393570 0.496460 1.018536
Cr4   Cr    Cr6+3 0.937650 0.938540 0.007610 1.028081
Cr5   Cr    Cr6+3 0.625330 0.937370 0.994520 1.011329
Cr6   Cr    Cr6+3 0.937940 0.625230 0.001190 1.026332
H1    H     H_    0.609338 0.897126 0.790812 0.146886
H2    H     H_    0.235627 0.832492 0.831440 0.139094
H3    H     H_    0.162561 0.380139 0.818387 0.169413
H4    H     H_    0.334809 0.377049 0.823536 0.146055
H5    H     H_    0.344305 0.374303 0.695065 0.173442
H6    H     H_    0.169947 0.380637 0.690849 0.132059
H7    H     H_    0.446040 0.839365 0.308704 0.124106
H8    H     H_    0.455007 0.854387 0.177860 0.118886
H9    H     H_    0.955003 0.525314 0.183876 0.180348
H10   H     H_    0.952078 0.357001 0.178318 0.126168
H11   H     H_    0.945352 0.354496 0.305174 0.132062
H12   H     H_    0.713771 0.442863 0.701076 0.140844
H13   H     H_    0.454983 0.827257 0.689208 0.131348
H14   H     H_    0.941735 0.526240 0.310265 0.152235
H15   H     H_    0.782156 0.284374 0.300766 0.139023
H16   H     H_    0.533118 0.011981 0.200872 0.161100
H17   H     H_    0.350425 0.158272 0.182676 0.133079
H18   H     H_    0.321349 0.215034 0.306405 0.125301
H19   H     H_    0.217816 0.450781 0.317344 0.140956
H20   H     H_    0.194067 0.469233 0.188003 0.126766
H21   H     H_    0.997898 0.028653 0.210786 0.144574
H22   H     H_    0.582504 0.879131 0.671554 0.131984
H23   H     H_    0.924658 0.537708 0.790938 0.144971
H24   H     H_    0.191329 0.906577 0.202097 0.138511
H25   H     H_    0.210118 0.899947 0.327435 0.158824
H26   H     H_    0.015715 0.016223 0.337158 0.145382
H27   H     H_    0.744344 0.459397 0.819111 0.152141
H28   H     H_    0.561308 0.587573 0.827945 0.121929
H29   H     H_    0.494116 0.130153 0.807884 0.145493
H30   H     H_    0.809957 0.229262 0.172884 0.120121
H31   H     H_    0.503722 0.069950 0.323628 0.161753
H32   H     H_    0.866833 0.720566 0.781912 0.128927
H33   H     H_    0.531465 0.568656 0.708582 0.125898
H34   H     H_    0.898425 0.509894 0.675340 0.116471
H35   H     H_    0.495972 0.131473 0.682650 0.132758
H36   H     H_    0.981744 0.993908 0.790117 0.141650
H37   H     H_    0.934719 0.240048 0.692841 0.106527
H38   H     H_    0.249415 0.831090 0.703552 0.138103
H39   H     H_    0.479070 0.846893 0.808515 0.126216
N1    N     N_1   0.035119 0.232628 0.862821 -0.326948
N2    N     N_1   0.012741 0.962699 0.602975 -0.234919
N3    N     N_1   0.885343 0.781261 0.614790 -0.272484
O1    O     O_R   0.507380 0.255700 0.581440 -0.535803
O2    O     O_R   0.837170 0.593410 0.915250 -0.505606
O3    O     O_R   0.065200 0.635530 0.931570 -0.497403
O4    O     O_R   0.280320 0.527350 0.578930 -0.508226
O5    O     O_R   0.068260 0.828890 0.091840 -0.520254
O6    O     O_R   0.798870 0.057410 0.079340 -0.506644
O7    O     O_R   0.584930 0.080350 0.076780 -0.519515
O8    O     O_R   0.626960 0.809650 0.067060 -0.505842
O9    O     O_R   0.816040 0.596610 0.076510 -0.522046
O10   O     O_R   0.045610 0.638500 0.081060 -0.514990
O11   O     O_3   0.833640 0.833710 0.001100 -0.257486
O12   O     O_R   0.524480 0.695810 0.424040 -0.509171
O13   O     O_R   0.260510 0.739590 0.584590 -0.497997
O14   O     O_R   0.532300 0.695080 0.573820 -0.511192
O15   O     O_R   0.744840 0.503500 0.576370 -0.529968
O16   O     O_R   0.699120 0.276560 0.571960 -0.491960
O17   O     O_R   0.498940 0.256500 0.419860 -0.516767
O18   O     O_R   0.272500 0.528080 0.429150 -0.524328
O19   O     O_R   0.252060 0.740380 0.423010 -0.515499
O20   O     O_R   0.736390 0.504290 0.414790 -0.525343
O21   O     O_R   0.691300 0.277290 0.422170 -0.503280
O22   O     O_3   0.499990 0.499990 0.499980 -0.284128
O23   O     O_R   0.089400 0.825690 0.930570 -0.522151
O24   O     O_R   0.818460 0.054440 0.929850 -0.491356
O25   O     O_R   0.606060 0.077150 0.915510 -0.536368
O26   O     O_R   0.646550 0.806680 0.917570 -0.512976

loop_
_geom_bond_atom_site_label_1
_geom_bond_atom_site_label_2
_ccdc_geom_bond_type
C15   H6    S    
C49   O23   A    
C45   C60   S    
C34   C56   S    
C8    C13   A    
C57   H23   S    
C47   O25   A    
C27   C29   A    
C25   H11   S    
C41   C42   A    
C2    C7    A    
C43   C44   S    
Cr2   O19   S    
C52   O17   A    
C56   H12   S    
C5    H36   S    
C12   C23   S    
Cr6   O2    S    
C37   C38   A    
C4    O14   A    
C18   C19   A    
C10   C15   S    
C31   C36   A    
Cr5   O8    S    
C5    C6    S    
C33   C35   S    
Cr1   O1    S    
C20   C25   S    
C10   C17   A    
C58   N1    T    
Cr4   O5    S    
C29   C33   S    
C59   N2    T    
Cr3   O16   S    
C28   O18   A    
Cr2   O13   S    
C37   C42   A    
C41   H19   S    
C33   H16   S    
C55   H22   S    
C45   H34   S    
Cr5   O7    S    
Cr1   O22   S    
C35   H18   S    
C19   C20   A    
C8    C9    A    
Cr1   O17   S    
C54   H1    S    
C51   O8    A    
C41   C46   A    
C2    H35   S    
C29   C30   A    
C48   O26   A    
C9    C10   A    
C36   C52   S    
C27   C50   S    
C37   C53   S    
C49   O3    A    
C34   C55   S    
Cr1   O4    S    
C50   O7    A    
C21   C22   A    
Cr5   O26   S    
C21   C26   A    
C18   C51   S    
Cr3   O21   S    
C3    C61   A    
C4    C34   S    
Cr6   O3    S    
C43   H21   S    
C52   O21   A    
C14   H4    S    
Cr5   O25   S    
Cr4   O23   S    
C24   C25   S    
Cr5   O11   S    
C50   O6    A    
C13   H2    S    
C31   H15   S    
Cr3   O15   S    
Cr2   O14   S    
C6    C63   S    
Cr4   O24   S    
C9    C14   S    
C62   C63   A    
Cr3   O22   S    
C24   H10   S    
C31   C32   A    
C21   H7    S    
Cr6   O10   S    
C45   C57   S    
C51   O9    A    
C6    H37   S    
C34   C45   S    
C55   H13   S    
Cr4   O6    S    
C7    C63   A    
C12   H28   S    
C12   C56   S    
C39   C46   A    
C5    C58   S    
C24   H9    S    
C7    C16   S    
C40   O20   A    
C11   H38   S    
C35   H31   S    
Cr4   O11   S    
C57   H32   S    
C16   O1    A    
C23   C54   S    
Cr3   O20   S    
C23   C57   S    
C40   O12   A    
C54   C55   S    
C11   C17   A    
C23   C48   S    
C47   O24   A    
C27   C32   A    
C18   C22   A    
C14   H3    S    
C6    C59   S    
C22   H8    S    
C47   C61   S    
C53   O5    A    
C39   C44   S    
C4    O15   A    
C30   C35   S    
Cr6   O9    S    
C1    C17   S    
C32   H30   S    
C30   C36   A    
C28   C46   S    
C42   H20   S    
C2    C3    A    
C1    O13   A    
C56   H33   S    
C38   C43   S    
C60   N3    T    
C53   O10   A    
C11   C13   A    
C3    H29   S    
C26   C40   S    
C38   C39   A    
C20   C26   A    
Cr6   O11   S    
C54   H39   S    
C43   H24   S    
C5    C62   S    
C19   C24   S    
C28   O19   A    
Cr2   O12   S    
C61   C62   A    
C16   O16   A    
Cr2   O22   S    
C44   H25   S    
C15   H5    S    
Cr1   O18   S    
C25   H14   S    
C14   C15   S    
C12   H27   S    
C1    O4    A    
C8    C49   S    
C33   H17   S    
C44   H26   S    
C48   O2    A    
