data_mof_unit_33854.cif
_audit_creation_date              2012-10-26T19:41:33-0400
_audit_creation_method            fapswitch 2.2
_symmetry_space_group_name_H-M    P1
_symmetry_Int_Tables_number       1
_space_group_crystal_system       triclinic
_cell_length_a                    17.085144
_cell_length_b                    10.961794
_cell_length_c                    10.032092
_cell_angle_alpha                 112.715395
_cell_angle_beta                  93.859175
_cell_angle_gamma                 97.598764
_cell_volume                      1703.43883469

loop_
_atom_site_label
_atom_site_type_symbol
_atom_type_description
_atom_site_fract_x
_atom_site_fract_y
_atom_site_fract_z
_atom_type_partial_charge
Br1   Br    Br    0.249172 0.241134 0.273351 -0.232673
Br2   Br    Br    0.753258 0.751993 0.732441 -0.228607
Br3   Br    Br    0.688618 0.249231 0.215725 -0.321750
Br4   Br    Br    0.309432 0.750273 0.780942 -0.301436
Br5   Br    Br    0.371302 0.860969 0.449756 -0.274349
Br6   Br    Br    0.629896 0.138944 0.547066 -0.279404
C1    C     C_R   0.492757 0.252112 0.437812 0.576197
C2    C     C_R   0.648412 0.498920 0.481334 0.597900
C3    C     C_R   0.266301 0.492405 0.529123 0.008749
C4    C     C_R   0.733586 0.505380 0.470137 0.007963
C5    C     C_R   0.211732 0.380125 0.429822 0.142660
C6    C     C_R   0.789013 0.615515 0.570895 0.139896
C7    C     C_R   0.129946 0.369775 0.445226 0.213651
C8    C     C_R   0.870615 0.624501 0.554286 0.206300
C9    C     C_R   0.103757 0.478307 0.553177 -0.050059
C10   C     C_R   0.895855 0.516166 0.444517 -0.038218
C11   C     C_R   0.158421 0.586133 0.653493 -0.071701
C12   C     C_R   0.507403 0.747961 0.562164 0.571736
C13   C     C_R   0.840485 0.410238 0.343268 -0.085992
C14   C     C_R   0.239286 0.593475 0.643244 0.151803
C15   C     C_R   0.759734 0.404482 0.354305 0.121000
C16   C     C_2   0.019910 0.491448 0.555149 -0.020471
C17   C     C_2   0.979469 0.501294 0.441896 -0.037155
C18   C     C_2   0.480420 0.106432 0.398024 0.247236
C19   C     C_2   0.520315 0.893741 0.601619 0.248723
C20   C     C_2   0.518076 0.060617 0.487110 0.165380
C21   C     C_2   0.483025 0.939575 0.512005 0.154846
C22   C     C_2   0.509945 0.513478 0.079948 0.306720
C23   C     C_2   0.490123 0.486427 0.920033 0.356893
C24   C     C_R   0.351568 0.500622 0.518529 0.594008
Cu1   Cu    Cu3+1 0.513640 0.521550 0.643210 1.215898
Cu2   Cu    Cu3+1 0.486360 0.478450 0.356790 1.189579
H1    H     H_    0.006184 0.488127 0.343054 0.141565
H2    H     H_    0.407402 0.016266 0.017581 0.406694
H3    H     H_    0.282316 0.339944 0.882532 0.389977
H4    H     H_    0.679660 0.499434 0.113349 0.362969
H5    H     H_    0.993339 0.505544 0.654384 0.179001
H6    H     H_    0.137700 0.668237 0.736680 0.215727
H7    H     H_    0.860533 0.328203 0.258835 0.192294
H8    H     H_    0.587322 0.614159 0.909468 0.288884
H9    H     H_    0.412701 0.385747 0.090539 0.280156
H10   H     H_    0.888679 0.902585 0.583051 0.372299
H11   H     H_    0.016327 0.268937 0.159941 0.338512
H12   H     H_    0.702066 0.069652 0.854190 0.404656
N1    N     N_2   0.465840 0.446060 0.141630 -0.324911
N2    N     N_2   0.534160 0.553940 0.858370 -0.327416
O1    O     O_R   0.507280 0.332200 0.576490 -0.464560
O2    O     O_2   0.016945 0.780597 0.605208 -0.247692
O3    O     O_3   0.901038 0.910157 0.684135 -0.393325
O4    O     O_2   0.096719 0.100548 0.338790 -0.117366
O5    O     O_2   0.982350 0.214138 0.387025 -0.262174
O6    O     O_3   0.052045 0.205281 0.161616 -0.414852
O7    O     O_2   0.557555 0.140681 0.821446 -0.218971
O8    O     O_2   0.558874 0.947617 0.886019 -0.169545
O9    O     O_3   0.674550 0.007402 0.756683 -0.432334
O10   O     O_2   0.445326 0.859390 0.176910 -0.189378
O11   O     O_2   0.338822 0.994001 0.233386 -0.181720
O12   O     O_R   0.492720 0.667800 0.423510 -0.458660
O13   O     O_3   0.450884 0.059869 0.099837 -0.418086
O14   O     O_2   0.379845 0.311487 0.666161 -0.235308
O15   O     O_2   0.412115 0.235271 0.853012 -0.263417
O16   O     O_3   0.324110 0.419644 0.906236 -0.510847
O17   O     O_2   0.588874 0.764364 0.147073 -0.190775
O18   O     O_2   0.620412 0.688596 0.333969 -0.234653
O19   O     O_3   0.676441 0.580822 0.094086 -0.498179
O20   O     O_R   0.484240 0.295800 0.334620 -0.443631
O21   O     O_R   0.515760 0.704200 0.665380 -0.452298
O22   O     O_R   0.399260 0.520290 0.634950 -0.427455
O23   O     O_R   0.600740 0.479710 0.365050 -0.455281
O24   O     O_R   0.376220 0.483890 0.393080 -0.486257
O25   O     O_R   0.623780 0.516110 0.606920 -0.478175
O26   O     O_2   0.955867 0.770825 0.815347 -0.172916
S1    S     S_3+6 0.939606 0.772175 0.666908 0.104092
S2    S     S_3+6 0.062719 0.218959 0.334957 0.110245
S3    S     S_3+6 0.576971 0.001449 0.772513 0.117814
S4    S     S_3+6 0.426539 0.998900 0.224645 0.135865
S5    S     S_3+6 0.402305 0.358834 0.826692 0.072746
S6    S     S_3+6 0.598013 0.640634 0.173320 0.081361

loop_
_geom_bond_atom_site_label_1
_geom_bond_atom_site_label_2
_ccdc_geom_bond_type
O10   S4    D    
Cu2   N1    S    
O16   S5    S    
Br1   C5    S    
O5    S2    D    
Cu2   O12   S    
Br2   C6    S    
Cu1   O21   S    
C2    O23   A    
C13   H7    S    
O11   S4    D    
C22   C23   S    
C13   C15   A    
C18   C20   D    
O6    S2    S    
O4    S2    D    
H11   O6    S    
C1    C18   S    
C11   C14   A    
Br5   C21   S    
C12   O12   A    
C9    C16   S    
O15   S5    D    
C17   H1    S    
Cu1   N2    S    
C22   S6    S    
O9    S3    S    
Cu1   O25   S    
Cu1   O1    S    
O7    S3    D    
C12   C19   S    
C24   O24   A    
C4    C15   A    
Cu1   O22   S    
O14   S5    D    
C22   N1    D    
C8    S1    S    
H4    O19   S    
C18   S4    S    
Cu2   O24   S    
C12   O21   A    
C16   H5    S    
C19   S3    S    
C1    O1    A    
H8    N2    S    
C3    C14   A    
Cu1   Cu2   S    
C20   C21   S    
C3    C5    A    
C4    C6    A    
C3    C24   S    
C6    C8    A    
C10   C17   S    
C7    C9    A    
H2    O13   S    
C8    C10   A    
Br3   C15   S    
Cu2   O20   S    
C9    C11   A    
C2    O25   A    
O19   S6    S    
O18   S6    D    
O2    S1    D    
O26   S1    D    
Cu2   O23   S    
C19   C21   D    
C23   N2    D    
C1    O20   A    
C5    C7    A    
H12   O9    S    
Br6   C20   S    
C10   C13   A    
H3    O16   S    
O3    S1    S    
C11   H6    S    
H10   O3    S    
O8    S3    D    
Br4   C14   S    
C23   S5    S    
C7    S2    S    
C2    C4    S    
H9    N1    S    
C16   C17   D    
O13   S4    S    
C24   O22   A    
O17   S6    D    
