data_mof_unit_48428.cif
_audit_creation_date              2012-12-11T15:15:40-0500
_audit_creation_method            fapswitch 2.2
_symmetry_space_group_name_H-M    P1
_symmetry_Int_Tables_number       1
_space_group_crystal_system       triclinic
_cell_length_a                    20.643066
_cell_length_b                    22.753572
_cell_length_c                    6.940605
_cell_angle_alpha                 90.007852
_cell_angle_beta                  86.813282
_cell_angle_gamma                 89.999826
_cell_volume                      3254.98529844

loop_
_atom_site_label
_atom_site_type_symbol
_atom_type_description
_atom_site_fract_x
_atom_site_fract_y
_atom_site_fract_z
_atom_type_partial_charge
O1    O     O_R   0.387100 0.552640 0.378490 -0.535670
O2    O     O_R   0.612900 0.052640 0.621510 -0.535706
O3    O     O_R   0.249610 0.559600 0.072250 -0.545175
O4    O     O_R   0.750390 0.059600 0.927750 -0.545207
O5    O     O_R   0.249120 0.447360 0.902040 -0.543500
O6    O     O_R   0.750880 0.947360 0.097960 -0.543463
C1    C     C_R   0.227715 0.574106 0.244588 0.704031
C2    C     C_R   0.772287 0.074104 0.755425 0.703877
O7    O     O_R   0.386610 0.559560 0.048860 -0.536766
O8    O     O_R   0.613390 0.059560 0.951140 -0.536949
O9    O     O_R   0.387100 0.447320 0.878470 -0.535876
O10   O     O_R   0.612900 0.947320 0.121530 -0.536159
C3    C     C_R   0.407799 0.574841 0.214152 0.691217
C4    C     C_R   0.592201 0.074843 0.785874 0.691261
O11   O     O_R   0.249120 0.552680 0.402050 -0.544292
O12   O     O_R   0.750880 0.052680 0.597950 -0.544393
O13   O     O_3   0.318110 0.463180 0.223790 -0.370503
O14   O     O_3   0.681890 0.963180 0.776210 -0.370293
V1    V     V_3+5 0.318110 0.506830 0.948930 1.421126
V2    V     V_3+5 0.681890 0.006830 0.051070 1.420295
O15   O     O_R   0.386610 0.440400 0.548840 -0.538180
O16   O     O_R   0.613390 0.940400 0.451160 -0.537547
C5    C     C_R   0.407858 0.425147 0.714086 0.710971
C6    C     C_R   0.592148 0.925145 0.285872 0.711140
O17   O     O_R   0.249610 0.440440 0.572240 -0.547284
O18   O     O_R   0.750390 0.940440 0.427760 -0.547274
C7    C     C_R   0.227273 0.426308 0.744550 0.686240
C8    C     C_R   0.772727 0.926309 0.255437 0.686252
V3    V     V_3+5 0.318110 0.493170 0.448930 1.416762
V4    V     V_3+5 0.681890 0.993170 0.551070 1.417214
O19   O     O_3   0.318110 0.536820 0.723940 -0.368540
O20   O     O_3   0.681890 0.036820 0.276060 -0.368808
C9    C     C_R   0.174219 0.382660 0.761696 -0.049613
C10   C     C_R   0.825784 0.882663 0.238274 -0.049619
C11   C     C_R   0.148562 0.358798 0.595338 -0.172527
C12   C     C_R   0.851426 0.858796 0.404631 -0.172592
C13   C     C_R   0.098323 0.317825 0.610612 -0.124239
C14   C     C_R   0.901668 0.817827 0.389356 -0.124233
C15   C     C_R   0.072316 0.300108 0.792957 0.144467
C16   C     C_R   0.927697 0.800116 0.207012 0.144279
C17   C     C_R   0.098651 0.323039 0.959040 -0.133975
C18   C     C_R   0.901379 0.823051 0.040928 -0.134122
C19   C     C_R   0.148878 0.364144 0.943885 -0.169516
C20   C     C_R   0.851147 0.864153 0.056083 -0.169500
C21   C     C_R   0.886098 0.197342 0.883608 0.381362
C22   C     C_R   0.113924 0.697353 0.116441 0.380094
C23   C     C_R   0.837650 0.153831 0.898301 -0.267782
C24   C     C_R   0.162371 0.653839 0.101749 -0.268159
C25   C     C_R   0.858659 0.128580 0.561570 -0.176521
C26   C     C_R   0.141338 0.628593 0.438451 -0.175852
C27   C     C_R   0.907403 0.170973 0.546364 -0.225970
C28   C     C_R   0.092594 0.670988 0.453656 -0.225225
C29   C     C_R   0.922362 0.204764 0.706756 0.133451
C30   C     C_R   0.077646 0.704777 0.293274 0.133463
C31   C     C_2   0.018846 0.256928 0.815665 -0.154407
C32   C     C_2   0.981173 0.756939 0.184312 -0.154030
C33   C     C_2   0.975099 0.248490 0.681877 -0.152222
C34   C     C_2   0.024905 0.748501 0.318140 -0.153063
C35   C     C_R   0.823823 0.119110 0.738230 -0.076961
C36   C     C_R   0.176184 0.619119 0.261802 -0.076999
H1    H     H_    0.167393 0.371563 0.452732 0.122024
H2    H     H_    0.832579 0.871555 0.547237 0.122059
H3    H     H_    0.809971 0.147928 0.034160 0.124348
H4    H     H_    0.190060 0.647934 0.965902 0.124754
H5    H     H_    0.848763 0.102821 0.435282 0.136046
H6    H     H_    0.151224 0.602834 0.564726 0.136079
H7    H     H_    0.978972 0.272301 0.546336 0.124840
H8    H     H_    0.021015 0.772312 0.453702 0.124676
H9    H     H_    0.079782 0.309588 0.101014 0.104354
H10   H     H_    0.920265 0.809604 0.898953 0.104342
H11   H     H_    0.167747 0.381386 0.074947 0.122660
H12   H     H_    0.832291 0.881398 0.925024 0.122655
H13   H     H_    0.014894 0.231922 0.949104 0.160284
H14   H     H_    0.985141 0.731934 0.050851 0.160589
H15   H     H_    0.080994 0.299531 0.479237 0.098673
H16   H     H_    0.918984 0.799529 0.520728 0.098792
H17   H     H_    0.934328 0.176866 0.409226 0.140822
H18   H     H_    0.065659 0.676885 0.590782 0.140921
C37   C     C_R   0.577127 0.362137 0.657216 0.212574
C38   C     C_R   0.422642 0.862404 0.336754 0.213718
H19   H     H_    0.533278 0.447920 0.638974 0.106032
H20   H     H_    0.466516 0.948173 0.355488 0.105430
H21   H     H_    0.667594 0.276875 0.651859 0.163952
H22   H     H_    0.332381 0.776915 0.347355 0.163241
C39   C     C_R   0.461807 0.382198 0.712172 -0.073654
C40   C     C_R   0.538196 0.882208 0.287458 -0.073537
C41   C     C_R   0.475338 0.095857 0.829704 -0.164981
C42   C     C_R   0.524683 0.595816 0.171009 -0.164798
C43   C     C_R   0.422156 0.133420 0.839195 -0.122685
C44   C     C_R   0.577865 0.633377 0.161440 -0.121813
C45   C     C_R   0.430090 0.193601 0.808552 -0.154065
C46   C     C_R   0.569912 0.693588 0.191424 -0.153689
C47   C     C_R   0.492235 0.218239 0.766792 0.092337
C48   C     C_R   0.507749 0.718256 0.232708 0.092615
C49   C     C_R   0.546786 0.179085 0.755705 0.072057
C50   C     C_R   0.453199 0.679104 0.243867 0.072200
C51   C     C_R   0.501919 0.280265 0.735801 0.031407
C52   C     C_R   0.498039 0.780317 0.262889 0.031908
C53   C     C_R   0.566014 0.301459 0.691835 0.119376
C54   C     C_R   0.433852 0.801615 0.304591 0.120372
C55   C     C_R   0.618363 0.261855 0.683117 -0.174011
C56   C     C_R   0.381571 0.761940 0.315049 -0.171643
C57   C     C_R   0.609001 0.202080 0.714557 -0.214837
C58   C     C_R   0.390981 0.702110 0.284885 -0.213742
C59   C     C_R   0.450327 0.322079 0.746431 -0.223983
C60   C     C_R   0.549704 0.822057 0.253903 -0.223004
C61   C     C_R   0.524860 0.401616 0.667339 -0.202771
C62   C     C_R   0.475020 0.901766 0.329306 -0.202191
C63   C     C_R   0.537832 0.117612 0.787773 -0.084289
C64   C     C_R   0.462169 0.617605 0.212349 -0.084267
H23   H     H_    0.400632 0.309481 0.779164 0.101801
H24   H     H_    0.599485 0.809370 0.223261 0.101654
H25   H     H_    0.467695 0.049329 0.855540 0.108585
H26   H     H_    0.532340 0.549265 0.145615 0.109049
H27   H     H_    0.386438 0.219563 0.818565 0.108062
H28   H     H_    0.613551 0.719561 0.180954 0.108243
H29   H     H_    0.374090 0.115703 0.871369 0.121501
H30   H     H_    0.625942 0.615640 0.129592 0.122447
H31   H     H_    0.651295 0.173836 0.705922 0.113346
H32   H     H_    0.348723 0.673830 0.294464 0.113186
N1    N     N_3   0.641673 0.383526 0.610347 -0.675545
H33   H     H_    0.654710 0.369942 0.469577 0.227534
H34   H     H_    0.642446 0.429480 0.609088 0.230610
N2    N     N_3   0.357866 0.884034 0.378126 -0.676425
H35   H     H_    0.333615 0.881927 0.250001 0.226705
H36   H     H_    0.358690 0.928348 0.417910 0.229693
O21   O     O_3   0.896907 0.234144 0.036893 -0.657310
H37   H     H_    0.866534 0.223784 0.147379 0.281617
O22   O     O_3   0.103129 0.734153 0.963175 -0.657692
H38   H     H_    0.133506 0.723787 0.852694 0.281970

loop_
_geom_bond_atom_site_label_1
_geom_bond_atom_site_label_2
_ccdc_geom_bond_type
C4    C63   S    
C40   C62   A    
H19   C61   S    
H22   C56   S    
O4    C2    A    
V1    O19   S    
C22   O22   S    
C15   C17   A    
C60   H24   S    
C7    C9    S    
C37   N1    S    
O9    V1    S    
C25   H5    S    
C44   H30   S    
C37   C53   A    
C11   C13   A    
O3    C1    A    
C2    C35   S    
C23   H3    S    
C12   H2    S    
C24   H4    S    
C48   C52   A    
O12   V4    S    
C45   H27   S    
C18   H10   S    
O13   V3    S    
C28   H18   S    
O7    C3    A    
C13   H15   S    
C9    C11   A    
O5    C7    A    
O7    V1    S    
O6    C8    A    
C28   C30   A    
C16   C32   S    
C26   C28   A    
O3    V1    S    
O14   V4    S    
H20   C62   S    
C43   C45   A    
H21   C55   S    
C10   C12   A    
C24   C36   A    
C42   C64   A    
C16   C18   A    
C59   H23   S    
C21   C29   A    
C2    O12   A    
C38   C54   A    
C17   C19   A    
C22   C30   A    
C40   C60   A    
C18   C20   A    
C33   H7    S    
V2    O20   S    
C39   C59   A    
C54   C56   A    
C51   C53   A    
C49   C57   A    
O11   V3    S    
C21   C23   A    
O17   V3    S    
C22   C24   A    
C23   C35   A    
C32   H14   S    
C9    C19   A    
C10   C20   A    
C49   C63   A    
O8    V2    S    
C29   C33   S    
C14   H16   S    
C1    O11   A    
C25   C27   A    
C50   C64   A    
C27   C29   A    
C31   H13   S    
C48   C50   A    
C27   H17   S    
C3    C64   S    
V4    O20   S    
C45   C47   A    
C46   H28   S    
C44   C46   A    
V3    O19   S    
O10   V2    S    
O1    V3    S    
C37   C61   A    
C11   H1    S    
C56   C58   A    
C26   H6    S    
N1    H33   S    
C41   C63   A    
C34   H8    S    
C53   C55   A    
C42   C44   A    
O18   V4    S    
C52   C54   A    
C31   C33   D    
O8    C4    A    
O17   C7    A    
O16   C6    A    
O1    C3    A    
O21   H37   S    
C47   C51   A    
C1    C36   S    
N2    H36   S    
O22   H38   S    
C30   C34   S    
C50   C58   A    
O10   C6    A    
C19   H11   S    
O16   V4    S    
C57   H31   S    
C43   H29   S    
C52   C60   A    
O5    V1    S    
C15   C31   S    
O6    V2    S    
C38   C62   A    
O18   C8    A    
C25   C35   A    
O2    V4    S    
C41   H25   S    
C26   C36   A    
O15   C5    A    
C51   C59   A    
C13   C15   A    
C12   C14   A    
C14   C16   A    
C46   C48   A    
C47   C49   A    
O15   V3    S    
C21   O21   S    
O9    C5    A    
O13   V1    S    
C32   C34   D    
C20   H12   S    
O14   V2    S    
C42   H26   S    
O2    C4    A    
N1    H34   S    
C38   N2    S    
C8    C10   S    
O4    V2    S    
C55   C57   A    
C5    C39   S    
C41   C43   A    
C39   C61   A    
C17   H9    S    
C6    C40   S    
N2    H35   S    
C58   H32   S    
