data_mof_unit_61003.cif
_audit_creation_date              2012-12-10T16:57:31-0500
_audit_creation_method            fapswitch 2.2
_symmetry_space_group_name_H-M    P1
_symmetry_Int_Tables_number       1
_space_group_crystal_system       triclinic
_cell_length_a                    21.715535
_cell_length_b                    21.783224
_cell_length_c                    22.006598
_cell_angle_alpha                 59.840301
_cell_angle_beta                  118.291631
_cell_angle_gamma                 89.976423
_cell_volume                      7526.48105298

loop_
_atom_site_label
_atom_site_type_symbol
_atom_type_description
_atom_site_fract_x
_atom_site_fract_y
_atom_site_fract_z
_atom_type_partial_charge
C1    C     C_R   0.616683 0.502125 0.495095 0.917631
C2    C     C_2   0.820295 0.520189 0.508243 0.287289
C3    C     C_2   0.688109 0.569309 0.442030 -0.091941
C4    C     C_R   0.418643 0.581649 0.337293 0.891755
C5    C     C_2   0.676829 0.505139 0.483539 -0.217195
C6    C     C_3   0.709617 0.242476 0.030900 -0.286476
C7    C     C_3   0.716820 0.317218 0.972129 -0.282984
C8    C     C_1   0.625981 0.373456 0.751413 -0.084969
C9    C     C_1   0.876425 0.125157 0.248377 -0.108936
C10   C     C_3   0.702222 0.216604 0.974642 0.413234
C11   C     C_3   0.709690 0.290173 0.917131 -0.107492
C12   C     C_3   0.289149 0.710071 0.082377 0.125453
C13   C     C_3   0.786166 0.180192 0.026971 0.263293
C14   C     C_3   0.793925 0.206920 0.082565 -0.160311
C15   C     C_3   0.793568 0.254434 0.969248 0.267460
C16   C     C_R   0.383938 0.497149 0.506016 0.978180
C17   C     C_3   0.801110 0.280959 0.024633 0.336307
C18   C     C_1   0.663767 0.335774 0.826340 0.164182
C19   C     C_1   0.839461 0.162103 0.173403 0.173547
C20   C     C_2   0.247764 0.436970 0.565754 -0.416874
C21   C     C_2   0.180565 0.477935 0.494269 0.238562
C22   C     C_2   0.313993 0.429769 0.564755 0.470195
C23   C     C_3   0.184858 0.736771 0.975844 0.542815
C24   C     C_2   0.323676 0.493439 0.517593 -0.360689
C25   C     C_R   0.001146 0.879321 0.502950 0.937163
C26   C     C_R   0.080661 0.918535 0.662800 0.904999
C27   C     C_R   0.997586 0.121524 0.494525 0.913322
C28   C     C_R   0.581335 0.418418 0.662603 0.930402
C29   C     C_R   0.919372 0.081233 0.337273 0.900053
C30   C     C_R   0.001791 0.619520 0.499212 0.935025
C31   C     C_R   0.881671 0.505172 0.501611 0.814932
C32   C     C_R   0.000761 0.380551 0.500869 0.789833
C33   C     C_R   0.118410 0.494771 0.498689 0.828308
C34   C     C_3   0.206426 0.792230 0.917876 0.128849
C35   C     C_2   0.064026 0.688434 0.555405 -0.141756
C36   C     C_2   0.006386 0.687184 0.495201 -0.308457
C37   C     C_2   0.065788 0.758982 0.547833 -0.147477
C38   C     C_2   0.002949 0.809349 0.511381 -0.307658
C39   C     C_2   0.939480 0.303622 0.461669 -0.231545
C40   C     C_3   0.282418 0.734672 0.970634 -0.212841
C41   C     C_2   0.003419 0.312143 0.505496 0.340478
C42   C     C_2   0.937102 0.233208 0.469359 -0.110867
C43   C     C_2   0.991661 0.194767 0.477716 -0.235263
C44   C     C_3   0.312339 0.765574 0.025468 -0.119964
C45   C     C_3   0.213109 0.767932 0.029824 -0.256142
C46   C     C_1   0.373523 0.626777 0.248297 -0.154798
C47   C     C_1   0.123666 0.874360 0.751853 -0.157473
C48   C     C_3   0.260318 0.677984 0.029234 -0.262748
C49   C     C_3   0.903516 0.219572 0.983904 0.187251
C50   C     C_3   0.951868 0.257639 0.954554 -0.760400
C51   C     C_3   0.128678 0.270916 0.566747 0.071590
C52   C     C_3   0.192185 0.200261 0.618787 -0.705171
C53   C     C_3   0.110403 0.671492 0.010574 0.082106
C54   C     C_3   0.035830 0.659288 0.975219 -0.716556
C55   C     C_3   0.235576 0.823922 0.971163 -0.205893
C56   C     C_1   0.335353 0.664596 0.173257 -0.032687
C57   C     C_1   0.160677 0.837215 0.826933 0.000832
C58   C     C_2   0.753219 0.565456 0.438178 -0.325904
H1    H     H_    0.365997 0.776567 0.047830 0.150706
H2    H     H_    0.118533 0.768128 0.575071 0.170841
H3    H     H_    0.951357 0.796505 0.492933 0.167623
H4    H     H_    0.887631 0.347740 0.422691 0.132930
H5    H     H_    0.891107 0.213214 0.468624 0.169740
H6    H     H_    0.033417 0.218723 0.470035 0.184442
H7    H     H_    0.225045 0.884255 0.945750 0.165450
H8    H     H_    0.185443 0.780568 0.055462 0.156412
H9    H     H_    0.270908 0.617704 0.054380 0.151988
H10   H     H_    0.744612 0.595056 0.376346 0.165994
H11   H     H_    0.649722 0.623099 0.410216 0.169402
H12   H     H_    0.711560 0.452689 0.506697 0.174795
H13   H     H_    0.856620 0.389006 0.940687 0.365737
H14   H     H_    0.904160 0.169075 0.983047 0.216173
H15   H     H_    0.927991 0.202106 0.049653 0.186593
H16   H     H_    0.953527 0.307850 0.956006 0.263796
H17   H     H_    0.008765 0.218440 0.996671 0.217982
H18   H     H_    0.929810 0.274766 0.889439 0.277113
H19   H     H_    0.839879 0.029993 0.014235 0.388073
H20   H     H_    0.600238 0.081785 0.995650 0.387770
H21   H     H_    0.070109 0.517523 0.283466 0.385893
H22   H     H_    0.370261 0.290669 0.738529 0.363569
H23   H     H_    0.688005 0.373995 0.948271 0.210356
H24   H     H_    0.147110 0.303524 0.594327 0.174702
H25   H     H_    0.115871 0.304112 0.501374 0.155151
H26   H     H_    0.176040 0.166492 0.592514 0.242744
H27   H     H_    0.240709 0.215334 0.617784 0.258923
H28   H     H_    0.207439 0.166392 0.684858 0.258508
H29   H     H_    0.114921 0.690852 0.050264 0.152329
H30   H     H_    0.153868 0.616995 0.050189 0.148294
H31   H     H_    0.029838 0.638985 0.936019 0.260921
H32   H     H_    0.030975 0.617015 0.027501 0.217744
H33   H     H_    0.991056 0.712528 0.936075 0.259133
H34   H     H_    0.675654 0.236399 0.057412 0.209956
H35   H     H_    0.934536 0.458847 0.728370 0.382139
H36   H     H_    0.255548 0.413240 0.626627 0.167500
H37   H     H_    0.310042 0.722331 0.944793 0.162060
H38   H     H_    0.286045 0.546889 0.488239 0.156468
H39   H     H_    0.110934 0.638472 0.608494 0.170469
H40   H     H_    0.963597 0.738602 0.437536 0.169161
O1    O     O_R   0.590490 0.448940 0.499990 -0.630567
O2    O     O_R   0.034710 0.555670 0.569560 -0.599095
O3    O     O_R   0.874770 0.534770 0.430450 -0.648476
O4    O     O_R   0.590420 0.551070 0.499980 -0.598878
O5    O     O_R   0.944330 0.465210 0.569580 -0.535448
O6    O     O_R   0.965290 0.444330 0.430440 -0.614251
O7    O     O_R   0.034850 0.374760 0.569570 -0.603391
O8    O     O_R   0.055670 0.534790 0.430420 -0.536153
O9    O     O_R   0.125230 0.465230 0.569550 -0.659248
O10   O     O_R   0.438430 0.510550 0.376780 -0.615536
O11   O     O_R   0.438360 0.612680 0.376770 -0.621147
O12   O     O_R   0.948920 0.909510 0.500030 -0.615708
O13   O     O_R   0.409580 0.448930 0.500020 -0.538115
O14   O     O_R   0.409510 0.551060 0.500010 -0.636587
O15   O     O_R   0.561640 0.387320 0.623230 -0.566312
O16   O     O_R   0.561570 0.489450 0.623220 -0.624878
O17   O     O_R   0.051050 0.909420 0.500010 -0.612599
O18   O     O_2   0.848918 0.345589 0.107503 -0.241663
O19   O     O_2   0.942451 0.274130 0.115146 -0.297005
O20   O     O_3   0.855262 0.404213 0.975643 -0.493913
O21   O     O_3   0.830849 0.268853 0.927860 -0.596823
O22   O     O_2   0.911648 0.065936 0.127170 -0.341462
O23   O     O_R   0.112670 0.938280 0.623210 -0.620403
O24   O     O_2   0.799743 0.034011 0.113534 -0.223303
O25   O     O_3   0.813828 0.082489 0.987427 -0.510044
O26   O     O_2   0.558454 0.234459 0.883274 -0.272100
O27   O     O_2   0.644095 0.156200 0.887782 -0.210612
O28   O     O_3   0.638655 0.101445 0.020468 -0.503981
O29   O     O_2   0.162546 0.582573 0.347056 -0.312038
O30   O     O_2   0.217764 0.452284 0.405154 -0.266574
O31   O     O_3   0.077922 0.499244 0.338659 -0.533500
O32   O     O_2   0.377872 0.314822 0.578086 -0.202745
O33   O     O_2   0.455015 0.342026 0.680368 -0.295321
O34   O     O_R   0.010540 0.938370 0.623230 -0.604810
O35   O     O_3   0.357718 0.278190 0.697391 -0.525093
O36   O     O_3   0.067352 0.250918 0.568900 -0.602534
O37   O     O_3   0.115719 0.725272 0.943499 -0.606893
O38   O     O_2   0.786585 0.531857 0.607566 -0.267290
O39   O     O_2   0.837623 0.405902 0.651131 -0.310405
O40   O     O_3   0.925591 0.484174 0.671570 -0.525648
O41   O     O_R   0.051080 0.090340 0.499970 -0.619525
O42   O     O_R   0.948950 0.090430 0.499990 -0.620004
O43   O     O_R   0.989460 0.061480 0.376770 -0.594996
O44   O     O_R   0.887330 0.061570 0.376790 -0.618675
O45   O     O_R   0.965150 0.625240 0.430430 -0.618051
S1    S     S_3+6 0.864870 0.325619 0.059135 0.062323
S2    S     S_3+6 0.830136 0.087096 0.067478 0.052644
S3    S     S_3+6 0.632970 0.177520 0.937903 0.103565
S4    S     S_3+6 0.161678 0.503709 0.394589 0.028133
S5    S     S_3+6 0.379038 0.339879 0.630876 0.086721
S6    S     S_3+6 0.840585 0.484678 0.611290 0.042840
Zn1   Zn    Zn3+2 0.500050 0.431810 0.500010 1.097535
Zn2   Zn    Zn3+2 0.499950 0.568190 0.499990 1.015364
Zn3   Zn    Zn3+2 0.068190 0.999870 0.499990 1.016097
Zn4   Zn    Zn3+2 0.931810 0.999990 0.500010 1.008490
Zn5   Zn    Zn3+2 0.953560 0.546450 0.407100 1.045327
Zn6   Zn    Zn3+2 0.046440 0.453550 0.592900 1.039600

loop_
_geom_bond_atom_site_label_1
_geom_bond_atom_site_label_2
_ccdc_geom_bond_type
C4    O11   A    
C11   C18   S    
C23   C45   S    
C51   H25   S    
C35   C36   D    
C33   O9    A    
C13   S2    S    
C12   C48   S    
C1    O1    A    
O38   S6    D    
O28   S3    S    
C39   C41   D    
C4    C46   S    
C53   C54   S    
C7    C11   S    
C4    O10   A    
C5    H12   S    
C17   S1    S    
C1    C5    S    
C31   O3    A    
C52   H27   S    
C3    H11   S    
C54   H32   S    
O20   S1    S    
O27   S3    D    
C25   O17   A    
C51   O36   S    
C47   C57   T    
C44   H1    S    
H21   O31   S    
C30   O2    A    
O41   Zn3   S    
C15   C17   S    
O24   S2    D    
C52   H26   S    
H35   O40   S    
O18   S1    D    
C11   C15   S    
C9    C19   T    
O25   S2    S    
O8    Zn5   S    
C49   H14   S    
C53   O37   S    
O17   Zn3   S    
C34   C57   S    
C32   C41   S    
C32   O6    A    
C26   O23   A    
C9    C29   S    
O4    Zn2   S    
C38   H3    S    
C2    S6    S    
C34   C55   S    
O44   Zn4   S    
C13   C14   S    
C54   H33   S    
C14   C17   S    
O39   S6    D    
O16   Zn2   S    
C14   C19   S    
C41   O36   S    
C55   H7    S    
C43   H6    S    
C39   C42   S    
O40   S6    S    
O1    Zn1   S    
O32   S5    D    
C51   C52   S    
O19   S1    D    
C54   H31   S    
C28   O15   A    
O45   Zn5   S    
C7    C17   S    
O26   S3    D    
C8    C18   T    
H22   O35   S    
C2    C31   S    
C31   O5    A    
C37   C38   D    
H19   O25   S    
C50   H18   S    
C25   C38   S    
C6    C14   S    
C40   C44   S    
C23   C34   S    
C29   O43   A    
O34   Zn4   S    
O14   Zn2   S    
O33   S5    D    
C53   H29   S    
O35   S5    S    
C51   H24   S    
C12   C56   S    
C28   O16   A    
C25   O12   A    
C10   S3    S    
O10   Zn1   S    
C26   C47   S    
O2    Zn6   S    
O5    Zn6   S    
O7    Zn6   S    
C22   S5    S    
C32   O7    A    
C13   C15   S    
C8    C28   S    
C49   H15   S    
C42   C43   D    
C40   H37   S    
H20   O28   S    
O13   Zn1   S    
C21   S4    S    
C26   O34   A    
C16   O14   A    
C58   H10   S    
C40   C48   S    
C39   H4    S    
C20   H36   S    
C23   C48   S    
H13   O20   S    
C7    H23   S    
O15   Zn1   S    
C33   O8    A    
C20   C22   S    
C12   C45   S    
C3    C5    D    
C10   C13   S    
C6    C10   S    
C2    C58   D    
O30   S4    D    
C6    C7    S    
C23   O37   S    
O42   Zn4   S    
C27   O42   A    
O23   Zn3   S    
C30   C36   S    
C24   H38   S    
C16   O13   A    
C35   C37   S    
C12   C44   S    
O12   Zn4   S    
C50   H17   S    
C44   C55   S    
C50   H16   S    
C49   O21   S    
O3    Zn5   S    
C6    H34   S    
C29   O44   A    
C42   H5    S    
C52   H28   S    
C15   O21   S    
C53   H30   S    
C22   C24   D    
C48   H9    S    
C27   O41   A    
O31   S4    S    
C37   H2    S    
C10   C11   S    
C30   O45   A    
C3    C58   S    
C27   C43   S    
O22   S2    D    
O11   Zn2   S    
C21   C33   S    
C20   C21   D    
C45   C55   S    
C16   C24   S    
C49   C50   S    
C46   C56   T    
C45   H8    S    
C34   C40   S    
C36   H40   S    
O6    Zn5   S    
C35   H39   S    
C1    O4    A    
O9    Zn6   S    
O43   Zn3   S    
O29   S4    D    
