data_mof_unit_18407.cif
_audit_creation_date              2012-10-26T19:03:31-0400
_audit_creation_method            fapswitch 2.2
_symmetry_space_group_name_H-M    P1
_symmetry_Int_Tables_number       1
_space_group_crystal_system       triclinic
_cell_length_a                    10.791654
_cell_length_b                    13.046386
_cell_length_c                    11.733689
_cell_angle_alpha                 100.348083
_cell_angle_beta                  93.507828
_cell_angle_gamma                 91.435249
_cell_volume                      1621.00229388

loop_
_atom_site_label
_atom_site_type_symbol
_atom_type_description
_atom_site_fract_x
_atom_site_fract_y
_atom_site_fract_z
_atom_type_partial_charge
C1    C     C_R   0.502241 0.299211 0.478242 0.595448
C2    C     C_R   0.467786 0.121538 0.359244 0.332698
C3    C     C_R   0.544979 0.139635 0.561579 0.221520
C4    C     C_R   0.262949 0.505544 0.501756 0.629824
C5    C     C_R   0.528957 0.031592 0.553965 -0.027226
C6    C     C_R   0.479094 0.969346 0.449410 -0.045839
C7    C     C_R   0.459027 0.862117 0.442732 0.203849
C8    C     C_R   0.549764 0.877248 0.641929 0.287031
C9    C     C_R   0.563004 0.985126 0.649204 -0.062493
C10   C     C_R   0.357024 0.428679 0.024955 0.213928
C11   C     C_R   0.377670 0.425457 0.145916 0.388571
C12   C     C_R   0.069748 0.604641 0.549152 -0.189781
C13   C     C_R   0.560845 0.533988 0.156310 0.376917
C14   C     C_R   0.550277 0.527817 0.033050 -0.087524
C15   C     C_R   0.447289 0.475335 0.967309 -0.065497
C16   C     C_R   0.498944 0.700905 0.522067 0.668241
C17   C     C_R   0.436101 0.471620 0.845029 0.023610
C18   C     C_R   0.624510 0.571221 0.852902 0.412658
C19   C     C_R   0.639162 0.574553 0.974430 -0.156313
C20   C     C_R   0.737451 0.501442 0.499210 0.655604
C21   C     C_R   0.134760 0.698478 0.605586 0.187729
C22   C     C_R   0.072963 0.792618 0.624784 0.357306
C23   C     C_R   0.129405 0.510660 0.505840 -0.021636
C24   C     C_R   0.946196 0.794106 0.598350 0.430388
C25   C     C_R   0.878702 0.701563 0.555822 0.355061
C26   C     C_R   0.938424 0.605142 0.534114 -0.166690
C27   C     C_3   0.721412 0.217460 0.657503 -0.076006
C28   C     C_3   0.830868 0.618515 0.835279 -0.092536
C29   C     C_3   0.156851 0.461230 0.978371 -0.131786
C30   C     C_3   0.256441 0.274969 0.146504 0.029546
C31   C     C_3   0.649088 0.697584 0.229999 -0.060080
C32   C     C_3   0.262853 0.696052 0.764814 -0.071302
C33   C     C_3   0.276479 0.791829 0.352206 -0.103243
C34   C     C_R   0.060134 0.419053 0.459546 0.395405
C35   C     C_3   0.543632 0.871347 0.836713 -0.086178
C36   C     C_R   0.932063 0.417622 0.458172 0.358067
C37   C     C_R   0.871157 0.509132 0.496869 -0.014840
C38   C     C_R   0.501396 0.815005 0.536452 0.082994
C39   C     C_R   0.506143 0.185519 0.465677 0.046223
C40   C     C_R   0.452468 0.014858 0.351883 -0.077449
Cu1   Cu    Cu3+1 0.509250 0.507730 0.615930 1.087772
Cu2   Cu    Cu3+1 0.490750 0.492270 0.384070 1.163336
F1    F     F_    0.117576 0.329549 0.418888 -0.581832
F2    F     F_    0.444071 0.161528 0.261763 -0.645869
F3    F     F_    0.136884 0.883040 0.670631 -0.589078
F4    F     F_    0.887362 0.885752 0.616857 -0.557724
F5    F     F_    0.755700 0.708205 0.531514 -0.609232
F6    F     F_    0.866702 0.326545 0.418223 -0.608077
H1    H     H_    0.604618 0.032017 0.728386 0.171946
H2    H     H_    0.891198 0.636141 0.767961 0.137738
H3    H     H_    0.132880 0.479645 0.070552 0.149194
H4    H     H_    0.071463 0.428873 0.925331 0.147525
H5    H     H_    0.185832 0.533822 0.948218 0.084254
H6    H     H_    0.168992 0.276099 0.092011 0.156157
H7    H     H_    0.234941 0.227346 0.212593 0.221666
H8    H     H_    0.330079 0.235624 0.093908 0.163753
H9    H     H_    0.657529 0.735952 0.322425 0.216342
H10   H     H_    0.560768 0.721392 0.189371 0.128744
H11   H     H_    0.728285 0.729261 0.189532 0.097624
H12   H     H_    0.358035 0.429981 0.793219 0.186415
H13   H     H_    0.210186 0.626577 0.782170 0.089936
H14   H     H_    0.228207 0.768554 0.816044 0.146137
H15   H     H_    0.360927 0.689520 0.795633 0.150538
H16   H     H_    0.232434 0.750162 0.268199 0.128802
H17   H     H_    0.232846 0.868868 0.372720 0.150199
H18   H     H_    0.257303 0.744089 0.418883 0.150909
H19   H     H_    0.442644 0.885002 0.823717 0.124099
H20   H     H_    0.594215 0.944181 0.880868 0.132424
H21   H     H_    0.553130 0.813897 0.895577 0.138526
H22   H     H_    0.719756 0.614130 0.022773 0.121306
H23   H     H_    0.419502 0.968173 0.269183 0.180683
H24   H     H_    0.759990 0.264943 0.740722 0.146496
H25   H     H_    0.740305 0.261808 0.587471 0.169923
H26   H     H_    0.770679 0.142713 0.643976 0.167872
H27   H     H_    0.852188 0.538480 0.849649 0.082860
H28   H     H_    0.855945 0.677612 0.914487 0.104898
N1    N     N_R   0.523180 0.519350 0.790130 -0.249458
N2    N     N_R   0.476820 0.480650 0.209890 -0.233272
O1    O     O_R   0.506570 0.354460 0.582000 -0.489912
O2    O     O_3   0.705394 0.626715 0.796541 -0.473827
O3    O     O_3   0.249063 0.386115 0.963047 -0.583633
O4    O     O_3   0.292210 0.376829 0.204533 -0.511406
O5    O     O_3   0.659932 0.588611 0.223000 -0.529027
O6    O     O_3   0.257798 0.699642 0.644962 -0.544546
O7    O     O_3   0.405227 0.802758 0.341116 -0.602895
O8    O     O_3   0.597234 0.830599 0.731984 -0.472699
O9    O     O_R   0.490940 0.341410 0.386200 -0.417940
O10   O     O_R   0.327470 0.506530 0.597920 -0.515592
O11   O     O_R   0.311840 0.493480 0.402120 -0.454363
O12   O     O_R   0.509060 0.658590 0.613800 -0.405774
O13   O     O_R   0.493430 0.645540 0.418000 -0.481582
O14   O     O_R   0.688160 0.506520 0.597880 -0.470295
O15   O     O_R   0.672530 0.493470 0.402080 -0.426097
O16   O     O_3   0.592749 0.200403 0.664864 -0.560141

loop_
_geom_bond_atom_site_label_1
_geom_bond_atom_site_label_2
_ccdc_geom_bond_type
C1    O9    A    
C20   O15   A    
C16   O12   A    
C40   H23   S    
Cu2   O15   S    
Cu1   Cu2   S    
C33   H17   S    
C5    C9    A    
C20   O14   A    
C12   C23   A    
C31   H10   S    
C36   C37   A    
C32   H13   S    
Cu2   O13   S    
C10   C15   A    
C33   H16   S    
Cu1   N1    S    
C5    C6    A    
C35   O8    S    
C31   O5    S    
C18   C19   A    
C31   H11   S    
C33   O7    S    
C28   H2    S    
C2    C39   A    
C2    F2    S    
C8    C9    A    
C27   H26   S    
C25   F5    S    
C8    O8    S    
C22   C24   A    
Cu1   O12   S    
C3    C39   A    
C21   C22   A    
C8    C38   A    
C33   H18   S    
C11   O4    S    
C32   O6    S    
C9    H1    S    
C24   C25   A    
C4    C23   S    
C25   C26   A    
C30   H8    S    
C12   C21   A    
C12   C26   A    
C30   O4    S    
C29   O3    S    
C11   N2    A    
C30   H6    S    
C21   O6    S    
C35   H19   S    
C23   C34   A    
C22   F3    S    
C17   N1    A    
Cu2   N2    S    
C1    O1    A    
C6    C40   A    
C28   H28   S    
C4    O11   A    
C29   H3    S    
C15   C17   A    
Cu1   O10   S    
C13   N2    A    
C14   C19   A    
C34   F1    S    
C32   H15   S    
C3    C5    A    
Cu1   O1    S    
C26   C37   A    
C6    C7    A    
C4    O10   A    
C30   H7    S    
C13   O5    S    
C10   O3    S    
Cu2   O11   S    
C24   F4    S    
C31   H9    S    
C27   O16   S    
C32   H14   S    
C27   H25   S    
C20   C37   S    
C7    O7    S    
C29   H5    S    
C35   H20   S    
C18   N1    A    
C7    C38   A    
C36   F6    S    
C3    O16   S    
C34   C36   A    
C28   O2    S    
C10   C11   A    
C1    C39   S    
C17   H12   S    
C2    C40   A    
Cu1   O14   S    
C35   H21   S    
C16   O13   A    
C18   O2    S    
C14   C15   A    
C19   H22   S    
Cu2   O9    S    
C13   C14   A    
C28   H27   S    
C27   H24   S    
C16   C38   S    
C29   H4    S    
