data_mof_unit_18993.cif
_audit_creation_date              2012-12-11T16:29:53-0500
_audit_creation_method            fapswitch 2.2
_symmetry_space_group_name_H-M    P1
_symmetry_Int_Tables_number       1
_space_group_crystal_system       triclinic
_cell_length_a                    8.415877
_cell_length_b                    17.4225
_cell_length_c                    22.889596
_cell_angle_alpha                 93.984008
_cell_angle_beta                  90.055161
_cell_angle_gamma                 97.669397
_cell_volume                      3317.9630684

loop_
_atom_site_label
_atom_site_type_symbol
_atom_type_description
_atom_site_fract_x
_atom_site_fract_y
_atom_site_fract_z
_atom_type_partial_charge
Ba1   Ba    Ba6+2 0.852790 0.535910 0.472200 1.932716
Ba2   Ba    Ba6+2 0.337030 0.464150 0.527810 1.845654
C1    C     C_3   0.687319 0.821712 0.329085 0.445250
C2    C     C_3   0.671280 0.738638 0.347257 0.342476
C3    C     C_3   0.574297 0.296210 0.327182 0.815443
C4    C     C_3   0.497829 0.212963 0.311426 -0.221241
C5    C     C_3   0.114174 0.256581 0.667323 0.300585
C6    C     C_3   0.088966 0.207515 0.720582 0.323000
C7    C     C_3   0.560367 0.249576 0.697880 0.782838
C8    C     C_3   0.462037 0.167336 0.697665 0.560658
C9    C     C_R   0.360015 0.500115 0.327189 -0.157373
C10   C     C_R   0.105345 0.566463 0.940491 -0.016103
C11   C     C_R   0.050331 0.565948 0.881633 0.575736
C12   C     C_3   0.216317 0.786414 0.322002 0.601329
C13   C     C_R   0.969386 0.429151 0.880501 0.672106
C14   C     C_R   0.040549 0.426459 0.936075 -0.132266
C15   C     C_R   0.104539 0.495554 0.967092 -0.049937
C16   C     C_R   0.160548 0.635940 0.973491 -0.048706
C17   C     C_R   0.209073 0.635036 0.031863 -0.034690
C18   C     C_R   0.210464 0.564449 0.058452 -0.023452
C19   C     C_R   0.163729 0.493905 0.025329 -0.078920
C20   C     C_R   0.049490 0.355665 0.960793 -0.031053
C21   C     C_R   0.123585 0.351896 0.015301 0.404476
C22   C     C_R   0.176416 0.422218 0.050070 -0.109445
C23   C     C_3   0.209297 0.852200 0.280157 0.587527
C24   C     C_R   0.237892 0.424846 0.108598 0.741231
C25   C     C_R   0.253391 0.563262 0.117909 0.644140
C26   C     C_2   0.775029 0.470786 0.774993 -0.025899
C27   C     C_3   0.723356 0.468129 0.711195 -0.071211
C28   C     C_1   0.002406 0.513888 0.686787 0.000563
C29   C     C_2   0.049173 0.516913 0.742830 -0.046976
C30   C     C_2   0.930679 0.495302 0.790569 0.262418
C31   C     C_R   0.442179 0.526619 0.228625 0.000303
C32   C     C_R   0.476895 0.530669 0.288513 0.071671
C33   C     C_R   0.202484 0.471650 0.308638 -0.065176
C34   C     C_3   0.218921 0.701646 0.596362 0.281946
C35   C     C_R   0.167517 0.465638 0.246393 0.284084
C36   C     C_R   0.290240 0.493901 0.206469 0.204763
C37   C     C_2   0.861165 0.477262 0.668824 -0.152236
C38   C     C_R   0.416390 0.723385 0.474750 0.284011
C39   C     C_R   0.557830 0.749612 0.506957 -0.082909
C40   C     C_R   0.609201 0.831613 0.515498 0.208780
C41   C     C_R   0.516110 0.883449 0.490320 -0.018009
C42   C     C_R   0.367886 0.855185 0.463853 -0.168581
C43   C     C_R   0.317394 0.775540 0.456458 -0.068690
C44   C     C_R   0.592171 0.167335 0.462962 0.604592
C45   C     C_3   0.263311 0.787532 0.614592 -0.304792
C46   C     C_R   0.654687 0.245881 0.459793 -0.059407
C47   C     C_R   0.904517 0.222377 0.504933 0.079933
C48   C     C_R   0.846730 0.142596 0.503181 0.005084
C49   C     C_R   0.689852 0.114963 0.483052 -0.001136
C50   C     C_1   0.625746 0.033931 0.486683 0.197344
C51   C     C_1   0.573495 0.965940 0.489116 0.246466
C52   C     C_R   0.811405 0.272524 0.480271 -0.231760
C53   C     C_3   0.119545 0.293763 0.339068 0.189353
C54   C     C_3   0.029727 0.232062 0.295787 0.239538
C55   C     C_3   0.722178 0.637733 0.648179 0.311624
C56   C     C_3   0.746414 0.665287 0.712557 -0.310790
H1    H     H_    0.768471 0.734743 0.379254 0.044773
H2    H     H_    0.365592 0.795654 0.646117 0.143607
H3    H     H_    0.297568 0.820657 0.576136 0.050621
H4    H     H_    0.159585 0.811133 0.635646 0.191564
H5    H     H_    0.189514 0.266097 0.370670 0.085784
H6    H     H_    0.207527 0.330085 0.313365 -0.024650
H7    H     H_    0.928358 0.255386 0.275310 0.129691
H8    H     H_    0.111833 0.216408 0.260300 0.074031
H9    H     H_    0.840505 0.631341 0.628959 0.006681
H10   H     H_    0.642273 0.581512 0.644144 -0.007925
H11   H     H_    0.815148 0.724474 0.716613 0.174035
H12   H     H_    0.814633 0.626300 0.735556 0.046176
H13   H     H_    0.628365 0.666700 0.733962 0.120060
H14   H     H_    0.553932 0.725880 0.368617 0.024165
H15   H     H_    0.602302 0.827054 0.293063 0.090231
H16   H     H_    0.699688 0.297773 0.342933 0.002017
H17   H     H_    0.378188 0.212477 0.291191 0.091929
H18   H     H_    0.574033 0.184448 0.279338 0.174901
H19   H     H_    0.484728 0.179011 0.350384 0.102200
H20   H     H_    0.810600 0.839659 0.314586 0.130282
H21   H     H_    0.323439 0.858407 0.255680 -0.029154
H22   H     H_    0.239602 0.263777 0.654591 0.049765
H23   H     H_    0.075706 0.314432 0.677378 0.143085
H24   H     H_    0.961997 0.183471 0.720747 0.145655
H25   H     H_    0.147538 0.154776 0.715534 0.068630
H26   H     H_    0.537571 0.121423 0.685307 0.107891
H27   H     H_    0.365200 0.159538 0.664261 -0.057582
H28   H     H_    0.001656 0.302275 0.936460 0.223036
H29   H     H_    0.246096 0.690123 0.056184 0.154948
H30   H     H_    0.532078 0.551481 0.199042 0.108193
H31   H     H_    0.162627 0.691463 0.954751 0.145211
H32   H     H_    0.174213 0.534819 0.754601 0.103591
H33   H     H_    0.685936 0.459292 0.808477 0.060829
H34   H     H_    0.389360 0.503953 0.373432 0.102303
H35   H     H_    0.322475 0.806827 0.350160 -0.097858
H36   H     H_    0.830995 0.471783 0.622555 0.040755
H37   H     H_    0.291688 0.895114 0.448529 0.187213
H38   H     H_    0.917813 0.103338 0.522597 0.144731
H39   H     H_    0.856310 0.333794 0.481923 0.058462
H40   H     H_    0.328152 0.677215 0.581893 0.021109
H41   H     H_    0.129289 0.694936 0.560135 0.073493
N1    N     N_R   0.983730 0.497163 0.851834 -0.443985
N2    N     N_R   0.259609 0.493872 0.143340 -0.434644
O1    O     O_2   0.894270 0.458150 0.360790 -0.410979
O2    O     O_3   0.650776 0.693482 0.620767 -0.598320
O3    O     O_3   0.074773 0.771106 0.355007 -0.599539
O4    O     O_2   0.295430 0.541870 0.639250 -0.455162
O5    O     O_3   0.054960 0.541130 0.568170 -0.499478
O6    O     O_3   0.526510 0.403350 0.604440 -0.417839
O7    O     O_3   0.154320 0.665131 0.644909 -0.633076
O8    O     O_3   0.623640 0.408350 0.471030 -0.468623
O9    O     O_3   0.112120 0.364170 0.575770 -0.490509
O10   O     O_2   0.228828 0.228613 0.540556 -0.390663
O11   O     O_3   0.024208 0.217439 0.620424 -0.567585
O12   O     O_3   0.134750 0.458940 0.431830 -0.459894
O13   O     O_3   0.566070 0.591710 0.528970 -0.432962
O14   O     O_2   0.362610 0.313970 0.472520 -0.416029
O15   O     O_3   0.480599 0.334711 0.367389 -0.686697
O16   O     O_2   0.397443 0.447977 0.701244 -0.476242
O17   O     O_3   0.460053 0.309187 0.704295 -0.655170
O18   O     O_2   0.059083 0.626726 0.857503 -0.573386
O19   O     O_2   0.894317 0.370417 0.857583 -0.427436
O20   O     O_2   0.271561 0.366281 0.129037 -0.447494
O21   O     O_2   0.283814 0.624405 0.147277 -0.511218
O22   O     O_3   0.663190 0.596710 0.395570 -0.495957
O23   O     O_2   0.817210 0.561856 0.298393 -0.403507
O24   O     O_3   0.009812 0.334685 0.370577 -0.629365
O25   O     O_3   0.681832 0.686903 0.297728 -0.546033
O26   O     O_2   0.827090 0.686050 0.527520 -0.450788
O27   O     O_3   0.077580 0.635890 0.424230 -0.380107
O28   O     O_2   0.992163 0.771190 0.463996 -0.469290
P1    P     P_3+3 0.063260 0.435680 0.369690 1.102009
P2    P     P_3+3 0.650710 0.674870 0.544690 1.108529
P3    P     P_3+3 0.118190 0.738320 0.424172 1.120974
P4    P     P_3+3 0.126450 0.564380 0.630310 0.999597
P5    P     P_3+3 0.072361 0.262652 0.555667 1.104564
P6    P     P_3+3 0.660157 0.591280 0.319272 1.146635
P7    P     P_3+3 0.529215 0.319511 0.439791 1.010147
P8    P     P_3+3 0.536741 0.403145 0.681712 1.053979
S1    S     S_3+6 0.953695 0.145473 0.329485 -0.045681
O29   O     O_2   0.800345 0.157137 0.359673 -0.359663
O30   O     O_2   0.919572 0.080152 0.282971 -0.179709
O31   O     O_3   0.084594 0.122635 0.378904 -0.453460
H42   H     H_    0.187398 0.123367 0.357931 0.371232
F1    F     F_    0.657164 0.871454 0.375990 -0.739897
F2    F     F_    0.578265 0.334308 0.276256 -0.637132
S2    S     S_3+6 0.140630 0.260791 0.790000 0.038469
O32   O     O_2   0.009057 0.239205 0.832295 -0.141558
O33   O     O_2   0.291434 0.240864 0.816160 -0.171362
O34   O     O_3   0.162827 0.356913 0.782126 -0.525020
H43   H     H_    0.242089 0.380273 0.812493 0.331584
S3    S     S_3+6 0.692504 0.260431 0.759590 0.065523
O35   O     O_2   0.732567 0.182365 0.773997 -0.203085
O36   O     O_2   0.840608 0.313167 0.745693 -0.289871
O37   O     O_3   0.605740 0.297900 0.819288 -0.368682
H44   H     H_    0.549000 0.339712 0.806017 0.318122
S4    S     S_3+6 0.658806 0.246807 0.628625 -0.147956
O38   O     O_2   0.727602 0.171868 0.619030 -0.352726
O39   O     O_2   0.535546 0.249298 0.581700 -0.361048
O40   O     O_3   0.803629 0.321825 0.625205 -0.574779
H45   H     H_    0.786850 0.343392 0.587219 0.304425
S5    S     S_3+6 0.258613 0.698835 0.284393 -0.080273
O41   O     O_2   0.302108 0.649382 0.330976 -0.391697
O42   O     O_2   0.115700 0.656519 0.251150 -0.217195
O43   O     O_3   0.414675 0.716012 0.239233 -0.521055
H46   H     H_    0.377299 0.746644 0.208412 0.371821
F3    F     F_    0.405376 0.147888 0.751730 -0.611470
S6    S     S_3+6 0.143015 0.257196 0.036500 0.053720
O44   O     O_2   0.316544 0.251417 0.048477 -0.189518
O45   O     O_2   0.047128 0.241476 0.090725 -0.172802
O46   O     O_3   0.075894 0.189385 0.983034 -0.457641
H47   H     H_    0.086824 0.139098 0.999317 0.392889
S7    S     S_3+6 0.979610 0.422240 0.215025 -0.020352
O47   O     O_2   0.997040 0.342399 0.189138 -0.220507
O48   O     O_2   0.845528 0.414254 0.257470 -0.229603
O49   O     O_3   0.925809 0.474875 0.161228 -0.495560
H48   H     H_    0.916610 0.526708 0.180590 0.360161
F4    F     F_    0.435805 0.142623 0.449271 -0.685175
S8    S     S_3+6 0.779676 0.874581 0.558934 -0.030699
O50   O     O_2   0.723032 0.930932 0.604420 -0.253816
O51   O     O_2   0.863573 0.818148 0.589782 -0.260912
O52   O     O_3   0.913290 0.925044 0.516528 -0.468799
H49   H     H_    0.885071 0.905388 0.475711 0.361386
F5    F     F_    0.368815 0.646178 0.464303 -0.700758
S9    S     S_3+6 0.051075 0.835285 0.225374 -0.002085
O53   O     O_2   0.125853 0.823128 0.166428 -0.253847
O54   O     O_2   0.934898 0.764657 0.235958 -0.263982
O55   O     O_3   0.949089 0.911922 0.224332 -0.448009
H50   H     H_    0.861818 0.895889 0.195182 0.375003
S10   S     S_3+6 0.212056 0.944396 0.320375 0.002440
O56   O     O_2   0.366702 0.963332 0.354396 -0.260763
O57   O     O_2   0.204258 0.006497 0.278454 -0.196927
O58   O     O_3   0.058069 0.942450 0.367297 -0.490062
H51   H     H_    0.970122 0.960676 0.345642 0.412542

loop_
_geom_bond_atom_site_label_1
_geom_bond_atom_site_label_2
_ccdc_geom_bond_type
C47   P5    S    
Ba2   O8    S    
S4    O39   D    
C6    H25   S    
O13   P2    S    
C17   C18   A    
Ba1   O27   S    
C13   N1    Am   
C53   C54   S    
C45   H4    S    
Ba1   O22   S    
S2    O32   D    
C5    C6    S    
C8    H27   S    
C42   C43   A    
C46   C52   A    
S7    O48   D    
S10   O58   S    
C6    H24   S    
C3    C4    S    
C26   C27   S    
C33   C35   A    
C31   H30   S    
C22   C24   A    
Ba1   Ba2   S    
C36   N2    S    
C17   H29   S    
S9    O54   D    
C24   N2    Am   
C28   C29   D    
Ba2   O12   S    
C56   H13   S    
C34   O7    S    
O14   P7    D    
C40   S8    S    
C13   C14   A    
Ba2   O6    S    
C5    O11   S    
C34   C45   S    
S10   O57   D    
C16   C17   A    
C39   C40   A    
C3    H16   S    
O49   H48   S    
C4    H19   S    
Ba1   O8    S    
C45   H2    S    
C9    H34   S    
C41   C51   S    
O5    P4    S    
C6    S2    S    
C14   C15   A    
S8    O51   D    
S3    O37   S    
C53   H5    S    
C10   C15   A    
C21   C22   A    
C52   H39   S    
C24   O20   D    
S7    O47   D    
C26   H33   S    
O17   P8    S    
C7    C8    S    
C12   H35   S    
Ba1   O5    S    
O28   P3    D    
C29   H32   S    
C47   C52   A    
Ba1   O13   S    
S4    O40   S    
S6    O45   D    
C7    O17   S    
Ba1   O12   S    
C55   H9    S    
O27   P3    S    
C11   O18   D    
C25   O21   D    
C48   C49   A    
C38   F5    S    
C20   C21   A    
O22   P6    S    
C38   C43   A    
C55   O2    S    
S7    O49   S    
C44   C46   A    
C7    S3    S    
Ba2   P4    S    
O12   P1    S    
S2    O33   D    
C49   C50   S    
O46   H47   S    
C53   O24   S    
C4    H17   S    
C1    F1    S    
O34   H43   S    
Ba1   P1    S    
S9    O55   S    
C39   P2    S    
C56   H12   S    
C3    F2    S    
C44   C49   A    
Ba2   O5    S    
C15   C19   A    
C30   N1    S    
C12   S5    S    
S10   O56   D    
S5    O42   D    
O6    P8    S    
C41   C42   A    
S5    O43   S    
C37   H36   S    
C45   H3    S    
C35   C36   A    
C23   S10   S    
C21   S6    S    
C54   S1    S    
Ba2   O14   S    
C12   O3    S    
C29   C30   S    
C26   C30   D    
C28   P4    S    
C53   H6    S    
C27   C37   S    
C31   C32   A    
S9    O53   D    
C56   H11   S    
C10   C11   A    
C33   P1    S    
S1    O30   D    
C43   P3    S    
C38   C39   A    
C5    H23   S    
O25   P6    S    
C47   C48   A    
C3    O15   S    
O40   H45   S    
C44   F4    S    
O9    P5    S    
C40   C41   A    
C55   H10   S    
C1    C2    S    
C2    H14   S    
S2    O34   S    
C50   C51   T    
O4    P4    D    
O58   H51   S    
Ba2   O9    S    
C14   C20   A    
O23   P6    D    
C23   H21   S    
C16   H31   S    
C46   P7    S    
C9    C32   A    
O16   P8    D    
Ba1   O26   S    
O11   P5    S    
S8    O52   S    
Ba1   P2    S    
S1    O31   S    
C35   S7    S    
O10   P5    D    
C4    H18   S    
O15   P7    S    
C18   C25   A    
C27   P8    S    
Ba2   O4    S    
C13   O19   D    
C31   C36   A    
C2    O25   S    
S5    O41   D    
C11   N1    Am   
C9    C33   A    
O37   H44   S    
O7    P4    S    
C42   H37   S    
O31   H42   S    
Ba2   O13   S    
C48   H38   S    
C55   C56   S    
S6    O44   D    
C32   P6    S    
C8    F3    S    
C54   H8    S    
C2    H1    S    
C8    H26   S    
C25   N2    Am   
C28   C37   D    
C34   H41   S    
S3    O36   D    
C20   H28   S    
C12   C23   S    
C1    H15   S    
O26   P2    D    
O43   H46   S    
S1    O29   D    
O24   P1    S    
C23   S9    S    
C18   C19   A    
C7    S4    S    
S6    O46   S    
S8    O50   D    
O3    P3    S    
C19   C22   A    
C10   C16   A    
S4    O38   D    
S3    O35   D    
C34   H40   S    
O55   H50   S    
C1    H20   S    
O2    P2    S    
Ba1   O1    S    
O52   H49   S    
C54   H7    S    
C5    H22   S    
O8    P7    S    
O1    P1    D    
