data_mof_unit_45135.cif
_audit_creation_date              2012-10-26T17:11:26-0400
_audit_creation_method            fapswitch 2.2
_symmetry_space_group_name_H-M    P1
_symmetry_Int_Tables_number       1
_space_group_crystal_system       triclinic
_cell_length_a                    28.017879
_cell_length_b                    18.71338
_cell_length_c                    16.861727
_cell_angle_alpha                 90.295609
_cell_angle_beta                  62.500357
_cell_angle_gamma                 90.416669
_cell_volume                      7841.65079603

loop_
_atom_site_label
_atom_site_type_symbol
_atom_type_description
_atom_site_fract_x
_atom_site_fract_y
_atom_site_fract_z
_atom_type_partial_charge
C1    C     C_R   0.295016 0.728262 0.329755 0.808931
C2    C     C_R   0.587685 0.999448 0.542751 0.072420
C3    C     C_R   0.690430 0.714253 0.903860 0.071309
C4    C     C_R   0.926596 0.902906 0.066436 0.806266
C5    C     C_R   0.073368 0.097091 0.933565 0.811113
C6    C     C_R   0.073559 0.903253 0.933260 0.803972
C7    C     C_R   0.926470 0.096781 0.066717 0.808993
C8    C     C_R   0.426597 0.402905 0.066436 0.806269
C9    C     C_R   0.573368 0.597091 0.933564 0.811117
C10   C     C_R   0.573559 0.403253 0.933260 0.803966
C11   C     C_R   0.426470 0.596781 0.066717 0.808993
C12   C     C_R   0.026969 0.625873 0.575197 0.031308
C13   C     C_R   0.900129 0.500680 0.495745 0.073407
C14   C     C_R   0.960745 0.374599 0.465748 0.031844
C15   C     C_R   0.930297 0.624587 0.559770 0.028662
C16   C     C_R   0.045490 0.371002 0.511331 0.021667
C17   C     C_R   0.526972 0.125872 0.575178 0.031303
C18   C     C_R   0.460752 0.874605 0.465720 0.031845
C19   C     C_R   0.430296 0.124584 0.559765 0.028673
C20   C     C_R   0.545497 0.871008 0.511297 0.021665
C21   C     C_R   0.994415 0.687827 0.597327 -0.049971
C22   C     C_R   0.988175 0.309674 0.458285 -0.047031
C23   C     C_R   0.946104 0.687279 0.589631 -0.049335
C24   C     C_R   0.087678 0.499445 0.542781 0.072428
C25   C     C_R   0.029264 0.307289 0.484470 -0.050653
C26   C     C_R   0.494412 0.187823 0.597322 -0.049971
C27   C     C_R   0.488182 0.809683 0.458257 -0.047035
C28   C     C_R   0.446099 0.187273 0.589636 -0.049337
C29   C     C_R   0.529269 0.807297 0.484441 -0.050652
C30   C     C_R   0.962593 0.563141 0.538166 0.011958
C31   C     C_R   0.020624 0.436063 0.512923 0.012984
C32   C     C_R   0.010003 0.563301 0.548222 0.010284
C33   C     C_R   0.975999 0.437055 0.495828 0.009100
C34   C     C_R   0.462596 0.063141 0.538148 0.011958
C35   C     C_R   0.585559 0.870717 0.538564 -0.231373
C36   C     C_R   0.520632 0.936069 0.512889 0.012987
C37   C     C_R   0.510008 0.063302 0.548197 0.010279
C38   C     C_R   0.476006 0.937060 0.495798 0.009100
C39   C     C_R   0.446582 0.000547 0.508955 -0.019403
C40   C     C_R   0.539307 0.999709 0.534948 -0.018648
C41   C     C_R   0.946577 0.500545 0.508977 -0.019402
C42   C     C_R   0.039299 0.499706 0.534980 -0.018648
C43   C     C_R   0.383863 0.937718 0.467867 0.041525
C44   C     C_R   0.609751 0.064322 0.554511 0.041850
C45   C     C_R   0.613092 0.933980 0.540360 0.041320
C46   C     C_R   0.382076 0.121530 0.553004 -0.232238
C47   C     C_R   0.369198 0.063135 0.512685 0.039411
C48   C     C_R   0.883861 0.437717 0.467881 0.041528
C49   C     C_R   0.109746 0.564321 0.554536 0.041853
C50   C     C_R   0.113086 0.433977 0.540387 0.041315
C51   C     C_R   0.869198 0.563137 0.512693 0.039414
C52   C     C_R   0.333345 0.935960 0.466372 -0.115126
C53   C     C_R   0.663413 0.065059 0.544581 -0.113823
C54   C     C_R   0.664658 0.934377 0.539162 -0.111493
C55   C     C_R   0.325777 0.064279 0.490372 -0.111336
C56   C     C_R   0.833345 0.435960 0.466378 -0.115126
C57   C     C_R   0.417897 0.878101 0.444646 -0.227200
C58   C     C_R   0.163411 0.565059 0.544593 -0.113821
C59   C     C_R   0.164654 0.434376 0.539176 -0.111494
C60   C     C_R   0.825778 0.564280 0.490376 -0.111334
C61   C     C_R   0.307350 0.000245 0.471307 -0.274545
C62   C     C_R   0.688858 0.999912 0.539785 -0.277300
C63   C     C_R   0.807352 0.500246 0.471310 -0.274548
C64   C     C_R   0.188856 0.499912 0.539794 -0.277294
C65   C     C_R   0.556933 0.738635 0.478850 0.101767
C66   C     C_R   0.530989 0.684898 0.542457 -0.143702
C67   C     C_R   0.556871 0.620008 0.536612 -0.147484
C68   C     C_R   0.576627 0.125444 0.578042 -0.230082
C69   C     C_R   0.608604 0.608374 0.467154 -0.119140
C70   C     C_R   0.634535 0.661607 0.403419 -0.087332
C71   C     C_R   0.608933 0.726735 0.409312 -0.133449
C72   C     C_R   0.413338 0.253449 0.610019 0.100264
C73   C     C_R   0.386182 0.279176 0.698066 -0.140909
C74   C     C_R   0.354895 0.340852 0.717292 -0.157131
C75   C     C_R   0.350559 0.377237 0.648738 -0.110072
C76   C     C_R   0.377798 0.352247 0.560771 -0.087376
C77   C     C_R   0.409243 0.290677 0.541284 -0.149794
C78   C     C_R   0.473143 0.743594 0.425671 0.102324
C79   C     C_R   0.085552 0.370713 0.538597 -0.231376
C80   C     C_R   0.505901 0.718610 0.338621 -0.144248
C81   C     C_R   0.490977 0.657540 0.307077 -0.139665
C82   C     C_R   0.443401 0.621121 0.362253 -0.120572
C83   C     C_R   0.410782 0.645535 0.449193 -0.095329
C84   C     C_R   0.425561 0.706575 0.480987 -0.140873
C85   C     C_R   0.510617 0.253778 0.628200 0.120419
C86   C     C_R   0.532926 0.311876 0.570026 -0.115332
C87   C     C_R   0.547333 0.374274 0.599962 -0.146285
C88   C     C_R   0.539410 0.378979 0.687999 -0.096472
C89   C     C_R   0.517123 0.321262 0.746215 -0.129255
C90   C     C_R   0.882078 0.621535 0.553005 -0.232235
C91   C     C_R   0.502864 0.258735 0.716456 -0.194686
C92   C     C_R   0.056945 0.238629 0.478844 0.101737
C93   C     C_R   0.031006 0.184854 0.542398 -0.143659
C94   C     C_R   0.056900 0.119966 0.536503 -0.147494
C95   C     C_R   0.108639 0.108369 0.467045 -0.119154
C96   C     C_R   0.134564 0.161638 0.403362 -0.087315
C97   C     C_R   0.108951 0.226765 0.409305 -0.133451
C98   C     C_R   0.913354 0.753463 0.609982 0.100298
C99   C     C_R   0.886186 0.779201 0.698022 -0.140947
C100  C     C_R   0.854905 0.840881 0.717220 -0.157122
C101  C     C_R   0.917895 0.378099 0.444665 -0.227197
C102  C     C_R   0.850587 0.877258 0.648644 -0.110031
C103  C     C_R   0.877837 0.852256 0.560685 -0.087406
C104  C     C_R   0.909277 0.790682 0.541226 -0.149750
C105  C     C_R   0.973139 0.243586 0.425688 0.102312
C106  C     C_R   0.005905 0.218599 0.338640 -0.144206
C107  C     C_R   0.990985 0.157534 0.307083 -0.139680
C108  C     C_R   0.943404 0.121119 0.362250 -0.120562
C109  C     C_R   0.910779 0.145531 0.449189 -0.095336
C110  C     C_R   0.925554 0.206567 0.480996 -0.140910
C111  C     C_R   0.010622 0.753781 0.628200 0.120406
C112  C     C_R   0.705017 0.271791 0.670226 0.806288
C113  C     C_R   0.076622 0.625444 0.578066 -0.230123
C114  C     C_R   0.033011 0.811836 0.569983 -0.115392
C115  C     C_R   0.047438 0.874224 0.599907 -0.146179
C116  C     C_R   0.039457 0.878964 0.687974 -0.096509
C117  C     C_R   0.017091 0.821290 0.746233 -0.129313
C118  C     C_R   0.002814 0.758772 0.716486 -0.194607
C119  C     C_R   0.221026 0.767661 0.952993 0.109460
C120  C     C_R   0.779008 0.232256 0.046953 0.109429
C121  C     C_R   0.778800 0.766406 0.047536 0.115950
C122  C     C_R   0.220762 0.233110 0.953208 0.114014
C123  C     C_R   0.721027 0.267663 0.952992 0.109460
C124  C     C_R   0.279008 0.732254 0.046954 0.109429
C125  C     C_R   0.278802 0.266404 0.047533 0.115939
C126  C     C_R   0.720758 0.733116 0.953212 0.114023
C127  C     C_R   0.277607 0.770248 0.910289 -0.174264
C128  C     C_R   0.704990 0.728275 0.670373 0.795244
C129  C     C_R   0.722430 0.229655 0.089644 -0.173293
C130  C     C_R   0.722507 0.773066 0.089080 -0.177425
C131  C     C_R   0.276912 0.225660 0.912096 -0.184565
C132  C     C_R   0.777608 0.270247 0.910287 -0.174261
C133  C     C_R   0.222430 0.729650 0.089643 -0.173296
C134  C     C_R   0.222512 0.273093 0.089063 -0.177431
C135  C     C_R   0.776910 0.725694 0.912087 -0.184564
C136  C     C_R   0.306269 0.752650 0.956716 -0.177054
C137  C     C_R   0.693769 0.247253 0.043219 -0.176737
C138  C     C_R   0.693745 0.756616 0.042292 -0.179128
C139  C     C_R   0.295016 0.271706 0.329657 0.821231
C140  C     C_R   0.305756 0.242581 0.958597 -0.187236
C141  C     C_R   0.806270 0.252648 0.956714 -0.177053
C142  C     C_R   0.193769 0.747248 0.043218 -0.176737
C143  C     C_R   0.193751 0.256642 0.042274 -0.179133
C144  C     C_R   0.805755 0.742613 0.958586 -0.187220
C145  C     C_R   0.144700 0.830053 0.943761 -0.197280
C146  C     C_R   0.855316 0.169905 0.056243 -0.199354
C147  C     C_R   0.855593 0.828410 0.055957 -0.206803
C148  C     C_R   0.144176 0.171531 0.944185 -0.201746
C149  C     C_R   0.644701 0.330054 0.943760 -0.197276
C150  C     C_R   0.795016 0.228262 0.329755 0.808930
C151  C     C_R   0.355316 0.669905 0.056243 -0.199356
C152  C     C_R   0.355596 0.328405 0.055954 -0.206796
C153  C     C_R   0.644174 0.671532 0.944186 -0.201749
C154  C     C_R   0.117969 0.852127 0.895014 -0.061248
C155  C     C_R   0.882111 0.147969 0.104939 -0.060801
C156  C     C_R   0.882338 0.851210 0.104582 -0.059992
C157  C     C_R   0.117559 0.148780 0.895422 -0.060871
C158  C     C_R   0.617969 0.352127 0.895014 -0.061250
C159  C     C_R   0.382111 0.647969 0.104939 -0.060801
C160  C     C_R   0.382339 0.351208 0.104580 -0.059996
C161  C     C_R   0.205017 0.771791 0.670226 0.806295
C162  C     C_R   0.617558 0.648781 0.895422 -0.060869
C163  C     C_R   0.136672 0.829852 0.806780 -0.235295
C164  C     C_R   0.863534 0.170453 0.193090 -0.228198
C165  C     C_R   0.863690 0.829272 0.192853 -0.227742
C166  C     C_R   0.136275 0.170719 0.807134 -0.227504
C167  C     C_R   0.636672 0.329852 0.806780 -0.235319
C168  C     C_R   0.363534 0.670453 0.193090 -0.228199
C169  C     C_R   0.363690 0.329272 0.192853 -0.227743
C170  C     C_R   0.636274 0.670719 0.807134 -0.227501
C171  C     C_R   0.182477 0.787657 0.765799 -0.056878
C172  C     C_R   0.204991 0.228274 0.670373 0.795244
C173  C     C_R   0.817609 0.212452 0.234147 -0.061410
C174  C     C_R   0.817519 0.787214 0.234166 -0.063260
C175  C     C_R   0.182483 0.212724 0.765901 -0.059501
C176  C     C_R   0.682478 0.287657 0.765799 -0.056872
C177  C     C_R   0.317609 0.712452 0.234147 -0.061410
C178  C     C_R   0.317518 0.287215 0.234166 -0.063261
C179  C     C_R   0.682481 0.712728 0.765902 -0.059501
C180  C     C_R   0.209030 0.765549 0.814633 -0.201639
C181  C     C_R   0.790997 0.234424 0.185342 -0.200414
C182  C     C_R   0.790601 0.764863 0.185656 -0.204358
C183  C     C_R   0.795016 0.771705 0.329657 0.821229
C184  C     C_R   0.209353 0.234968 0.814582 -0.206703
C185  C     C_R   0.709030 0.265549 0.814633 -0.201639
C186  C     C_R   0.290997 0.734423 0.185342 -0.200416
C187  C     C_R   0.290599 0.264866 0.185656 -0.204362
C188  C     C_R   0.709347 0.734976 0.814586 -0.206701
C189  C     C_R   0.196268 0.631790 0.528486 0.805013
C190  C     C_R   0.803143 0.368483 0.473556 0.807282
C191  C     C_R   0.799289 0.631042 0.486168 0.816584
C192  C     C_R   0.197053 0.368465 0.525635 0.813173
C193  C     C_R   0.696269 0.131790 0.528482 0.805013
C194  C     C_R   0.400132 0.000681 0.495730 0.073410
C195  C     C_R   0.303143 0.868482 0.473554 0.807287
C196  C     C_R   0.299289 0.131042 0.486167 0.816589
C197  C     C_R   0.697054 0.868465 0.525631 0.813172
C198  C     C_R   0.190666 0.787029 0.903681 0.071081
C199  C     C_R   0.809361 0.212928 0.096296 0.071023
C200  C     C_R   0.809316 0.785616 0.096499 0.074873
C201  C     C_R   0.190434 0.214247 0.903857 0.071300
C202  C     C_R   0.690666 0.287030 0.903680 0.071082
C203  C     C_R   0.309361 0.712928 0.096296 0.071022
C204  C     C_R   0.309317 0.285614 0.096497 0.074867
Cu1   Cu    Cu3+1 0.209920 0.785290 0.495070 0.940119
Cu2   Cu    Cu3+1 0.504760 0.500000 0.075850 0.919001
Cu3   Cu    Cu3+1 0.995240 0.000000 0.924150 0.915307
Cu4   Cu    Cu3+1 0.004760 0.000000 0.075850 0.919003
Cu5   Cu    Cu3+1 0.790080 0.214710 0.504930 0.917193
Cu6   Cu    Cu3+1 0.790080 0.785290 0.504930 0.923029
Cu7   Cu    Cu3+1 0.209920 0.214710 0.495070 0.934261
Cu8   Cu    Cu3+1 0.709920 0.285290 0.495070 0.940157
Cu9   Cu    Cu3+1 0.290080 0.714710 0.504930 0.917201
Cu10  Cu    Cu3+1 0.290080 0.285290 0.504930 0.923007
Cu11  Cu    Cu3+1 0.709920 0.714710 0.495070 0.934264
Cu12  Cu    Cu3+1 0.495240 0.500000 0.924150 0.915306
H1    H     H_    0.271267 0.000135 0.462919 0.186446
H2    H     H_    0.853464 0.663765 0.583743 0.185745
H3    H     H_    0.911704 0.334238 0.408740 0.182390
H4    H     H_    0.088107 0.672225 0.602640 0.184098
H5    H     H_    0.150259 0.743892 0.077560 0.129568
H6    H     H_    0.849780 0.255997 0.922368 0.129147
H7    H     H_    0.849036 0.736129 0.925551 0.125051
H8    H     H_    0.150458 0.263015 0.075340 0.126525
H9    H     H_    0.650260 0.243898 0.077561 0.129569
H10   H     H_    0.349779 0.756001 0.922371 0.129145
H11   H     H_    0.349035 0.236075 0.925573 0.125073
H12   H     H_    0.729237 0.000258 0.533010 0.185477
H13   H     H_    0.650451 0.762968 0.075369 0.126513
H14   H     H_    0.299753 0.787052 0.841260 0.130036
H15   H     H_    0.700286 0.212847 0.158668 0.131613
H16   H     H_    0.700831 0.792199 0.157276 0.125092
H17   H     H_    0.298272 0.205418 0.844463 0.134484
H18   H     H_    0.799754 0.287048 0.841258 0.130037
H19   H     H_    0.200286 0.712840 0.158667 0.131611
H20   H     H_    0.200838 0.292249 0.157249 0.125103
H21   H     H_    0.798273 0.705472 0.844445 0.134469
H22   H     H_    0.131176 0.848695 0.011655 0.148008
H23   H     H_    0.771270 0.500136 0.462917 0.186446
H24   H     H_    0.868793 0.151172 0.988394 0.147827
H25   H     H_    0.869227 0.846455 0.987899 0.148105
H26   H     H_    0.130477 0.153427 0.012233 0.146293
H27   H     H_    0.631177 0.348697 0.011654 0.148008
H28   H     H_    0.368793 0.651172 0.988394 0.147826
H29   H     H_    0.369232 0.346445 0.987893 0.148115
H30   H     H_    0.630476 0.653424 0.012231 0.146289
H31   H     H_    0.116801 0.847860 0.768653 0.174141
H32   H     H_    0.883644 0.152804 0.231058 0.175771
H33   H     H_    0.883877 0.847463 0.230784 0.172123
H34   H     H_    0.229237 0.500258 0.533012 0.185476
H35   H     H_    0.116115 0.152555 0.769145 0.174589
H36   H     H_    0.616800 0.347861 0.768653 0.174133
H37   H     H_    0.383645 0.652804 0.231057 0.175772
H38   H     H_    0.383877 0.347463 0.230784 0.172124
H39   H     H_    0.616116 0.652554 0.769144 0.174589
H40   H     H_    0.244562 0.732497 0.783037 0.145199
H41   H     H_    0.755428 0.267403 0.216955 0.147519
H42   H     H_    0.754542 0.732290 0.217471 0.137759
H43   H     H_    0.245484 0.267397 0.782848 0.156998
H44   H     H_    0.744562 0.232498 0.783036 0.145198
H45   H     H_    0.592089 0.820416 0.561860 0.193809
H46   H     H_    0.255427 0.767402 0.216955 0.147517
H47   H     H_    0.254538 0.232297 0.217471 0.137750
H48   H     H_    0.745476 0.767410 0.782854 0.156978
H49   H     H_    0.490848 0.693364 0.596350 0.122562
H50   H     H_    0.536799 0.578682 0.585800 0.124522
H51   H     H_    0.628542 0.558066 0.462616 0.113841
H52   H     H_    0.674435 0.652315 0.349379 0.127367
H53   H     H_    0.629357 0.767635 0.359585 0.118898
H54   H     H_    0.389271 0.251339 0.751586 0.122516
H55   H     H_    0.333869 0.360276 0.785383 0.139674
H56   H     H_    0.353459 0.163756 0.583749 0.185740
H57   H     H_    0.326150 0.424820 0.663745 0.119133
H58   H     H_    0.374463 0.380509 0.507714 0.114542
H59   H     H_    0.430130 0.271708 0.472923 0.128062
H60   H     H_    0.542667 0.746716 0.295207 0.121908
H61   H     H_    0.516179 0.638602 0.239765 0.136117
H62   H     H_    0.431793 0.574036 0.337607 0.125317
H63   H     H_    0.373936 0.617330 0.491810 0.120533
H64   H     H_    0.399875 0.725353 0.548237 0.123878
H65   H     H_    0.538978 0.308785 0.501852 0.117275
H66   H     H_    0.564511 0.419045 0.555014 0.115096
H67   H     H_    0.411703 0.834238 0.408726 0.182389
H68   H     H_    0.550488 0.427353 0.711099 0.133157
H69   H     H_    0.510800 0.324923 0.814439 0.149818
H70   H     H_    0.485468 0.214388 0.762114 0.127942
H71   H     H_    0.990859 0.193288 0.596287 0.122565
H72   H     H_    0.036832 0.078610 0.585649 0.124544
H73   H     H_    0.128585 0.058061 0.462465 0.113838
H74   H     H_    0.174469 0.152374 0.349320 0.127386
H75   H     H_    0.129370 0.267693 0.359616 0.118918
H76   H     H_    0.889260 0.751370 0.751558 0.122495
H77   H     H_    0.833870 0.860314 0.785305 0.139656
H78   H     H_    0.588110 0.172225 0.602639 0.184071
H79   H     H_    0.826183 0.924844 0.663629 0.119119
H80   H     H_    0.874516 0.880511 0.507612 0.114532
H81   H     H_    0.930172 0.771703 0.472870 0.128054
H82   H     H_    0.042676 0.246701 0.295234 0.121909
H83   H     H_    0.016191 0.138599 0.239770 0.136113
H84   H     H_    0.931800 0.074038 0.337594 0.125318
H85   H     H_    0.873929 0.117331 0.491797 0.120547
H86   H     H_    0.899863 0.225342 0.548245 0.123887
H87   H     H_    0.039112 0.808717 0.501783 0.117268
H88   H     H_    0.064678 0.918963 0.554925 0.115057
H89   H     H_    0.092082 0.320413 0.561894 0.193796
H90   H     H_    0.050551 0.927330 0.711062 0.133168
H91   H     H_    0.010725 0.824979 0.814479 0.149855
H92   H     H_    0.985358 0.714459 0.762176 0.127922
O1    O     O_R   0.255040 0.869590 0.478480 -0.583484
O2    O     O_R   0.817950 0.203450 0.375560 -0.586127
O3    O     O_R   0.817950 0.796550 0.375560 -0.590606
O4    O     O_R   0.182050 0.203450 0.624440 -0.589086
O5    O     O_R   0.682050 0.296550 0.624440 -0.583858
O6    O     O_R   0.317950 0.703450 0.375560 -0.586123
O7    O     O_R   0.317950 0.296550 0.375560 -0.590604
O8    O     O_R   0.682050 0.703450 0.624440 -0.589083
O9    O     O_R   0.250530 0.763330 0.367210 -0.590578
O10   O     O_R   0.749470 0.236670 0.632790 -0.597300
O11   O     O_R   0.749470 0.763330 0.632790 -0.591227
O12   O     O_R   0.744960 0.130410 0.521520 -0.589905
O13   O     O_R   0.250530 0.236670 0.367210 -0.597316
O14   O     O_R   0.750530 0.263330 0.367210 -0.590573
O15   O     O_R   0.249470 0.736670 0.632790 -0.597298
O16   O     O_R   0.249470 0.263330 0.632790 -0.591229
O17   O     O_R   0.750530 0.736670 0.367210 -0.597304
O18   O     O_R   0.177260 0.690030 0.513710 -0.588209
O19   O     O_R   0.822740 0.309970 0.486290 -0.591934
O20   O     O_R   0.822740 0.690030 0.486290 -0.595966
O21   O     O_R   0.177260 0.309970 0.513710 -0.595530
O22   O     O_R   0.677260 0.190030 0.513710 -0.588209
O23   O     O_R   0.744960 0.869590 0.521520 -0.588857
O24   O     O_R   0.322740 0.809970 0.486290 -0.591932
O25   O     O_R   0.322740 0.190030 0.486290 -0.595970
O26   O     O_R   0.677260 0.809970 0.513710 -0.595532
O27   O     O_R   0.051640 0.926880 0.885090 -0.606320
O28   O     O_R   0.948360 0.073120 0.114910 -0.594714
O29   O     O_R   0.948360 0.926880 0.114910 -0.590346
O30   O     O_R   0.051640 0.073120 0.885090 -0.590973
O31   O     O_R   0.551640 0.426880 0.885090 -0.606317
O32   O     O_R   0.448360 0.573120 0.114910 -0.594713
O33   O     O_R   0.448360 0.426880 0.114910 -0.590347
O34   O     O_R   0.255040 0.130410 0.478480 -0.587201
O35   O     O_R   0.551640 0.573120 0.885090 -0.590978
O36   O     O_R   0.940620 0.926560 0.986760 -0.595398
O37   O     O_R   0.059380 0.073440 0.013240 -0.595055
O38   O     O_R   0.059380 0.926560 0.013240 -0.588879
O39   O     O_R   0.940620 0.073440 0.986760 -0.590397
O40   O     O_R   0.440620 0.426560 0.986760 -0.595381
O41   O     O_R   0.559380 0.573440 0.013240 -0.595058
O42   O     O_R   0.559380 0.426560 0.013240 -0.588879
O43   O     O_R   0.440620 0.573440 0.986760 -0.590400
O44   O     O_R   0.755040 0.369590 0.478480 -0.583475
O45   O     O_R   0.244960 0.630410 0.521520 -0.589901
O46   O     O_R   0.244960 0.369590 0.521520 -0.588863
O47   O     O_R   0.755040 0.630410 0.478480 -0.587202
O48   O     O_R   0.182050 0.796550 0.624440 -0.583857

loop_
_geom_bond_atom_site_label_1
_geom_bond_atom_site_label_2
_ccdc_geom_bond_type
C49   C113  A    
C105  C110  A    
C89   H69   S    
C31   C42   A    
C163  H31   S    
C161  O48   A    
C50   C79   A    
C14   C33   A    
C114  C115  A    
C6    O27   A    
C19   C46   A    
C11   C159  S    
C103  H80   S    
C16   C31   A    
C124  C133  A    
Cu2   O42   S    
C43   C194  A    
C81   H61   S    
C50   C59   A    
C122  C143  A    
C61   H1    S    
C83   H63   S    
C52   C61   A    
C63   H23   S    
C181  H41   S    
C106  C107  A    
C80   H60   S    
C24   C42   A    
C108  C109  A    
C195  O24   A    
C134  C143  A    
C13   C51   A    
Cu11  O8    S    
C44   C53   A    
C1    O9    A    
C4    O36   A    
C172  C175  S    
Cu1   O9    S    
C2    C45   A    
C58   C64   A    
C147  C200  A    
C158  C167  A    
C184  H43   S    
C127  C136  A    
C191  O47   A    
C179  C188  A    
C187  C204  A    
C177  C186  A    
C135  H21   S    
C185  C202  A    
C75   C76   A    
C79   H89   S    
Cu6   O11   S    
C101  H3    S    
Cu3   O39   S    
C149  H27   S    
C128  O11   A    
C153  H30   S    
C164  C173  A    
C106  H82   S    
C152  H29   S    
C64   H34   S    
C146  H24   S    
C111  C118  A    
C130  C138  A    
Cu4   O37   S    
C15   C30   A    
C8    O33   A    
Cu8   O22   S    
C112  O5    A    
C46   H56   S    
C4    O29   A    
C96   H74   S    
C72   C73   A    
C69   H51   S    
C70   H52   S    
C18   C38   A    
C128  O8    A    
C57   H67   S    
C193  O22   A    
Cu3   O27   S    
C48   C101  A    
Cu2   O33   S    
C69   C70   A    
C180  C198  A    
C2    C40   A    
Cu9   O45   S    
C88   C89   A    
C98   C99   A    
C196  O25   A    
C134  H20   S    
Cu7   O13   S    
Cu3   O30   S    
C125  C204  S    
C123  C132  A    
C27   C29   A    
C119  C198  S    
C77   H59   S    
C121  C130  A    
C7    O39   A    
C174  C182  A    
C183  O17   A    
C85   C86   A    
C131  H17   S    
C133  C142  A    
C170  H39   S    
C122  C201  S    
C190  O19   A    
C37   C40   A    
C51   C90   A    
C38   C39   A    
C78   C80   A    
C43   C52   A    
C147  H25   S    
C112  O10   A    
Cu6   Cu11  S    
C9    O41   A    
Cu7   O34   S    
C11   O43   A    
C137  H9    S    
C20   C35   A    
C2    C44   A    
C22   C25   A    
C189  O18   A    
C107  C108  A    
C30   C41   A    
C115  H88   S    
C131  C140  A    
C190  O44   A    
C89   C91   A    
C149  C158  A    
C10   C158  S    
C66   C67   A    
C150  O2    A    
C1    O6    A    
C75   H57   S    
C148  H26   S    
C121  C144  A    
Cu8   O5    S    
C82   H62   S    
Cu5   O2    S    
C88   H68   S    
C92   C97   A    
C125  C140  A    
C24   C50   A    
C182  H42   S    
C56   C190  S    
C56   C63   A    
C84   H64   S    
C124  C203  S    
C120  C129  A    
C143  H8    S    
C165  C174  A    
C167  H36   S    
C7    O28   A    
C97   H75   S    
C151  C159  A    
C192  O21   A    
C185  H44   S    
C83   C84   A    
C130  H16   S    
C145  H22   S    
C129  C137  A    
C19   C28   A    
C66   H49   S    
C139  O7    A    
C145  C154  A    
Cu3   O36   S    
C112  C176  S    
Cu6   O23   S    
C29   C65   S    
C10   O42   A    
C99   H76   S    
C181  C199  A    
C122  C131  A    
C132  C141  A    
C25   C92   S    
C32   C42   A    
C184  C201  A    
C142  H5    S    
Cu4   O28   S    
Cu9   O15   S    
C120  C141  A    
C188  H48   S    
C8    O40   A    
C116  H90   S    
C22   C105  S    
C172  O4    A    
C170  C179  A    
C14   C22   A    
C87   H66   S    
C145  C198  A    
C107  H83   S    
C117  C118  A    
C26   C85   S    
C62   H12   S    
C55   C61   A    
C114  H87   S    
C186  C203  A    
C148  C157  A    
C95   H73   S    
C102  C103  A    
C90   H2    S    
C43   C57   A    
Cu1   Cu9   S    
C161  C171  S    
C150  C173  S    
C175  C184  A    
C51   C60   A    
C149  C202  A    
C189  O45   A    
C119  C127  A    
C125  C134  A    
C87   C88   A    
Cu12  O35   S    
C34   C37   A    
C53   C193  S    
C73   C74   A    
C169  C178  A    
C27   C78   S    
C13   C41   A    
C3    C126  S    
C176  C185  A    
C166  C175  A    
C54   C197  S    
C197  O23   A    
C73   H54   S    
Cu10  O46   S    
C168  C177  A    
Cu5   Cu8   S    
C191  O20   A    
Cu9   O6    S    
C144  H7    S    
C146  C155  A    
Cu8   O14   S    
C160  C169  A    
C70   C71   A    
C11   O32   A    
C163  C171  A    
C113  H4    S    
C123  C202  S    
C173  C181  A    
C59   C192  S    
C28   C72   S    
C52   C195  S    
C21   C111  S    
Cu7   O4    S    
C180  H40   S    
C109  H85   S    
C124  C136  A    
Cu2   O41   S    
Cu3   Cu4   S    
C182  C200  A    
C93   H71   S    
C67   H50   S    
C86   C87   A    
C100  H77   S    
C14   C101  A    
C94   H72   S    
C54   C62   A    
C127  H14   S    
C186  H46   S    
Cu12  O40   S    
Cu11  O26   S    
C18   C57   A    
C162  C170  A    
Cu7   O21   S    
C192  O46   A    
C76   H58   S    
C128  C179  S    
C147  C156  A    
C197  O26   A    
C6    C154  S    
C178  C187  A    
C4    C156  S    
C126  C135  A    
Cu11  O47   S    
C21   C23   A    
Cu11  O17   S    
C8    C160  S    
C123  C137  A    
C46   C47   A    
C17   C68   A    
C26   C28   A    
C174  C183  S    
Cu5   O19   S    
Cu1   O1    S    
C74   H55   S    
C105  C106  A    
C166  H35   S    
C153  C162  A    
C16   C79   A    
C33   C41   A    
C35   H45   S    
C36   C38   A    
Cu10  O7    S    
C109  C110  A    
C156  C165  A    
C168  H37   S    
C92   C93   A    
C111  C114  A    
C94   C95   A    
Cu5   O10   S    
C172  O16   A    
C20   C36   A    
C7    C155  S    
C82   C83   A    
C103  C104  A    
C119  C142  A    
C183  O3    A    
C152  C204  A    
C91   H70   S    
Cu6   O3    S    
C115  C116  A    
Cu4   O29   S    
C152  C160  A    
Cu6   O20   S    
C93   C94   A    
C16   C25   A    
C47   C194  A    
C95   C96   A    
C193  O12   A    
C3    C188  A    
C120  C199  S    
C81   C82   A    
C85   C91   A    
C121  C200  S    
C116  C117  A    
C59   C64   A    
C60   C63   A    
C165  H33   S    
C17   C26   A    
Cu4   O38   S    
Cu2   O32   S    
C3    C153  A    
C159  C168  A    
C133  H19   S    
C146  C199  A    
C195  O1    A    
C151  H28   S    
C1    C177  S    
C34   C39   A    
C117  H91   S    
C104  H81   S    
Cu12  O31   S    
C118  H92   S    
C31   C33   A    
C196  O34   A    
C71   H53   S    
C141  H6    S    
C15   C23   A    
C9    O35   A    
C5    O30   A    
C23   C98   S    
C148  C201  A    
C20   C29   A    
C108  H84   S    
C39   C194  A    
C74   C75   A    
C139  O13   A    
C154  C163  A    
C36   C40   A    
C76   C77   A    
Cu1   O48   S    
Cu8   O44   S    
C150  O14   A    
C65   C71   A    
C12   C21   A    
C5    O37   A    
C49   C58   A    
C68   H78   S    
C67   C69   A    
Cu5   O12   S    
C72   C77   A    
C53   C62   A    
C99   C100  A    
C96   C97   A    
Cu7   Cu10  S    
C58   C189  S    
C100  C102  A    
Cu12  O43   S    
C17   C37   A    
C135  C144  A    
C45   C54   A    
C110  H86   S    
C171  C180  A    
C44   C68   A    
C10   O31   A    
C47   C55   A    
C12   C113  A    
Cu2   Cu12  S    
C24   C49   A    
C48   C56   A    
C136  H10   S    
C126  C138  A    
C140  H11   S    
Cu9   O24   S    
Cu10  O16   S    
C169  H38   S    
C138  H13   S    
C18   C27   A    
C151  C203  A    
C80   C81   A    
C19   C34   A    
C157  C166  A    
C13   C48   A    
C102  H79   S    
C155  C164  A    
Cu1   O18   S    
C129  H15   S    
C5    C157  S    
C139  C178  S    
C15   C90   A    
C30   C32   A    
C60   C191  S    
C98   C104  A    
Cu10  O25   S    
C187  H47   S    
C86   H65   S    
C55   C196  S    
C9    C162  S    
C164  H32   S    
C78   C84   A    
C161  O15   A    
C65   C66   A    
C6    O38   A    
C132  H18   S    
C12   C32   A    
C167  C176  A    
C35   C45   A    
