data_mof_unit_60900.cif
_audit_creation_date              2012-12-10T22:09:13-0500
_audit_creation_method            fapswitch 2.2
_symmetry_space_group_name_H-M    P1
_symmetry_Int_Tables_number       1
_space_group_crystal_system       triclinic
_cell_length_a                    16.429123
_cell_length_b                    16.563678
_cell_length_c                    28.774997
_cell_angle_alpha                 90.072082
_cell_angle_beta                  90.506085
_cell_angle_gamma                 90.526074
_cell_volume                      7829.80253147

loop_
_atom_site_label
_atom_site_type_symbol
_atom_type_description
_atom_site_fract_x
_atom_site_fract_y
_atom_site_fract_z
_atom_type_partial_charge
C1    C     C_R   0.616846 0.998099 0.560742 0.892965
C2    C     C_R   0.272023 0.932784 0.396455 -0.269877
C3    C     C_R   0.768484 0.079966 0.354251 0.485117
C4    C     C_R   0.613476 0.001930 0.438903 0.894444
C5    C     C_R   0.705835 0.077716 0.386847 -0.303400
C6    C     C_3   0.995534 0.009005 0.253831 -0.009561
C7    C     C_R   0.194790 0.000601 0.337235 0.101944
C8    C     C_R   0.319865 0.002658 0.403077 -0.087385
C9    C     C_R   0.801629 0.006988 0.339268 0.096370
C10   C     C_R   0.677334 0.003449 0.404049 -0.079409
C11   C     C_R   0.995144 0.208038 0.172581 0.002479
C12   C     C_R   0.050610 0.335137 0.145158 0.242368
C13   C     C_R   0.992894 0.333428 0.108488 -0.188852
C14   C     C_R   0.985960 0.819662 0.165135 0.154976
C15   C     C_R   0.986003 0.693643 0.101376 -0.035157
C16   C     C_R   0.385964 0.998166 0.560777 0.842468
C17   C     C_1   0.068230 0.004489 0.282031 0.018513
C18   C     C_1   0.996841 0.082149 0.226877 0.015813
C19   C     C_1   0.925515 0.008481 0.283426 0.011498
C20   C     C_1   0.990722 0.940760 0.222913 -0.026130
C21   C     C_1   0.126996 0.001893 0.306565 -0.020725
C22   C     C_1   0.987277 0.884997 0.196770 -0.061906
C23   C     C_R   0.911941 0.788416 0.148604 -0.160337
C24   C     C_1   0.996801 0.140953 0.203069 0.112516
C25   C     C_1   0.868269 0.007696 0.308495 0.033701
C26   C     C_R   0.009887 0.082476 0.786032 -0.197834
C27   C     C_R   0.034017 0.153268 0.809993 0.181200
C28   C     C_R   0.384087 0.001946 0.438617 0.916527
C29   C     C_R   0.092107 0.871887 0.798389 0.460609
C30   C     C_R   0.081464 0.815964 0.834575 -0.315776
C31   C     C_R   0.925096 0.048630 0.690520 -0.326913
C32   C     C_R   0.854638 0.055600 0.662752 0.465637
C33   C     C_R   0.110955 0.846951 0.690928 -0.247378
C34   C     C_R   0.911867 0.725223 0.116680 -0.196013
C35   C     C_R   0.155992 0.817620 0.653206 0.381565
C36   C     C_R   0.117155 0.981717 0.659020 -0.327930
C37   C     C_R   0.162090 0.953356 0.621027 0.374351
C38   C     C_R   0.912328 0.903198 0.688059 -0.173205
C39   C     C_R   0.841247 0.908369 0.660725 0.089443
C40   C     C_R   0.242532 0.070017 0.342616 -0.257990
C41   C     C_R   0.144193 0.069764 0.753287 -0.121407
C42   C     C_R   0.168972 0.139602 0.776695 -0.212885
C43   C     C_R   0.945199 0.882597 0.791816 -0.297938
C44   C     C_R   0.934219 0.825931 0.827721 0.178849
C45   C     C_R   0.059751 0.788630 0.150195 -0.161009
C46   C     C_3   0.033809 0.961648 0.732858 0.034206
C47   C     C_R   0.063351 0.041044 0.756304 0.093929
C48   C     C_R   0.114688 0.181777 0.804645 0.076743
C49   C     C_R   0.023218 0.902140 0.774271 0.010908
C50   C     C_R   0.003772 0.791650 0.848398 0.053182
C51   C     C_R   0.953613 0.972525 0.704832 -0.008011
C52   C     C_R   0.305892 0.071848 0.375537 0.446464
C53   C     C_R   0.812841 0.985596 0.648134 0.033368
C54   C     C_R   0.092693 0.929813 0.695292 0.112470
C55   C     C_R   0.181316 0.871133 0.618337 0.023627
C56   C     C_R   0.059912 0.725792 0.118405 -0.180978
C57   C     C_1   0.997214 0.730863 0.884063 -0.050939
C58   C     C_1   0.993529 0.679365 0.913498 -0.188772
C59   C     C_1   0.143612 0.253739 0.828201 -0.067553
C60   C     C_1   0.167683 0.313789 0.847887 -0.019188
C61   C     C_1   0.742311 0.993134 0.618232 0.024677
C62   C     C_1   0.684379 0.996689 0.592448 -0.171385
C63   C     C_1   0.224399 0.840700 0.578530 0.113684
C64   C     C_R   0.772725 0.932969 0.355676 -0.258952
C65   C     C_1   0.259799 0.814949 0.545198 0.030645
C66   C     C_R   0.987442 0.626961 0.068231 0.864505
C67   C     C_R   0.938959 0.206334 0.136163 -0.374990
C68   C     C_R   0.992971 0.397347 0.073594 1.011381
C69   C     C_R   0.992533 0.617663 0.948310 0.896797
C70   C     C_R   0.998165 0.387077 0.953691 0.755652
C71   C     C_R   0.710592 0.931079 0.387977 -0.187920
C72   C     C_R   0.049553 0.272678 0.178702 0.374367
C73   C     C_3   0.976270 0.199220 0.841430 -0.413094
C74   C     C_3   0.890062 0.164326 0.845326 -0.876827
C75   C     C_3   0.794929 0.833314 0.644067 -0.385044
C76   C     C_3   0.827873 0.752218 0.660868 -0.871743
C77   C     C_3   0.850071 0.800726 0.844714 -0.382077
C78   C     C_R   0.936515 0.269252 0.104066 0.387848
C79   C     C_3   0.777575 0.838789 0.819509 -0.888388
C80   C     C_R   0.209552 0.931908 0.363716 -0.158550
H1    H     H_    0.799025 0.876813 0.343943 0.159595
H2    H     H_    0.958400 0.103028 0.699600 0.150435
H3    H     H_    0.087776 0.803772 0.715723 0.138939
H4    H     H_    0.099644 0.044571 0.659964 0.153772
H5    H     H_    0.936701 0.844931 0.697075 0.168505
H6    H     H_    0.189637 0.037774 0.733797 0.179087
H7    H     H_    0.892659 0.912397 0.777602 0.186617
H8    H     H_    0.854228 0.701281 0.104039 0.160512
H9    H     H_    0.117957 0.702509 0.107245 0.165776
H10   H     H_    0.281886 0.879208 0.417236 0.180972
H11   H     H_    0.680018 0.133814 0.398940 0.164292
H12   H     H_    0.854693 0.812982 0.160239 0.137990
H13   H     H_    0.229780 0.122814 0.321624 0.152634
H14   H     H_    0.336523 0.181924 0.358855 0.333697
H15   H     H_    0.112933 0.329763 0.225878 0.344726
H16   H     H_    0.768736 0.197334 0.351341 0.334191
H17   H     H_    0.859437 0.163312 0.810750 0.261070
H18   H     H_    0.891651 0.102500 0.860207 0.262589
H19   H     H_    0.853913 0.202932 0.868861 0.259178
H20   H     H_    0.003180 0.201859 0.876989 0.208293
H21   H     H_    0.971254 0.262157 0.828422 0.207541
H22   H     H_    0.861969 0.173024 0.662100 0.331000
H23   H     H_    0.117098 0.813209 0.162995 0.140554
H24   H     H_    0.152370 0.707228 0.676362 0.335726
H25   H     H_    0.168145 0.060020 0.592902 0.339914
H26   H     H_    0.890243 0.742470 0.647494 0.264038
H27   H     H_    0.828044 0.749496 0.699449 0.257116
H28   H     H_    0.788074 0.702703 0.647502 0.258107
H29   H     H_    0.730848 0.837606 0.655849 0.210232
H30   H     H_    0.794357 0.832689 0.605436 0.217586
H31   H     H_    0.777988 0.905296 0.824549 0.259904
H32   H     H_    0.778646 0.823951 0.781848 0.262805
H33   H     H_    0.720115 0.814308 0.834130 0.258138
H34   H     H_    0.897370 0.155417 0.132563 0.166467
H35   H     H_    0.843806 0.734114 0.841121 0.211435
H36   H     H_    0.845652 0.815767 0.882263 0.212550
H37   H     H_    0.210182 0.870182 0.805737 0.332921
H38   H     H_    0.157085 0.378403 0.162129 0.346122
H39   H     H_    0.847541 0.218339 0.069190 0.336296
H40   H     H_    0.171884 0.878258 0.359631 0.150609
H41   H     H_    0.134254 0.790651 0.851889 0.152783
H42   H     H_    0.689344 0.873177 0.400711 0.171628
H43   H     H_    0.231393 0.160391 0.773363 0.155260
H44   H     H_    0.948973 0.058533 0.789870 0.161793
O1    O     O_R   0.589050 0.066000 0.546390 -0.598794
O2    O     O_R   0.586750 0.068930 0.454890 -0.613130
O3    O     O_R   0.587650 0.931070 0.545110 -0.619417
O4    O     O_R   0.413250 0.931070 0.545110 -0.617619
O5    O     O_R   0.412350 0.068930 0.454890 -0.546269
O6    O     O_R   0.410950 0.934000 0.453610 -0.636873
O7    O     O_R   0.414650 0.066000 0.546390 -0.608252
O8    O     O_R   0.056930 0.600420 0.055130 -0.616328
O9    O     O_3   0.354705 0.139670 0.380918 -0.751219
O10   O     O_3   0.099613 0.273131 0.217550 -0.765470
O11   O     O_3   0.798751 0.152027 0.337114 -0.761568
O12   O     O_R   0.924600 0.421430 0.056650 -0.573684
O13   O     O_3   0.826227 0.130122 0.648825 -0.755969
O14   O     O_3   0.174090 0.736615 0.649081 -0.760472
O15   O     O_3   0.186203 0.004453 0.585711 -0.791290
O16   O     O_3   0.169197 0.896790 0.785582 -0.783721
O17   O     O_3   0.106473 0.397944 0.147170 -0.754738
O18   O     O_3   0.882164 0.267546 0.067099 -0.743479
O19   O     O_R   0.061270 0.426220 0.059090 -0.575564
O20   O     O_R   0.920260 0.595630 0.052680 -0.627664
O21   O     O_R   0.924170 0.588160 0.962540 -0.615599
O22   O     O_R   0.065180 0.418740 0.968950 -0.607638
O23   O     O_R   0.928510 0.413960 0.966510 -0.587450
O24   O     O_R   0.060840 0.592940 0.964990 -0.610061
O25   O     O_R   0.585350 0.934000 0.453610 -0.626153
Zn1   Zn    Zn3+2 0.500940 0.090730 0.500860 1.021109
Zn2   Zn    Zn3+2 0.499060 0.909270 0.499140 0.960166
Zn3   Zn    Zn3+2 0.084620 0.510410 0.012460 0.995225
Zn4   Zn    Zn3+2 0.900820 0.503970 0.009170 0.994149

loop_
_geom_bond_atom_site_label_1
_geom_bond_atom_site_label_2
_ccdc_geom_bond_type
C27   C48   A    
C73   H20   S    
C63   C65   T    
C9    C64   A    
C69   O21   A    
C41   C42   A    
C71   H42   S    
C40   H13   S    
C75   C76   S    
H38   O17   S    
C1    C62   S    
C80   H40   S    
C57   C58   T    
C9    C25   S    
C74   H18   S    
C29   C49   A    
C4    O25   A    
C46   C49   S    
C26   C27   A    
C31   H2    S    
C79   H32   S    
C18   C24   T    
C36   C37   A    
C67   H34   S    
C1    O1    A    
O25   Zn2   S    
C35   O14   S    
C38   C39   A    
C66   O20   A    
C11   C24   S    
H14   O9    S    
C12   O17   S    
C68   O19   A    
C28   O5    A    
C73   C74   S    
C64   C71   A    
O20   Zn4   S    
C2    H10   S    
C16   O7    A    
C45   H23   S    
O3    Zn2   S    
C13   C78   A    
C53   C61   S    
C45   C56   A    
O5    Zn1   S    
C55   C63   S    
C7    C40   A    
C70   O22   A    
C39   C75   S    
H16   O11   S    
C77   H36   S    
C8    C52   A    
C15   C34   A    
C28   O6    A    
O21   Zn4   S    
C10   C71   A    
C73   H21   S    
C12   C72   A    
C59   C60   T    
C76   H28   S    
C52   O9    S    
C67   C78   A    
C26   H44   S    
O23   Zn4   S    
C11   C67   A    
C42   H43   S    
C14   C45   A    
C66   O8    A    
C77   C79   S    
C6    C18   S    
C75   H29   S    
C38   H5    S    
C35   C55   A    
O24   Zn3   S    
C68   O12   A    
C36   C54   A    
C11   C72   A    
C43   C49   A    
C42   C48   A    
C38   C51   A    
C40   C52   A    
C15   C66   S    
C46   C51   S    
H15   O10   S    
C17   C21   T    
H22   O13   S    
C14   C23   A    
C43   C44   A    
C29   C30   A    
C3    C9    A    
H25   O15   S    
C16   O4    A    
O4    Zn2   S    
C72   O10   S    
C31   C32   A    
C30   H41   S    
C23   C34   A    
C46   C54   S    
C41   C47   A    
C34   H8    S    
C33   H3    S    
C5    H11   S    
C26   C47   A    
O22   Zn3   S    
O19   Zn3   S    
C20   C22   T    
C76   H27   S    
C79   H33   S    
O8    Zn3   S    
H37   O16   S    
C4    C10   S    
C6    C17   S    
C32   C53   A    
C48   C59   S    
C44   C50   A    
C33   C54   A    
C69   O24   A    
C29   O16   S    
C46   C47   S    
C56   H9    S    
C75   H30   S    
C76   H26   S    
C50   C57   S    
C2    C8    A    
C1    O3    A    
C31   C51   A    
C3    C5    A    
C27   C73   S    
C58   C69   S    
C74   H19   S    
C79   H31   S    
C6    C20   S    
C4    O2    A    
C43   H7    S    
C15   C56   A    
C14   C22   S    
C2    C80   A    
C78   O18   S    
C32   O13   S    
C7    C21   S    
O12   Zn4   S    
O2    Zn1   S    
C44   C77   S    
C39   C53   A    
C36   H4    S    
C8    C28   S    
C33   C35   A    
H24   O14   S    
C3    O11   S    
C30   C50   A    
C61   C62   T    
C19   C25   T    
C64   H1    S    
C41   H6    S    
O1    Zn1   S    
C37   C55   A    
C5    C10   A    
C12   C13   A    
C37   O15   S    
O6    Zn2   S    
H39   O18   S    
C23   H12   S    
O7    Zn1   S    
C70   O23   A    
C77   H35   S    
C6    C19   S    
C74   H17   S    
C7    C80   A    
C13   C68   S    
