data_mof_unit_14080.cif
_audit_creation_date              2012-12-11T14:08:28-0500
_audit_creation_method            fapswitch 2.2
_symmetry_space_group_name_H-M    P1
_symmetry_Int_Tables_number       1
_space_group_crystal_system       triclinic
_cell_length_a                    28.216919
_cell_length_b                    7.192478
_cell_length_c                    17.190476
_cell_angle_alpha                 90.000509
_cell_angle_beta                  101.942844
_cell_angle_gamma                 90.000079
_cell_volume                      3413.28294789

loop_
_atom_site_label
_atom_site_type_symbol
_atom_type_description
_atom_site_fract_x
_atom_site_fract_y
_atom_site_fract_z
_atom_type_partial_charge
O1    O     O_R   0.000700 0.436510 0.857920 -0.533125
O2    O     O_R   0.999300 0.563490 0.142080 -0.533119
O3    O     O_R   0.999300 0.936510 0.642080 -0.533121
O4    O     O_R   0.000700 0.063490 0.357920 -0.533126
O5    O     O_R   0.930080 0.766380 0.721890 -0.542286
O6    O     O_R   0.069920 0.233620 0.278110 -0.542520
O7    O     O_R   0.069920 0.266380 0.778110 -0.542521
O8    O     O_R   0.930080 0.733620 0.221890 -0.542287
C1    C     C_R   0.910570 0.597640 0.708968 0.696558
C2    C     C_R   0.089436 0.402266 0.291057 0.696547
C3    C     C_R   0.089436 0.097734 0.791057 0.696546
C4    C     C_R   0.910570 0.902359 0.208967 0.696557
O9    O     O_R   0.996180 0.766230 0.862310 -0.543078
O10   O     O_R   0.003820 0.233770 0.137690 -0.543064
O11   O     O_R   0.003820 0.266230 0.637690 -0.543064
O12   O     O_R   0.996180 0.733770 0.362310 -0.543078
O13   O     O_R   0.065870 0.936460 0.783500 -0.539417
O14   O     O_R   0.934130 0.063540 0.216500 -0.539522
O15   O     O_R   0.934130 0.436460 0.716500 -0.539522
O16   O     O_R   0.065870 0.563540 0.283500 -0.539417
C5    C     C_R   0.998485 0.596453 0.894489 0.761532
C6    C     C_R   0.001515 0.403547 0.105510 0.761615
C7    C     C_R   0.001515 0.096452 0.605511 0.761618
C8    C     C_R   0.998485 0.903548 0.394489 0.761535
O17   O     O_3   0.022790 0.603020 0.723980 -0.378114
O18   O     O_3   0.977210 0.396980 0.276020 -0.378121
O19   O     O_3   0.977210 0.103020 0.776020 -0.378121
O20   O     O_3   0.022790 0.896980 0.223980 -0.378113
V1    V     V_3+5 0.995770 0.877900 0.754830 1.412598
V2    V     V_3+5 0.004230 0.122100 0.245170 1.412340
V3    V     V_3+5 0.004230 0.377900 0.745170 1.412339
V4    V     V_3+5 0.995770 0.622100 0.254830 1.412599
C9    C     C_2   0.001706 0.082664 0.519563 -0.329682
C10   C     C_2   0.998293 0.917336 0.480436 -0.329666
C11   C     C_2   0.998293 0.582664 0.980437 -0.329663
C12   C     C_2   0.001706 0.417335 0.019563 -0.329679
H1    H     H_    0.004499 0.211532 0.487875 0.153662
H2    H     H_    0.995500 0.788468 0.512124 0.153665
H3    H     H_    0.995500 0.711532 0.012126 0.153664
H4    H     H_    0.004499 0.288468 0.987874 0.153661
C13   C     C_R   0.682835 0.898637 0.027706 0.615225
C14   C     C_R   0.318124 0.126461 0.968189 0.614765
C15   C     C_R   0.318128 0.373433 0.468171 0.614765
C16   C     C_R   0.682834 0.601375 0.527710 0.615224
O21   O     O_2   0.712034 0.843418 0.979123 -0.480478
O22   O     O_2   0.289486 0.195900 0.014990 -0.482501
O23   O     O_2   0.289493 0.303871 0.514951 -0.482508
O24   O     O_2   0.712031 0.656636 0.479132 -0.480480
N1    N     N_R   0.703055 0.942915 0.104949 -0.572152
N2    N     N_R   0.297200 0.063203 0.893811 -0.570737
N3    N     N_R   0.297201 0.436795 0.393812 -0.570726
N4    N     N_R   0.703055 0.557076 0.604950 -0.572152
C17   C     C_R   0.674929 0.000300 0.156293 0.574207
C18   C     C_R   0.324792 0.990043 0.844631 0.574686
C19   C     C_R   0.324791 0.510062 0.344652 0.574696
C20   C     C_R   0.674929 0.499671 0.656293 0.574214
C21   C     C_R   0.782446 0.094673 0.149948 -0.082370
C22   C     C_R   0.217699 0.908245 0.854113 -0.080719
C23   C     C_R   0.221544 0.255696 0.354471 -0.076693
C24   C     C_R   0.778484 0.740846 0.640672 -0.076242
C25   C     C_R   0.832819 0.085070 0.175117 -0.191141
C26   C     C_R   0.167273 0.916343 0.829150 -0.192339
C27   C     C_R   0.171118 0.247166 0.329407 -0.189595
C28   C     C_R   0.828886 0.750948 0.666144 -0.188894
C29   C     C_R   0.828888 0.749047 0.166128 -0.188896
C30   C     C_R   0.171117 0.252834 0.829432 -0.189593
C31   C     C_R   0.167273 0.583655 0.329177 -0.192344
C32   C     C_R   0.832820 0.414924 0.675104 -0.191138
C33   C     C_R   0.778485 0.759146 0.140657 -0.076247
C34   C     C_R   0.221542 0.244303 0.854497 -0.076711
C35   C     C_R   0.217698 0.591752 0.354140 -0.080713
C36   C     C_R   0.782446 0.405320 0.649934 -0.082370
C37   C     C_R   0.754945 0.931997 0.132275 0.376217
C38   C     C_R   0.245198 0.072042 0.867158 0.373667
C39   C     C_R   0.245199 0.427955 0.367159 0.373642
C40   C     C_R   0.754945 0.567994 0.632276 0.376213
C41   C     C_R   0.602541 0.972699 0.051282 -0.097352
C42   C     C_R   0.397936 0.039007 0.946253 -0.097521
C43   C     C_R   0.397938 0.460998 0.446257 -0.097526
C44   C     C_R   0.602542 0.527296 0.551286 -0.097359
C45   C     C_R   0.632015 0.912301 0.998842 -0.038555
C46   C     C_R   0.369079 0.116776 0.996221 -0.038118
C47   C     C_R   0.369083 0.383135 0.496208 -0.038113
C48   C     C_R   0.632014 0.587695 0.498844 -0.038551
C49   C     C_R   0.609861 0.869918 0.919428 0.215391
C50   C     C_R   0.392040 0.182287 0.072130 0.214684
C51   C     C_R   0.392047 0.317557 0.572104 0.214679
C52   C     C_R   0.609861 0.630045 0.419427 0.215401
C53   C     C_R   0.624436 0.016517 0.130553 -0.020171
C54   C     C_R   0.375370 0.976291 0.869829 -0.020139
C55   C     C_R   0.375369 0.523811 0.369851 -0.020142
C56   C     C_R   0.624437 0.483465 0.630555 -0.020172
C57   C     C_R   0.856825 0.912060 0.183432 -0.052616
C58   C     C_R   0.143203 0.088867 0.816569 -0.052810
C59   C     C_R   0.143203 0.411133 0.316569 -0.052815
C60   C     C_R   0.856824 0.587936 0.683434 -0.052620
H5    H     H_    0.845910 0.613418 0.171626 0.132331
H6    H     H_    0.154086 0.388235 0.820509 0.133408
H7    H     H_    0.147225 0.712926 0.320018 0.134828
H8    H     H_    0.852881 0.286344 0.687870 0.135537
H9    H     H_    0.757684 0.632366 0.127345 0.121338
H10   H     H_    0.242286 0.371958 0.864077 0.124202
H11   H     H_    0.235421 0.725787 0.363914 0.123107
H12   H     H_    0.764765 0.270907 0.643521 0.120235
C61   C     C_R   0.477777 0.949686 0.920371 0.061544
C62   C     C_R   0.522496 0.056098 0.077863 0.062023
C63   C     C_R   0.522497 0.443869 0.577862 0.062018
C64   C     C_R   0.477776 0.550384 0.420389 0.061535
C65   C     C_R   0.471601 0.081129 0.050243 0.007105
C66   C     C_R   0.529229 0.940508 0.945674 0.007938
C67   C     C_R   0.529228 0.559518 0.445684 0.007938
C68   C     C_R   0.471603 0.418812 0.550237 0.007103
C69   C     C_R   0.449275 0.023368 0.972403 0.063813
C70   C     C_R   0.551255 0.989752 0.024801 0.064425
C71   C     C_R   0.551255 0.510246 0.524806 0.064430
C72   C     C_R   0.449276 0.476636 0.472408 0.063814
C73   C     C_R   0.453535 0.886009 0.844628 -0.188450
C74   C     C_R   0.545794 0.093424 0.157448 -0.188264
C75   C     C_R   0.545794 0.406538 0.657447 -0.188274
C76   C     C_R   0.453533 0.614179 0.344668 -0.188458
C77   C     C_R   0.403573 0.899653 0.820058 -0.147587
C78   C     C_R   0.595585 0.074771 0.182898 -0.150083
C79   C     C_R   0.595585 0.425206 0.682899 -0.150069
C80   C     C_R   0.403571 0.600548 0.320098 -0.147578
O25   O     O_2   0.303345 0.931570 0.771159 -0.511594
O26   O     O_2   0.695774 0.040877 0.232341 -0.510223
O27   O     O_2   0.695776 0.459064 0.732336 -0.510222
O28   O     O_2   0.303343 0.568638 0.271198 -0.511614
C81   C     C_R   0.559618 0.884677 0.894084 -0.245535
C82   C     C_R   0.442191 0.164460 0.097808 -0.244248
C83   C     C_R   0.442197 0.335399 0.597785 -0.244250
C84   C     C_R   0.559617 0.615306 0.394087 -0.245552
H13   H     H_    0.147226 0.787072 0.819970 0.134828
H14   H     H_    0.852879 0.213651 0.187894 0.135538
H15   H     H_    0.845908 0.886578 0.671654 0.132333
H16   H     H_    0.154088 0.111766 0.320463 0.133415
H17   H     H_    0.235423 0.774209 0.863864 0.123079
H18   H     H_    0.764764 0.229086 0.143546 0.120234
H19   H     H_    0.757681 0.867624 0.627370 0.121341
H20   H     H_    0.242288 0.128040 0.364029 0.124232
H21   H     H_    0.387057 0.848410 0.761435 0.164974
H22   H     H_    0.611419 0.106554 0.244397 0.162697
H23   H     H_    0.611419 0.393425 0.744399 0.162695
H24   H     H_    0.387053 0.651878 0.261491 0.164988
H25   H     H_    0.471876 0.820575 0.802882 0.120200
H26   H     H_    0.526535 0.134065 0.202631 0.119825
H27   H     H_    0.526533 0.365890 0.702627 0.119834
H28   H     H_    0.471875 0.679712 0.302946 0.120214
H29   H     H_    0.545742 0.854374 0.832248 0.121562
H30   H     H_    0.457085 0.222122 0.155486 0.122652
H31   H     H_    0.457095 0.277682 0.655452 0.122657
H32   H     H_    0.545738 0.645558 0.332246 0.121569
N5    N     N_3   0.637923 0.811859 0.863067 -0.562901
H33   H     H_    0.625535 0.681064 0.841273 0.234916
H34   H     H_    0.631691 0.905365 0.815445 0.233665
N6    N     N_3   0.364976 0.269112 0.124217 -0.564444
H35   H     H_    0.378589 0.403371 0.137068 0.230420
H36   H     H_    0.370762 0.194030 0.177450 0.236082
N7    N     N_3   0.364984 0.230667 0.624177 -0.564422
H37   H     H_    0.370768 0.305708 0.677420 0.236100
H38   H     H_    0.378601 0.096408 0.637007 0.230395
N8    N     N_3   0.637925 0.688012 0.363053 -0.562903
H39   H     H_    0.631690 0.594447 0.315453 0.233652
H40   H     H_    0.625540 0.818787 0.341231 0.234938

loop_
_geom_bond_atom_site_label_1
_geom_bond_atom_site_label_2
_ccdc_geom_bond_type
O17   V3    S    
C47   C51   A    
C61   C66   A    
N1    C17   A    
O1    C5    A    
C30   H6    S    
O19   V1    S    
O13   V1    S    
C63   C68   A    
C64   C76   A    
O3    C7    A    
C11   C12   D    
C14   C46   A    
C44   C48   A    
O15   V3    S    
C75   C79   A    
O4    V2    S    
C42   C54   A    
O18   V4    S    
C41   C53   A    
C32   C60   A    
C62   C70   A    
C23   H20   S    
C26   H13   S    
C73   H25   S    
N6    H35   S    
N3    C39   S    
C18   C54   A    
N2    C38   S    
C74   C78   A    
C11   H3    S    
O4    C8    A    
C25   C57   A    
C31   C35   A    
C53   C78   A    
C75   H27   S    
C27   C59   A    
O1    V3    S    
C15   C47   A    
C66   C81   A    
O2    V4    S    
C14   O22   S    
C20   O27   S    
C21   C37   A    
O3    V1    S    
C50   N6    S    
C34   C38   A    
C73   C77   A    
C49   C81   A    
C83   H31   S    
C1    O15   A    
C82   H30   S    
C2    O16   A    
C7    C9    S    
O2    C6    A    
C19   C55   A    
N7    H38   S    
C33   C37   A    
O14   V2    S    
C41   C45   A    
N5    H34   S    
C66   C70   A    
O5    V1    S    
C65   C69   A    
C30   C58   A    
C16   N4    A    
O11   C7    A    
C28   H15   S    
O12   C8    A    
C43   C72   A    
C62   C74   A    
C31   C59   A    
C61   C73   A    
O10   V2    S    
C63   C75   A    
C25   H14   S    
N8    H40   S    
C18   O25   S    
O7    V3    S    
O8    V4    S    
C77   H21   S    
C12   H4    S    
C28   C60   A    
C56   C79   A    
C50   C82   A    
C36   H12   S    
N4    C40   S    
C46   C50   A    
C24   C40   A    
C8    C10   S    
O9    V1    S    
C32   C36   A    
C52   C84   A    
C44   C56   A    
O7    C3    A    
C32   H8    S    
O5    C1    A    
C42   C46   A    
N7    H37   S    
C44   C71   A    
C74   H26   S    
O8    C4    A    
C13   C45   A    
C9    C10   D    
O9    C5    A    
C36   C40   A    
C49   N5    S    
O11   V3    S    
C1    C60   S    
C63   C71   A    
C51   C83   A    
C22   C26   A    
C14   N2    A    
C22   H17   S    
O6    V2    S    
C76   H28   S    
C33   H9    S    
C55   C80   A    
C26   C58   A    
C17   C53   A    
O10   C6    A    
C84   H32   S    
C54   C77   A    
N1    C37   S    
C4    C57   S    
C42   C69   A    
C78   H22   S    
C79   H23   S    
C41   C70   A    
C23   C39   A    
C68   C72   A    
C22   C38   A    
N8    H39   S    
O16   V4    S    
C61   C69   A    
C35   H11   S    
C52   N8    S    
C3    O13   A    
C10   H2    S    
C43   C55   A    
C48   C52   A    
C3    C58   S    
C16   C48   A    
O6    C2    A    
C34   H10   S    
C21   C25   A    
C5    C11   S    
C31   H7    S    
O12   V4    S    
C13   N1    A    
C6    C12   S    
C23   C27   A    
C64   C67   A    
C24   C28   A    
C27   H16   S    
C64   C72   A    
N6    H36   S    
N5    H33   S    
C29   H5    S    
N2    C18   A    
C35   C39   A    
C15   N3    A    
C30   C34   A    
N4    C20   A    
C2    C59   S    
C29   C33   A    
O20   V2    S    
C29   C57   A    
C51   N7    S    
C21   H18   S    
N3    C19   A    
C68   C83   A    
C9    H1    S    
C17   O26   S    
C24   H19   S    
C43   C47   A    
C76   C80   A    
C67   C84   A    
C20   C56   A    
C19   O28   S    
C4    O14   A    
C65   C82   A    
C13   O21   S    
C80   H24   S    
C67   C71   A    
C81   H29   S    
C15   O23   S    
C45   C49   A    
C16   O24   S    
C62   C65   A    
