data_mof_unit_67551.cif
_audit_creation_date              2012-10-26T18:48:17-0400
_audit_creation_method            fapswitch 2.2
_symmetry_space_group_name_H-M    P1
_symmetry_Int_Tables_number       1
_space_group_crystal_system       triclinic
_cell_length_a                    10.688461
_cell_length_b                    8.72625
_cell_length_c                    7.576857
_cell_angle_alpha                 103.035094
_cell_angle_beta                  96.806769
_cell_angle_gamma                 92.744874
_cell_volume                      681.595065697

loop_
_atom_site_label
_atom_site_type_symbol
_atom_type_description
_atom_site_fract_x
_atom_site_fract_y
_atom_site_fract_z
_atom_type_partial_charge
C1    C     C_R   0.494981 0.200033 0.453504 0.517246
C2    C     C_3   0.121589 0.497015 0.490347 0.020601
C3    C     C_3   0.983721 0.585690 0.662796 0.275381
C4    C     C_3   0.016112 0.420205 0.335620 0.278905
C5    C     C_2   0.483231 0.031817 0.429351 -0.173600
C6    C     C_2   0.525890 0.967258 0.566121 -0.173364
C7    C     C_3   0.085583 0.693345 0.954795 -0.009353
C8    C     C_3   0.090772 0.834229 0.117206 -0.390759
C9    C     C_3   0.924221 0.314657 0.037814 -0.017541
C10   C     C_3   0.922919 0.171440 0.878625 -0.398136
C11   C     C_3   0.293046 0.284746 0.971929 0.047399
C12   C     C_R   0.508668 0.799816 0.545806 0.511578
C13   C     C_3   0.330883 0.149600 0.829209 -0.282926
C14   C     C_3   0.272141 0.991624 0.843039 -0.505007
C15   C     C_3   0.648188 0.758108 0.127993 0.076755
C16   C     C_3   0.721209 0.859808 0.029493 -0.276882
C17   C     C_3   0.672078 0.024409 0.061301 -0.476081
C18   C     C_R   0.259243 0.496508 0.497062 0.534281
C19   C     C_R   0.740603 0.506035 0.502965 0.529497
C20   C     C_3   0.052030 0.432669 0.627645 -0.156696
C21   C     C_3   0.947021 0.572927 0.369390 -0.164240
C22   C     C_3   0.945616 0.354697 0.471127 -0.149991
C23   C     C_3   0.053841 0.651109 0.526359 -0.160686
C24   C     C_3   0.877917 0.508769 0.508194 0.015793
Cu1   Cu    Cu3+1 0.514140 0.517380 0.684380 1.030560
Cu2   Cu    Cu3+1 0.485860 0.482620 0.315620 0.995747
H1    H     H_    0.899863 0.233547 0.447315 0.098896
H2    H     H_    0.184107 0.846184 0.202941 0.112222
H3    H     H_    0.077816 0.944473 0.070748 0.163083
H4    H     H_    0.919976 0.421513 0.981988 0.188736
H5    H     H_    0.837013 0.303004 0.102085 0.159155
H6    H     H_    0.919164 0.061486 0.927991 0.164748
H7    H     H_    0.838971 0.168761 0.776109 0.110685
H8    H     H_    0.007087 0.174197 0.808274 0.129239
H9    H     H_    0.190252 0.286759 0.951529 0.165234
H10   H     H_    0.314096 0.263075 0.108381 0.201180
H11   H     H_    0.300587 0.167926 0.690570 0.179847
H12   H     H_    0.099131 0.771941 0.547363 0.099146
H13   H     H_    0.434526 0.148834 0.854576 0.183651
H14   H     H_    0.303638 0.969422 0.979418 0.145786
H15   H     H_    0.301879 0.895967 0.737008 0.170615
H16   H     H_    0.167731 0.990060 0.819673 0.148744
H17   H     H_    0.692753 0.784968 0.272720 0.131623
H18   H     H_    0.549924 0.795024 0.126530 0.149596
H19   H     H_    0.822806 0.870357 0.083284 0.157270
H20   H     H_    0.712803 0.805924 0.881514 0.232309
H21   H     H_    0.567384 0.017825 0.036516 0.158529
H22   H     H_    0.704892 0.088555 0.964419 0.137297
H23   H     H_    0.100275 0.377862 0.730593 0.116848
H24   H     H_    0.704800 0.091893 0.203403 0.155960
H25   H     H_    0.897854 0.626151 0.263588 0.135676
H26   H     H_    0.434067 0.961559 0.300949 0.103855
H27   H     H_    0.576556 0.037958 0.692294 0.111404
H28   H     H_    0.168407 0.710361 0.883176 0.156242
H29   H     H_    0.097451 0.586083 0.008681 0.181121
H30   H     H_    0.017089 0.818985 0.203380 0.134977
N1    N     N_2   0.464560 0.456420 0.038510 0.077519
N2    N     N_2   0.535440 0.543580 0.961490 0.098137
O1    O     O_R   0.509190 0.286130 0.619780 -0.504133
O2    O     O_3   0.035218 0.326761 0.164025 -0.590664
O3    O     O_3   0.345155 0.430341 0.952865 -0.483751
O4    O     O_3   0.650941 0.594665 0.053487 -0.471580
O5    O     O_R   0.490810 0.713870 0.380220 -0.524546
O6    O     O_R   0.485310 0.256770 0.308360 -0.547179
O7    O     O_R   0.514690 0.743230 0.691640 -0.525486
O8    O     O_R   0.328790 0.514640 0.655680 -0.476787
O9    O     O_R   0.671210 0.485360 0.344320 -0.490163
O10   O     O_R   0.304910 0.485280 0.344260 -0.497674
O11   O     O_R   0.695090 0.514720 0.655740 -0.473923
O12   O     O_3   0.968985 0.677338 0.838091 -0.571927

loop_
_geom_bond_atom_site_label_1
_geom_bond_atom_site_label_2
_ccdc_geom_bond_type
C16   H19   S    
N2    O4    S    
C17   H24   S    
C2    C4    S    
Cu2   O5    S    
C5    H26   S    
C19   O9    A    
C20   H23   S    
C2    C20   S    
C2    C18   S    
C23   H12   S    
C4    C22   S    
C9    C10   S    
C13   H11   S    
C17   H22   S    
C7    H29   S    
C14   H16   S    
C9    O2    S    
Cu2   O10   S    
C8    H30   S    
C7    O12   S    
C11   H9    S    
C19   C24   S    
N1    N2    D    
C15   H17   S    
C7    C8    S    
C10   H8    S    
C3    C20   S    
C13   C14   S    
N1    O3    S    
C4    C21   S    
C11   C13   S    
C4    O2    S    
C3    C24   S    
C9    H4    S    
C14   H15   S    
C1    C5    S    
C8    H3    S    
C11   H10   S    
Cu1   Cu2   S    
C15   O4    S    
C20   C22   S    
C15   H18   S    
C10   H7    S    
C22   H1    S    
C1    O1    A    
C21   C23   S    
C6    C12   S    
C5    C6    D    
C8    H2    S    
Cu2   N1    S    
C22   C24   S    
C13   H13   S    
Cu1   O11   S    
Cu1   N2    S    
Cu2   O9    S    
C6    H27   S    
C18   O10   A    
C15   C16   S    
C1    O6    A    
C10   H6    S    
C21   H25   S    
C3    O12   S    
Cu1   O7    S    
C12   O7    A    
C21   C24   S    
C16   H20   S    
C2    C23   S    
C12   O5    A    
C19   O11   A    
C9    H5    S    
C18   O8    A    
Cu2   O6    S    
Cu1   O1    S    
C7    H28   S    
C3    C23   S    
C14   H14   S    
Cu1   O8    S    
C17   H21   S    
C16   C17   S    
C11   O3    S    
