data_mof_unit_15790.cif
_audit_creation_date              2012-12-10T17:05:22-0500
_audit_creation_method            fapswitch 2.2
_symmetry_space_group_name_H-M    P1
_symmetry_Int_Tables_number       1
_space_group_crystal_system       triclinic
_cell_length_a                    9.99993
_cell_length_b                    10.59423
_cell_length_c                    15.416363
_cell_angle_alpha                 89.715631
_cell_angle_beta                  68.546615
_cell_angle_gamma                 88.751848
_cell_volume                      1519.70706901

loop_
_atom_site_label
_atom_site_type_symbol
_atom_type_description
_atom_site_fract_x
_atom_site_fract_y
_atom_site_fract_z
_atom_type_partial_charge
C1    C     C_R   0.491653 0.737014 0.512346 0.881296
C2    C     C_R   0.397892 0.408401 0.919943 0.053214
C3    C     C_R   0.253788 0.446120 0.971969 0.132965
C4    C     C_R   0.487770 0.368969 0.968653 0.070601
C5    C     C_R   0.450036 0.407908 0.061868 0.059167
C6    C     C_R   0.305666 0.444094 0.112876 -0.224834
C7    C     C_R   0.207124 0.456456 0.068799 -0.221201
C8    C     C_R   0.614667 0.294849 0.927713 -0.179649
C9    C     C_R   0.715899 0.283814 0.969936 -0.248231
C10   C     C_R   0.692091 0.345810 0.054035 0.170800
C11   C     C_R   0.558480 0.408744 0.100332 0.090858
C12   C     C_R   0.411515 0.493399 0.676251 0.862746
C13   C     C_R   0.798406 0.344262 0.093557 -0.214782
C14   C     C_R   0.771334 0.402293 0.179672 -0.209561
C15   C     C_R   0.538970 0.474900 0.182023 -0.253632
C16   C     C_2   0.554392 0.071005 0.562613 -0.124629
C17   C     C_2   0.507890 0.127920 0.501098 -0.286753
C18   C     C_2   0.568177 0.933531 0.562233 0.146521
C19   C     C_2   0.466110 0.865918 0.546310 0.112506
C20   C     C_2   0.110666 0.438405 0.439186 -0.111432
C21   C     C_2   0.958553 0.432189 0.442853 -0.133471
C22   C     C_R   0.502311 0.261722 0.498962 0.914153
C23   C     C_R   0.589135 0.497143 0.323879 0.870899
C24   C     C_R   0.358283 0.470161 0.777473 -0.111544
C25   C     C_R   0.639734 0.465679 0.224845 -0.058342
C26   C     C_R   0.160446 0.480296 0.926538 -0.213953
C27   C     C_R   0.211905 0.490521 0.830049 -0.218258
C28   C     C_R   0.452436 0.427378 0.822384 0.129747
H1    H     H_    0.097040 0.484062 0.109619 0.148593
H2    H     H_    0.900230 0.294948 0.059373 0.146378
H3    H     H_    0.590162 0.125960 0.609150 0.148401
H4    H     H_    0.475244 0.076395 0.451657 0.173767
H5    H     H_    0.192930 0.387129 0.383536 0.158811
H6    H     H_    0.070098 0.541061 0.554959 0.163506
H7    H     H_    0.937643 0.369558 0.394018 0.155104
H8    H     H_    0.872893 0.563585 0.541562 0.169929
H9    H     H_    0.442882 0.531822 0.215247 0.157111
H10   H     H_    0.849773 0.392567 0.212682 0.151179
H11   H     H_    0.814383 0.229867 0.935485 0.158566
H12   H     H_    0.048883 0.504945 0.965933 0.156229
H13   H     H_    0.138055 0.520934 0.796938 0.175460
H14   H     H_    0.265873 0.459713 0.187300 0.144638
H15   H     H_    0.636260 0.243997 0.863229 0.167111
N1    N     N_2   0.148330 0.498670 0.499030 -0.179765
N2    N     N_2   0.852680 0.498640 0.499000 -0.185712
O1    O     O_R   0.386950 0.680940 0.500010 -0.553488
O2    O     O_R   0.613110 0.680900 0.499990 -0.615161
O3    O     O_R   0.322330 0.500030 0.632270 -0.607469
O4    O     O_R   0.548480 0.499990 0.632240 -0.619497
O5    O     O_R   0.386890 0.319100 0.500010 -0.584446
O6    O     O_R   0.613050 0.319060 0.499990 -0.619394
O7    O     O_R   0.451520 0.500010 0.367760 -0.614046
O8    O     O_R   0.677670 0.499970 0.367730 -0.605359
Zn1   Zn    Zn3+2 0.349000 0.500030 0.500020 0.978017
Zn2   Zn    Zn3+2 0.651000 0.499970 0.499980 0.931167
N3    N     N_2   0.691710 0.873457 0.572326 -0.300421
H16   H     H_    0.667869 0.801162 0.620344 0.226494
C29   C     C_3   0.809761 0.950144 0.572396 -0.725995
H17   H     H_    0.901904 0.887792 0.569735 0.258356
H18   H     H_    0.777160 0.007795 0.637098 0.226005
H19   H     H_    0.845513 0.012266 0.510162 0.253077
Cl1   Cl    Cl    0.287019 0.926143 0.575827 -0.634604
N4    N     N_2   0.603619 0.415453 0.772356 -0.315301
H20   H     H_    0.638540 0.359478 0.713452 0.241408
C30   C     C_3   0.687287 0.525477 0.772203 -0.713238
H21   H     H_    0.803222 0.502889 0.735081 0.218602
H22   H     H_    0.670803 0.553795 0.844720 0.242393
H23   H     H_    0.655961 0.605983 0.736833 0.238387

loop_
_geom_bond_atom_site_label_1
_geom_bond_atom_site_label_2
_ccdc_geom_bond_type
C2    C4    A    
N4    C30   S    
C23   O8    A    
C6    C7    A    
C21   H7    S    
C14   H10   S    
C22   O6    A    
C9    C10   A    
C12   C24   S    
C21   N2    D    
C17   C22   S    
C24   C27   A    
C18   N3    S    
C12   O3    A    
C30   H23   S    
O1    Zn1   S    
C29   H19   S    
O8    Zn2   S    
C2    C3    A    
C23   O7    A    
H8    N2    S    
O4    Zn2   S    
C13   C14   A    
N3    H16   S    
C16   H3    S    
O3    Zn1   S    
C26   H12   S    
C26   C27   A    
O5    Zn1   S    
C7    H1    S    
C20   H5    S    
C8    H15   S    
C16   C18   S    
C20   N1    D    
O7    Zn1   S    
C5    C11   A    
C3    C7    A    
C23   C25   S    
C14   C25   A    
C1    O2    A    
C5    C6    A    
C1    O1    A    
C15   C25   A    
C12   O4    A    
C16   C17   D    
C10   C11   A    
C19   Cl1   S    
C29   H18   S    
N4    H20   S    
C28   N4    S    
N1    Zn1   S    
C22   O5    A    
C9    H11   S    
H6    N1    S    
C20   C21   S    
N2    Zn2   S    
O2    Zn2   S    
C30   H21   S    
C6    H14   S    
C4    C8    A    
C17   H4    S    
C18   C19   D    
C27   H13   S    
C4    C5    A    
C2    C28   A    
O6    Zn2   S    
C29   H17   S    
C13   H2    S    
C1    C19   S    
C11   C15   A    
C3    C26   A    
C15   H9    S    
C24   C28   A    
N3    C29   S    
C8    C9    A    
C30   H22   S    
C10   C13   A    
