data_mof_unit_49111.cif
_audit_creation_date              2012-12-11T15:48:48-0500
_audit_creation_method            fapswitch 2.2
_symmetry_space_group_name_H-M    P1
_symmetry_Int_Tables_number       1
_space_group_crystal_system       triclinic
_cell_length_a                    10.972329
_cell_length_b                    11.209422
_cell_length_c                    18.768801
_cell_angle_alpha                 90.286955
_cell_angle_beta                  89.795752
_cell_angle_gamma                 60.035174
_cell_volume                      1999.80167726

loop_
_atom_site_label
_atom_site_type_symbol
_atom_type_description
_atom_site_fract_x
_atom_site_fract_y
_atom_site_fract_z
_atom_type_partial_charge
C1    C     C_R   0.245666 0.643787 0.611413 0.514563
C2    C     C_R   0.575150 0.136067 0.707906 0.209963
C3    C     C_R   0.574561 0.138138 0.782458 -0.175732
C4    C     C_R   0.630769 0.590949 0.608760 0.579294
C5    C     C_3   0.921333 0.127431 0.787314 -0.274390
C6    C     C_3   0.918435 0.128237 0.706194 -0.285145
C7    C     C_R   0.670621 0.164401 0.671846 0.029617
C8    C     C_R   0.189398 0.669830 0.837596 0.014754
C9    C     C_R   0.173217 0.574953 0.797366 0.064929
C10   C     C_R   0.180238 0.573643 0.724187 0.018328
C11   C     C_R   0.207916 0.770839 0.726085 -0.178325
C12   C     C_3   0.666408 0.543273 0.810445 -0.282745
C13   C     C_R   0.208071 0.768872 0.800555 -0.171004
C14   C     C_3   0.247956 0.422822 0.800613 -0.292729
C15   C     C_3   0.250593 0.424239 0.719592 -0.276606
C16   C     C_R   0.630089 0.225222 0.601384 0.565324
C17   C     C_R   0.203244 0.665944 0.686531 -0.000945
C18   C     C_R   0.701405 0.703132 0.179745 -0.014041
C19   C     C_R   0.815617 0.641400 0.226019 -0.020477
C20   C     C_R   0.796213 0.622742 0.296895 0.021905
C21   C     C_R   0.544838 0.742431 0.279544 -0.161210
C22   C     C_R   0.564627 0.756616 0.207196 -0.177273
C23   C     C_3   0.695622 0.664230 0.814770 0.037414
C24   C     C_3   0.944376 0.502483 0.220114 -0.211022
C25   C     C_3   0.920711 0.480568 0.297314 0.011718
C26   C     C_R   0.661850 0.668826 0.324187 -0.006786
C27   C     C_R   0.629073 0.188947 0.168782 0.034519
C28   C     C_R   0.227378 0.645920 0.400810 0.535734
C29   C     C_R   0.528869 0.178705 0.210768 -0.023319
C30   C     C_R   0.534777 0.183353 0.283525 -0.002432
C31   C     C_R   0.709615 0.251291 0.274970 -0.156802
C32   C     C_R   0.708988 0.241809 0.200164 0.092252
C33   C     C_3   0.497981 0.063278 0.215129 -0.251783
C34   C     C_3   0.657416 0.619225 0.682268 0.053798
C35   C     C_3   0.508930 0.066957 0.295069 -0.269344
C36   C     C_R   0.631093 0.209567 0.317020 -0.011708
C37   C     C_R   0.136777 0.685212 0.184000 0.022416
C38   C     C_R   0.072178 0.797204 0.230733 0.036087
C39   C     C_R   0.096027 0.783373 0.301957 0.013125
C40   C     C_R   0.642545 0.622325 0.392814 0.547592
C41   C     C_R   0.265182 0.543404 0.282077 -0.126809
C42   C     C_R   0.241637 0.558360 0.208838 -0.188776
C43   C     C_3   0.921194 0.900680 0.240389 -0.251233
C44   C     C_3   0.946066 0.882875 0.319945 -0.291002
C45   C     C_3   0.807194 0.602105 0.688031 0.210504
C46   C     C_R   0.184164 0.654898 0.329020 0.052005
C47   C     C_R   0.701031 0.100302 0.895547 0.543323
C48   C     C_R   0.721416 0.686349 0.889602 0.543310
C49   C     C_R   0.121295 0.705938 0.907408 0.526017
C50   C     C_R   0.671608 0.111521 0.102140 0.541587
C51   C     C_R   0.729188 0.714393 0.105363 0.554689
C52   C     C_R   0.613613 0.237073 0.392699 0.548608
C53   C     C_R   0.092555 0.711011 0.111787 0.533339
C54   C     C_3   0.566663 0.791654 0.784354 -0.246972
C55   C     C_3   0.547951 0.765853 0.706011 -0.231463
C56   C     C_3   0.647444 0.515845 0.732140 -0.304810
C57   C     C_3   0.829247 0.629209 0.767663 0.065323
C58   C     C_3   0.373823 0.107799 0.694346 -0.014902
C59   C     C_3   0.273505 0.140735 0.632197 -0.356497
C60   C     C_3   0.152252 0.333245 0.345742 -0.318545
C61   C     C_3   0.744238 0.366229 0.104960 -0.263433
C62   C     C_3   0.847751 0.841455 0.736058 -0.241054
C63   C     C_3   0.930338 0.625561 0.589910 -0.003566
C64   C     C_3   0.921035 0.728333 0.534506 -0.352707
C65   C     C_R   0.676861 0.152893 0.822469 -0.025881
C66   C     C_R   0.766095 0.185284 0.785314 -0.020454
C67   C     C_R   0.762929 0.189375 0.711675 -0.041005
Cr1   Cr    Cr6+3 0.392960 0.397920 0.502240 0.976518
Cr2   Cr    Cr6+3 0.398340 0.708480 0.501250 0.998989
Cr3   Cr    Cr6+3 0.708670 0.393570 0.496460 0.980282
Cr4   Cr    Cr6+3 0.937650 0.938540 0.007610 1.011048
Cr5   Cr    Cr6+3 0.625330 0.937370 0.994520 0.992299
Cr6   Cr    Cr6+3 0.937940 0.625230 0.001190 0.984204
H1    H     H_    0.580214 0.882566 0.789304 0.148793
H2    H     H_    0.216250 0.852186 0.699952 0.130282
H3    H     H_    0.470266 0.814744 0.815114 0.114914
H4    H     H_    0.214162 0.850167 0.828814 0.128267
H5    H     H_    0.180348 0.383858 0.822659 0.132130
H6    H     H_    0.353000 0.380761 0.825534 0.137365
H7    H     H_    0.357155 0.380849 0.696211 0.183725
H8    H     H_    0.178433 0.394113 0.694531 0.115749
H9    H     H_    0.438802 0.779038 0.298996 0.149454
H10   H     H_    0.473943 0.806961 0.172785 0.141588
H11   H     H_    0.040100 0.508300 0.210550 0.173057
H12   H     H_    0.735369 0.414909 0.717137 0.133630
H13   H     H_    0.932237 0.432934 0.182616 0.119397
H14   H     H_    0.893564 0.398681 0.305310 0.140309
H15   H     H_    0.440961 0.782784 0.698294 0.118571
H16   H     H_    0.775510 0.285091 0.300054 0.125951
H17   H     H_    0.584676 0.969381 0.190940 0.162617
H18   H     H_    0.390601 0.093315 0.196154 0.137082
H19   H     H_    0.408731 0.097284 0.323354 0.136127
H20   H     H_    0.602460 0.974512 0.316764 0.142951
H21   H     H_    0.346333 0.446122 0.302192 0.149834
H22   H     H_    0.299611 0.471885 0.172938 0.120884
H23   H     H_    0.914816 0.528179 0.787174 0.109657
H24   H     H_    0.848852 0.866626 0.219696 0.126446
H25   H     H_    0.560540 0.838699 0.671449 0.219544
H26   H     H_    0.903717 0.000171 0.220765 0.176261
H27   H     H_    0.933332 0.976742 0.347184 0.142895
H28   H     H_    0.891988 0.833113 0.346233 0.135431
H29   H     H_    0.754795 0.448818 0.833943 0.130959
H30   H     H_    0.569703 0.567851 0.841337 0.133784
H31   H     H_    0.546501 0.516146 0.725163 0.125595
H32   H     H_    0.327271 0.186217 0.735947 0.116700
H33   H     H_    0.381435 0.018175 0.721279 0.105585
H34   H     H_    0.887340 0.491961 0.676582 0.068846
H35   H     H_    0.311673 0.049076 0.596786 0.159446
H36   H     H_    0.167328 0.169414 0.652442 0.066597
H37   H     H_    0.266673 0.227486 0.600767 0.166665
H38   H     H_    0.994198 0.508748 0.394634 0.261757
H39   H     H_    0.232707 0.332703 0.381399 0.186993
H40   H     H_    0.198112 0.302056 0.291378 0.151087
H41   H     H_    0.123188 0.257817 0.366190 0.122494
H42   H     H_    0.885357 0.262809 0.187329 0.230088
H43   H     H_    0.829022 0.363930 0.071608 0.169793
H44   H     H_    0.681694 0.468901 0.130691 0.162074
H45   H     H_    0.504522 0.110702 0.808621 0.137674
H46   H     H_    0.674788 0.347816 0.069261 0.146122
H47   H     H_    0.894802 0.741446 0.832641 0.275920
H48   H     H_    0.859333 0.917607 0.767566 0.123510
H49   H     H_    0.740876 0.885489 0.715363 0.219711
H50   H     H_    0.923686 0.811821 0.691650 0.183735
H51   H     H_    0.933057 0.537882 0.561215 0.157676
H52   H     H_    0.029747 0.585213 0.618718 0.139158
H53   H     H_    0.925500 0.815170 0.560601 0.147951
H54   H     H_    0.009986 0.676782 0.496283 0.115759
H55   H     H_    0.820884 0.769222 0.504721 0.164849
H56   H     H_    0.977594 0.023411 0.810761 0.164897
H57   H     H_    0.949992 0.201761 0.810101 0.123200
H58   H     H_    0.947193 0.201422 0.682535 0.131770
H59   H     H_    0.970309 0.024110 0.681363 0.135520
N1    N     N_2   0.030251 0.469586 0.344207 -0.506330
N2    N     N_2   0.806417 0.260977 0.158744 -0.514388
N3    N     N_2   0.880489 0.725255 0.780220 -0.514691
O1    O     O_R   0.507380 0.255700 0.581440 -0.476378
O2    O     O_R   0.837170 0.593410 0.915250 -0.535223
O3    O     O_R   0.065200 0.635530 0.931570 -0.507273
O4    O     O_R   0.280320 0.527350 0.578930 -0.526422
O5    O     O_R   0.068260 0.828890 0.091840 -0.510725
O6    O     O_R   0.798870 0.057410 0.079340 -0.474499
O7    O     O_R   0.584930 0.080350 0.076780 -0.538290
O8    O     O_R   0.626960 0.809650 0.067060 -0.509813
O9    O     O_R   0.816040 0.596610 0.076510 -0.537598
O10   O     O_R   0.045610 0.638500 0.081060 -0.522659
O11   O     O_3   0.833640 0.833710 0.001100 -0.276677
O12   O     O_R   0.524480 0.695810 0.424040 -0.498377
O13   O     O_R   0.260510 0.739590 0.584590 -0.537889
O14   O     O_R   0.532300 0.695080 0.573820 -0.494164
O15   O     O_R   0.744840 0.503500 0.576370 -0.540969
O16   O     O_R   0.699120 0.276560 0.571960 -0.527513
O17   O     O_R   0.498940 0.256500 0.419860 -0.528061
O18   O     O_R   0.272500 0.528080 0.429150 -0.524552
O19   O     O_R   0.252060 0.740380 0.423010 -0.518617
O20   O     O_3   0.506127 0.082015 0.667733 -0.550713
O21   O     O_3   0.815414 0.692630 0.637762 -0.556954
O22   O     O_R   0.736390 0.504290 0.414790 -0.533589
O23   O     O_R   0.691300 0.277290 0.422170 -0.512947
O24   O     O_3   0.499990 0.499990 0.499980 -0.272764
O25   O     O_R   0.089400 0.825690 0.930570 -0.530508
O26   O     O_R   0.818460 0.054440 0.929850 -0.499096
O27   O     O_R   0.606060 0.077150 0.915510 -0.537867
O28   O     O_R   0.646550 0.806680 0.917570 -0.505727

loop_
_geom_bond_atom_site_label_1
_geom_bond_atom_site_label_2
_ccdc_geom_bond_type
Cr5   O8    S    
C21   C26   A    
C34   C56   S    
C2    O20   S    
C27   C29   A    
C53   O5    A    
C11   C13   A    
C41   C42   A    
C60   H41   S    
C2    C7    A    
Cr3   O15   S    
C43   C44   S    
C63   H51   S    
C15   H8    S    
C48   O28   A    
C51   O9    A    
Cr5   O7    S    
C4    O14   A    
C12   C23   S    
C45   C57   S    
C37   C38   A    
Cr6   O2    S    
C48   O2    A    
C60   H39   S    
C43   H26   S    
C63   O21   S    
C18   C19   A    
C10   C15   S    
C33   H18   S    
C38   C39   A    
Cr2   O24   S    
C61   H46   S    
C20   C25   S    
C10   C17   A    
C29   C33   S    
C25   H14   S    
C59   H37   S    
Cr3   O24   S    
C55   H15   S    
C59   H36   S    
C54   H1    S    
C47   O27   A    
C41   H21   S    
C8    C9    A    
C31   H16   S    
C57   H23   S    
C18   C51   S    
C41   C46   A    
C49   O25   A    
Cr1   O24   S    
C25   N1    S    
C9    C10   A    
C31   C36   A    
C36   C52   S    
C27   C50   S    
Cr4   O6    S    
C37   C53   S    
C35   H19   S    
C5    H56   S    
C66   C67   A    
C34   C55   S    
Cr2   O19   S    
C49   O3    A    
C28   O19   A    
C60   H40   S    
C3    C65   A    
C62   H50   S    
C61   N2    S    
C37   C42   A    
C4    C34   S    
C35   H20   S    
C52   O23   A    
C13   H4    S    
Cr3   O22   S    
C61   H44   S    
C42   H22   S    
C40   O22   A    
Cr1   O1    S    
C24   C25   S    
C56   H31   S    
C12   H30   S    
C6    H59   S    
Cr1   O18   S    
C45   O21   S    
H38   N1    S    
C64   H55   S    
C58   C59   S    
C50   O7    A    
Cr6   O10   S    
Cr3   O23   S    
C62   N3    S    
C9    C14   S    
C12   H29   S    
C29   C30   A    
Cr1   O17   S    
C3    H45   S    
C15   H7    S    
C52   O17   A    
C64   H54   S    
C28   C46   S    
C61   H43   S    
C53   O10   A    
C34   C45   S    
C12   C56   S    
C14   H6    S    
C63   H52   S    
C39   C46   A    
C54   H3    S    
C30   C35   S    
C7    C16   S    
C64   H53   S    
C28   O18   A    
Cr2   O12   S    
C39   C44   S    
C16   O1    A    
C62   H49   S    
C4    O15   A    
C23   C54   S    
C23   C57   S    
C54   C55   S    
C11   C17   A    
C23   C48   S    
Cr4   O26   S    
C40   O12   A    
C27   C32   A    
C18   C22   A    
C31   C32   A    
Cr3   O16   S    
C43   H24   S    
C6    H58   S    
C1    O13   A    
C1    O4    A    
C44   H28   S    
C50   O6    A    
Cr4   O5    S    
H42   N2    S    
C51   O8    A    
Cr4   O25   S    
C1    C17   S    
C59   H35   S    
C30   C36   A    
Cr6   O11   S    
C58   H32   S    
Cr2   O14   S    
C22   H10   S    
H47   N3    S    
C19   C20   A    
C2    C3    A    
C24   H11   S    
C38   C43   S    
C6    C67   S    
C33   H17   S    
C5    C66   S    
C32   N2    S    
C44   H27   S    
C26   C40   S    
C56   H12   S    
C5    C6    S    
C20   C26   A    
Cr5   O11   S    
C8    C49   S    
C55   H25   S    
C33   C35   S    
Cr5   O28   S    
C19   C24   S    
C16   O16   A    
C14   H5    S    
C58   O20   S    
C7    C67   A    
C63   C64   S    
C47   O26   A    
C8    C13   A    
C5    H57   S    
Cr4   O11   S    
C21   H9    S    
C65   C66   A    
Cr6   O3    S    
Cr2   O13   S    
Cr5   O27   S    
C14   C15   S    
C57   N3    S    
Cr1   O4    S    
C11   H2    S    
C58   H33   S    
C21   C22   A    
C24   H13   S    
C60   N1    S    
C47   C65   S    
C62   H48   S    
C45   H34   S    
Cr6   O9    S    
