data_mof_unit_42820.cif
_audit_creation_date              2012-12-10T18:42:32-0500
_audit_creation_method            fapswitch 2.2
_symmetry_space_group_name_H-M    P1
_symmetry_Int_Tables_number       1
_space_group_crystal_system       triclinic
_cell_length_a                    8.574307
_cell_length_b                    10.651367
_cell_length_c                    9.852073
_cell_angle_alpha                 89.800842
_cell_angle_beta                  98.882149
_cell_angle_gamma                 90.120841
_cell_volume                      888.9744828

loop_
_atom_site_label
_atom_site_type_symbol
_atom_type_description
_atom_site_fract_x
_atom_site_fract_y
_atom_site_fract_z
_atom_type_partial_charge
C1    C     C_R   0.505886 0.260489 0.501100 0.921951
C2    C     C_R   0.498607 0.739532 0.499462 0.879063
C3    C     C_R   0.201025 0.500657 0.463907 0.967205
C4    C     C_R   0.798943 0.501905 0.536022 0.951425
C5    C     C_2   0.035694 0.501952 0.444479 -0.395394
C6    C     C_2   0.964206 0.506155 0.555099 -0.383468
C7    C     C_R   0.376419 0.067705 0.423807 0.052218
C8    C     C_R   0.630621 0.932824 0.572784 0.044372
C9    C     C_R   0.370740 0.936864 0.422351 0.032261
C10   C     C_R   0.633178 0.062702 0.578050 0.053262
C11   C     C_R   0.498961 0.871968 0.498367 -0.130786
C12   C     C_R   0.505929 0.127942 0.501708 -0.120533
C13   C     C_R   0.602143 0.574757 0.085325 -0.085566
C14   C     C_R   0.397720 0.425369 0.914674 -0.080727
C15   C     C_R   0.602157 0.574668 0.941519 -0.069956
C16   C     C_R   0.397727 0.425427 0.058495 -0.069230
H1    H     H_    0.973330 0.497680 0.339679 0.176718
H2    H     H_    0.026630 0.511227 0.659814 0.177546
H3    H     H_    0.683881 0.634547 0.150461 0.126246
H4    H     H_    0.316022 0.365599 0.849542 0.132170
H5    H     H_    0.683994 0.634298 0.897889 0.119748
H6    H     H_    0.315990 0.365721 0.102208 0.130122
N1    N     N_R   0.499960 0.499970 0.857200 -0.079290
N2    N     N_R   0.500040 0.500030 0.142800 -0.079173
O1    O     O_R   0.499990 0.316750 0.614620 -0.638125
O2    O     O_R   0.500010 0.683250 0.385380 -0.626530
O3    O     O_R   0.499990 0.316780 0.385290 -0.603621
O4    O     O_R   0.500010 0.683220 0.614710 -0.626510
O5    O     O_R   0.271750 0.499990 0.587840 -0.613703
O6    O     O_R   0.728250 0.500010 0.412160 -0.619094
O7    O     O_R   0.271750 0.500010 0.358510 -0.625407
O8    O     O_R   0.728250 0.499990 0.641490 -0.634620
Zn1   Zn    Zn3+2 0.500000 0.499980 0.653120 0.926199
Zn2   Zn    Zn3+2 0.500000 0.500020 0.346880 0.935105
N3    N     N_3   0.250969 0.142252 0.350085 -0.459262
H7    H     H_    0.145546 0.123050 0.386639 0.175481
H8    H     H_    0.238350 0.121621 0.245551 0.184769
N4    N     N_3   0.764974 0.863485 0.639807 -0.469735
H9    H     H_    0.805997 0.804684 0.568248 0.174604
H10   H     H_    0.731357 0.809192 0.718920 0.199396
C17   C     C_3   0.227510 0.867510 0.345534 -0.397437
C18   C     C_3   0.242394 0.845553 0.193869 -0.298058
C19   C     C_3   0.106259 0.765361 0.122656 -0.893361
H11   H     H_    0.106641 0.671687 0.172528 0.272409
H12   H     H_    0.991560 0.812241 0.127141 0.250117
H13   H     H_    0.119277 0.751999 0.013231 0.249487
H14   H     H_    0.242067 0.936340 0.138485 0.200555
H15   H     H_    0.355174 0.797755 0.185011 0.247092
H16   H     H_    0.210795 0.776122 0.395912 0.195809
H17   H     H_    0.116925 0.919372 0.351968 0.182870
C20   C     C_3   0.773875 0.128430 0.662709 -0.391166
C21   C     C_3   0.906246 0.152366 0.577605 -0.348168
C22   C     C_3   0.054816 0.200830 0.668216 -0.875399
H18   H     H_    0.026834 0.283641 0.728123 0.255780
H19   H     H_    0.105972 0.126192 0.740584 0.257482
H20   H     H_    0.144254 0.229005 0.603685 0.263331
H21   H     H_    0.935566 0.063959 0.527526 0.228083
H22   H     H_    0.866320 0.222691 0.496088 0.218191
H23   H     H_    0.740369 0.218084 0.706551 0.212532
H24   H     H_    0.819772 0.070412 0.754162 0.220719

loop_
_geom_bond_atom_site_label_1
_geom_bond_atom_site_label_2
_ccdc_geom_bond_type
C14   N1    A    
C3    O7    A    
C19   H11   S    
C14   H4    S    
C19   H12   S    
C17   C18   S    
C9    C17   S    
N3    H7    S    
C13   C15   A    
O6    Zn2   S    
O8    Zn1   S    
C15   N1    A    
O7    Zn2   S    
C16   N2    A    
C18   H15   S    
C22   H18   S    
C1    O1    A    
C9    C11   A    
C3    O5    A    
C4    O8    A    
C1    C12   S    
C21   H22   S    
C8    N4    S    
C8    C11   A    
C5    C6    D    
C10   C20   S    
C10   C12   A    
C17   H16   S    
N4    H10   S    
O4    Zn1   S    
C7    C9    A    
C18   H14   S    
C22   H19   S    
O3    Zn2   S    
C7    C12   A    
C6    H2    S    
C19   H13   S    
C14   C16   A    
C4    C6    S    
C5    H1    S    
C18   C19   S    
C2    C11   S    
C20   C21   S    
O5    Zn1   S    
C17   H17   S    
C15   H5    S    
C20   H23   S    
C21   C22   S    
N1    Zn1   S    
C2    O2    A    
C21   H21   S    
C22   H20   S    
O1    Zn1   S    
C1    O3    A    
C13   H3    S    
N2    Zn2   S    
C2    O4    A    
C20   H24   S    
N3    H8    S    
C7    N3    S    
O2    Zn2   S    
C8    C10   A    
C4    O6    A    
C13   N2    A    
C16   H6    S    
C3    C5    S    
N4    H9    S    
