data_mof_unit_55928.cif
_audit_creation_date              2012-12-11T17:25:09-0500
_audit_creation_method            fapswitch 2.2
_symmetry_space_group_name_H-M    P1
_symmetry_Int_Tables_number       1
_space_group_crystal_system       triclinic
_cell_length_a                    6.955369
_cell_length_b                    20.537303
_cell_length_c                    24.502473
_cell_angle_alpha                 90.058776
_cell_angle_beta                  90.465512
_cell_angle_gamma                 89.491153
_cell_volume                      3499.78887376

loop_
_atom_site_label
_atom_site_type_symbol
_atom_type_description
_atom_site_fract_x
_atom_site_fract_y
_atom_site_fract_z
_atom_type_partial_charge
O1    O     O_R   0.507280 0.423750 0.460310 -0.536035
O2    O     O_R   0.171030 0.555650 0.437630 -0.536772
O3    O     O_R   0.004080 0.576250 0.539690 -0.536246
C1    C     C_R   0.339070 0.575675 0.421788 0.724312
O4    O     O_R   0.177330 0.422980 0.453960 -0.537918
O5    O     O_R   0.010420 0.442640 0.556140 -0.535022
C2    C     C_R   0.346180 0.399124 0.443247 0.694460
O6    O     O_R   0.500930 0.557360 0.443860 -0.535023
O7    O     O_3   0.340310 0.506600 0.533500 -0.366666
V1    V     V_3+5 0.064140 0.498780 0.493780 1.424999
O8    O     O_R   0.680890 0.444350 0.562370 -0.537496
C3    C     C_R   0.850581 0.424400 0.578142 0.725566
O9    O     O_R   0.674590 0.577020 0.546040 -0.537687
C4    C     C_R   0.842746 0.600868 0.556762 0.694477
V2    V     V_3+5 0.564550 0.501220 0.506220 1.425350
O10   O     O_3   0.838250 0.493400 0.466500 -0.366785
C5    C     C_R   0.975895 0.838457 0.910901 -0.042604
C6    C     C_R   0.847600 0.661452 0.589054 -0.042720
C7    C     C_R   0.040163 0.722822 0.905354 -0.161181
C8    C     C_R   0.030998 0.780026 0.935715 -0.167347
C9    C     C_R   0.930445 0.839427 0.854849 -0.214698
C10   C     C_R   0.941939 0.781724 0.822521 0.086777
C11   C     C_R   0.997625 0.723159 0.849258 0.139141
C12   C     C_R   0.902891 0.780049 0.764807 0.057821
C13   C     C_R   0.920403 0.719849 0.735158 0.057821
C14   C     C_R   0.975684 0.663361 0.764247 -0.186650
C15   C     C_R   0.012918 0.665168 0.819954 -0.200894
C16   C     C_R   0.847503 0.836530 0.735723 -0.186671
C17   C     C_R   0.810198 0.834719 0.680020 -0.200890
C18   C     C_R   0.825573 0.776732 0.650711 0.139141
C19   C     C_R   0.881397 0.718178 0.677442 0.086781
C20   C     C_R   0.782983 0.777064 0.594618 -0.161175
C21   C     C_R   0.792280 0.719866 0.564251 -0.167275
C22   C     C_R   0.893083 0.660487 0.645103 -0.214648
H1    H     H_    0.055491 0.620419 0.840356 0.123597
H2    H     H_    0.932305 0.613857 0.662130 0.094083
H3    H     H_    0.754921 0.721063 0.521242 0.107592
H4    H     H_    0.767514 0.879459 0.659624 0.123596
H5    H     H_    0.083392 0.678149 0.925727 0.113852
H6    H     H_    0.068332 0.778825 0.978726 0.107521
H7    H     H_    0.891454 0.886071 0.837809 0.094043
H8    H     H_    0.992247 0.616473 0.745130 0.123837
H9    H     H_    0.830839 0.883411 0.754847 0.123831
H10   H     H_    0.739624 0.821728 0.574253 0.113860
H11   H     H_    0.619009 0.205944 0.793135 0.111633
C23   C     C_R   0.729923 0.269547 0.731272 -0.155667
H12   H     H_    0.587960 0.284214 0.717239 0.110987
C24   C     C_R   0.894275 0.294950 0.706414 0.136682
C25   C     C_R   0.076557 0.275009 0.725420 -0.156053
H13   H     H_    0.205186 0.293963 0.706794 0.111634
C26   C     C_R   0.094272 0.230361 0.768656 -0.155664
H14   H     H_    0.236234 0.215693 0.782690 0.110988
C27   C     C_R   0.929920 0.204957 0.793515 0.136681
C28   C     C_R   0.747637 0.224898 0.774509 -0.156054
C29   C     C_1   0.876339 0.341011 0.661419 -0.060677
C30   C     C_1   0.947859 0.158898 0.838511 -0.060689
C31   C     C_1   0.961064 0.120684 0.876283 -0.192099
C32   C     C_1   0.863145 0.379227 0.623648 -0.192146
H15   H     H_    0.698924 0.703624 0.297263 0.112364
C33   C     C_R   0.596681 0.768133 0.233855 -0.156017
H16   H     H_    0.740529 0.781501 0.221800 0.110885
C34   C     C_R   0.436079 0.795022 0.206663 0.136059
C35   C     C_R   0.251337 0.776600 0.223279 -0.155847
H17   H     H_    0.125292 0.796623 0.202915 0.112372
C36   C     C_R   0.227535 0.732118 0.266325 -0.156019
H18   H     H_    0.083687 0.718746 0.278377 0.110882
C37   C     C_R   0.388137 0.705227 0.293516 0.136066
C38   C     C_R   0.572879 0.723652 0.276901 -0.155853
C39   C     C_1   0.459837 0.841022 0.161751 -0.059763
C40   C     C_1   0.364382 0.659204 0.338411 -0.059757
C41   C     C_1   0.349007 0.620980 0.376149 -0.192722
C42   C     C_1   0.475222 0.879211 0.123989 -0.192615
C43   C     C_R   0.472855 0.161541 0.089132 -0.042675
C44   C     C_R   0.352119 0.338532 0.410951 -0.042997
C45   C     C_R   0.535884 0.276878 0.094978 -0.161305
C46   C     C_R   0.526593 0.219769 0.064528 -0.167067
C47   C     C_R   0.428966 0.160681 0.145078 -0.214684
C48   C     C_R   0.440841 0.218267 0.177518 0.086637
C49   C     C_R   0.495027 0.276628 0.150979 0.139142
C50   C     C_R   0.403712 0.219999 0.235162 0.057817
C51   C     C_R   0.421484 0.280059 0.264933 0.057813
C52   C     C_R   0.475184 0.336350 0.236036 -0.186693
C53   C     C_R   0.510619 0.334488 0.180398 -0.200847
C54   C     C_R   0.350056 0.163705 0.264062 -0.186670
C55   C     C_R   0.314617 0.165568 0.319700 -0.200864
C56   C     C_R   0.330151 0.223432 0.349115 0.139137
C57   C     C_R   0.384315 0.281795 0.322576 0.086690
C58   C     C_R   0.289242 0.223184 0.405114 -0.161287
C59   C     C_R   0.298427 0.280299 0.435557 -0.167076
C60   C     C_R   0.396083 0.339388 0.355009 -0.214763
H19   H     H_    0.433899 0.385892 0.338107 0.094390
H20   H     H_    0.273191 0.120977 0.339952 0.123652
H21   H     H_    0.578029 0.321388 0.074761 0.113888
H22   H     H_    0.562824 0.220875 0.021612 0.107729
H23   H     H_    0.391073 0.114182 0.161974 0.094515
H24   H     H_    0.491921 0.383116 0.255259 0.123866
H25   H     H_    0.333374 0.116935 0.244843 0.123895
H26   H     H_    0.247118 0.178672 0.425331 0.113881
O11   O     O_R   0.323320 0.942780 0.056240 -0.535087
O12   O     O_R   0.647300 0.077050 0.046060 -0.537818
O13   O     O_R   0.813840 0.057330 0.943840 -0.535032
C61   C     C_R   0.478547 0.100960 0.056820 0.694883
O14   O     O_R   0.653250 0.944380 0.062400 -0.536767
O15   O     O_R   0.819830 0.923720 0.960300 -0.536307
C62   C     C_R   0.485182 0.924449 0.078303 0.724238
O16   O     O_R   0.317330 0.076390 0.039790 -0.536333
O17   O     O_3   0.483830 0.993470 0.966560 -0.366780
V3    V     V_3+5 0.760140 0.001210 0.006210 1.425045
O18   O     O_R   0.149290 0.922840 0.953850 -0.538095
C63   C     C_R   0.981029 0.899048 0.943180 0.694098
O19   O     O_R   0.143340 0.055500 0.937510 -0.537606
C64   C     C_R   0.973654 0.075514 0.921791 0.725523
V4    V     V_3+5 0.259690 0.998600 0.993650 1.425624
O20   O     O_3   0.986130 0.006520 0.033440 -0.366674
H27   H     H_    0.552076 0.379077 0.160147 0.123634
H28   H     H_    0.262124 0.279197 0.478469 0.107683

loop_
_geom_bond_atom_site_label_1
_geom_bond_atom_site_label_2
_ccdc_geom_bond_type
C13   C19   A    
C24   C29   S    
O15   C63   A    
C35   C36   A    
C4    C6    S    
O2    C1    A    
C7    C8    A    
C1    O6    A    
C5    C63   S    
C25   C26   A    
C51   C52   A    
C47   C48   A    
O13   C64   A    
C45   H21   S    
C14   C15   A    
C17   C18   A    
C54   H25   S    
C44   C59   A    
C16   C17   A    
O5    C3    A    
C18   C19   A    
C8    H6    S    
C48   C50   A    
C31   C64   S    
V2    O10   S    
C5    C8    A    
C30   C31   T    
C33   C34   A    
V3    O20   S    
C25   H13   S    
O17   V4    S    
C46   H22   S    
O8    V2    S    
O19   C64   A    
C36   C37   A    
C17   H4    S    
O17   V3    S    
O14   V3    S    
O1    V2    S    
C11   C15   A    
O7    V1    S    
C22   H2    S    
C50   C54   A    
C3    C32   S    
C58   C59   A    
O13   V3    S    
C59   H28   S    
O9    C4    A    
C55   H20   S    
C2    C44   S    
O11   C62   A    
C23   C24   A    
O12   V3    S    
C52   H24   S    
O16   V4    S    
C26   H14   S    
C53   H27   S    
C12   C13   A    
O14   C62   A    
O4    C2    A    
C56   C57   A    
C15   H1    S    
C13   C14   A    
C55   C56   A    
C47   H23   S    
C21   H3    S    
C37   C38   A    
C34   C39   S    
C33   H16   S    
C26   C27   A    
C39   C42   T    
C7    C11   A    
C45   C46   A    
O5    V1    S    
C34   C35   A    
H15   C38   S    
C23   C28   A    
O12   C61   A    
C20   H10   S    
C19   C22   A    
O19   V4    S    
C54   C55   A    
C6    C22   A    
C51   C57   A    
O3    C4    A    
C7    H5    S    
C9    H7    S    
C43   C61   S    
H11   C28   S    
C36   H18   S    
O6    V2    S    
O9    V2    S    
C43   C46   A    
C10   C12   A    
C29   C32   T    
O2    V1    S    
O15   V3    S    
C40   C41   T    
C14   H8    S    
V4    O20   S    
C27   C30   S    
C23   H12   S    
C24   C25   A    
O1    C2    A    
C12   C16   A    
C50   C51   A    
O11   V4    S    
O8    C3    A    
C27   C28   A    
O18   V4    S    
C16   H9    S    
C37   C40   S    
C20   C21   A    
C44   C60   A    
O7    V2    S    
O4    V1    S    
O3    V1    S    
V1    O10   S    
O18   C63   A    
C18   C20   A    
C48   C49   A    
C60   H19   S    
C61   O16   A    
C56   C58   A    
C6    C21   A    
C5    C9    A    
C35   H17   S    
C49   C53   A    
C42   C62   S    
C33   C38   A    
C52   C53   A    
C57   C60   A    
C43   C47   A    
C10   C11   A    
C9    C10   A    
C45   C49   A    
C1    C41   S    
C58   H26   S    
