data_mof_unit_61905.cif
_audit_creation_date              2012-12-10T17:17:21-0500
_audit_creation_method            fapswitch 2.2
_symmetry_space_group_name_H-M    P1
_symmetry_Int_Tables_number       1
_space_group_crystal_system       triclinic
_cell_length_a                    18.77066
_cell_length_b                    18.768727
_cell_length_c                    18.809381
_cell_angle_alpha                 109.474771
_cell_angle_beta                  109.362413
_cell_angle_gamma                 109.399593
_cell_volume                      5112.23844903

loop_
_atom_site_label
_atom_site_type_symbol
_atom_type_description
_atom_site_fract_x
_atom_site_fract_y
_atom_site_fract_z
_atom_type_partial_charge
C1    C     C_R   0.118926 0.118985 0.499798 0.782936
C2    C     C_R   0.263324 0.003648 0.675734 0.096515
C3    C     C_R   0.191485 0.004592 0.684612 -0.099867
C4    C     C_R   0.183347 0.002327 0.755125 -0.195839
C5    C     C_R   0.244681 0.997798 0.816520 -0.193140
C6    C     C_R   0.315172 0.994991 0.808423 -0.099830
C7    C     C_R   0.194356 0.165958 0.424632 -0.157159
C8    C     C_R   0.258373 0.228358 0.422801 0.410360
C9    C     C_R   0.314800 0.312122 0.497666 -0.105844
C10   C     C_R   0.306725 0.331311 0.572165 -0.219848
C11   C     C_R   0.242035 0.268601 0.572685 -0.166462
C12   C     C_R   0.121224 0.002241 0.618612 0.782695
C13   C     C_R   0.185826 0.185634 0.499050 -0.112754
C14   C     C_R   0.743355 0.925669 0.247050 -0.221105
C15   C     C_R   0.677938 0.925516 0.184872 -0.226148
C16   C     C_R   0.686676 0.003957 0.189210 -0.106879
C17   C     C_R   0.761197 0.084180 0.257497 0.152421
C18   C     C_R   0.828423 0.084521 0.320027 0.379196
C19   C     C_R   0.817987 0.004277 0.314855 -0.140265
C20   C     C_R   0.819990 0.740807 0.496888 -0.163762
C21   C     C_R   0.756584 0.677386 0.498285 -0.162467
C22   C     C_R   0.685649 0.685742 0.499838 -0.008374
C23   C     C_R   0.881061 0.881068 0.500030 0.782568
C24   C     C_R   0.678876 0.758242 0.501354 -0.168937
C25   C     C_R   0.743807 0.823117 0.502940 -0.172931
C26   C     C_R   0.814080 0.814131 0.500007 -0.016566
C27   C     C_R   0.499962 0.881184 0.881027 0.763974
C28   C     C_R   0.381320 0.997705 0.878830 0.782973
C29   C     C_R   0.499864 0.119113 0.118978 0.806758
C30   C     C_R   0.618992 0.001299 0.120161 0.822304
C31   C     C_R   0.499926 0.619021 0.618901 0.775408
C32   C     C_R   0.381353 0.380746 0.499509 0.765815
C33   C     C_R   0.500567 0.381864 0.381499 0.753598
C34   C     C_R   0.882270 0.001227 0.381275 0.784154
C35   C     C_R   0.618846 0.618943 0.500003 0.763468
C36   C     C_R   0.578962 0.821540 0.821269 -0.171765
C37   C     C_R   0.578928 0.756681 0.757900 -0.173848
C38   C     C_R   0.499865 0.686118 0.685600 -0.014148
C39   C     C_R   0.420806 0.679892 0.677435 -0.172538
C40   C     C_R   0.420801 0.743245 0.742294 -0.176126
C41   C     C_R   0.499894 0.814422 0.813947 -0.011397
C42   C     C_R   0.530043 0.270305 0.195628 -0.151669
C43   C     C_R   0.531777 0.336156 0.259732 0.412637
C44   C     C_R   0.502704 0.317114 0.315074 -0.104219
C45   C     C_R   0.277117 0.012290 0.608799 -0.166521
C46   C     C_R   0.473551 0.233907 0.305837 -0.211498
C47   C     C_R   0.471540 0.168708 0.241092 -0.167620
C48   C     C_R   0.500059 0.186732 0.185943 -0.120249
C49   C     C_R   0.345410 0.006083 0.598524 -0.132921
C50   C     C_R   0.401148 0.991339 0.654390 -0.132672
C51   C     C_R   0.390861 0.985868 0.722786 -0.169001
C52   C     C_R   0.324005 0.995193 0.736505 0.095491
Cu1   Cu    Cu3+1 0.999980 0.061790 0.561790 0.972290
Cu2   Cu    Cu3+1 0.000020 0.938210 0.438210 0.959334
Cu3   Cu    Cu3+1 0.438200 0.938230 0.000040 0.957832
Cu4   Cu    Cu3+1 0.561800 0.061850 0.000040 0.974787
Cu5   Cu    Cu3+1 0.438190 0.500100 0.438300 0.981782
Cu6   Cu    Cu3+1 0.561810 0.500080 0.561880 0.962890
H1    H     H_    0.128456 0.002904 0.762087 0.158426
H2    H     H_    0.236607 0.284594 0.630869 0.164783
H3    H     H_    0.735172 0.864250 0.243036 0.167694
H4    H     H_    0.620862 0.863875 0.132418 0.167858
H5    H     H_    0.874299 0.733517 0.494896 0.144781
H6    H     H_    0.761986 0.621230 0.496695 0.144459
H7    H     H_    0.624286 0.765230 0.502853 0.140061
H8    H     H_    0.738556 0.879445 0.504946 0.143027
H9    H     H_    0.640397 0.876321 0.876670 0.144325
H10   H     H_    0.236426 0.025110 0.564560 0.150046
H11   H     H_    0.640364 0.762158 0.764474 0.143552
H12   H     H_    0.359369 0.625338 0.621833 0.144687
H13   H     H_    0.359388 0.737576 0.736013 0.142460
H14   H     H_    0.552151 0.284701 0.153108 0.175661
H15   H     H_    0.451281 0.219232 0.348168 0.155218
H16   H     H_    0.448685 0.104622 0.234792 0.164746
H17   H     H_    0.354712 0.012107 0.546570 0.140384
H18   H     H_    0.453031 0.984777 0.645124 0.139424
H19   H     H_    0.435028 0.973093 0.763651 0.148213
H20   H     H_    0.237743 0.997731 0.871460 0.159558
H21   H     H_    0.150982 0.101821 0.367392 0.173760
H22   H     H_    0.349908 0.395375 0.629561 0.151385
O1    O     O_R   0.090150 0.142360 0.552170 -0.583623
O2    O     O_R   0.552230 0.962090 0.909900 -0.593746
O3    O     O_R   0.357630 0.947820 0.909860 -0.582809
O4    O     O_R   0.462000 0.052220 0.909860 -0.586242
O5    O     O_R   0.447770 0.037990 0.090190 -0.586113
O6    O     O_R   0.552150 0.142390 0.090190 -0.583580
O7    O     O_R   0.538000 0.947860 0.090220 -0.592954
O8    O     O_R   0.642370 0.052260 0.090230 -0.552622
O9    O     O_R   0.447810 0.590260 0.538090 -0.584744
O10   O     O_R   0.552200 0.590240 0.642450 -0.583095
O11   O     O_R   0.357640 0.409920 0.447920 -0.572485
O12   O     O_R   0.090180 0.037990 0.447810 -0.597699
O13   O     O_R   0.462030 0.409900 0.552280 -0.579004
O14   O     O_R   0.447800 0.409940 0.357730 -0.571606
O15   O     O_R   0.552190 0.409920 0.462090 -0.580316
O16   O     O_R   0.537970 0.590270 0.447900 -0.581759
O17   O     O_R   0.642360 0.590260 0.552260 -0.585345
O18   O     O_R   0.090170 0.052200 0.642360 -0.580682
O19   O     O_R   0.090200 0.947840 0.538010 -0.588454
O20   O     O_R   0.909820 0.962010 0.552190 -0.584453
O21   O     O_R   0.909850 0.857640 0.447830 -0.580583
O22   O     O_R   0.909800 0.052160 0.461990 -0.569646
O23   O     O_R   0.909830 0.947800 0.357640 -0.579628
O24   O     O_R   0.447850 0.857690 0.909890 -0.583509
N1    N     N_3   0.767159 0.164352 0.262198 -0.549566
H23   H     H_    0.721045 0.172733 0.278064 0.201410
H24   H     H_    0.827801 0.218367 0.311435 0.275356
O25   O     O_3   0.902810 0.163390 0.383963 -0.738131
H25   H     H_    0.952094 0.153511 0.406890 0.326944
O26   O     O_3   0.563320 0.417277 0.266280 -0.728171
H26   H     H_    0.570146 0.460569 0.319317 0.318518
O27   O     O_3   0.263819 0.203987 0.347692 -0.731351
H27   H     H_    0.317008 0.249909 0.357297 0.317363

loop_
_geom_bond_atom_site_label_1
_geom_bond_atom_site_label_2
_ccdc_geom_bond_type
Cu3   Cu4   S    
C40   H13   S    
C37   H11   S    
C28   O4    A    
Cu2   O21   S    
Cu6   O15   S    
C33   O14   A    
C36   H9    S    
C7    C8    A    
C23   O21   A    
Cu1   Cu2   S    
C30   O8    A    
C22   C35   S    
N1    H24   S    
C34   O22   A    
Cu5   O9    S    
C36   C37   A    
Cu6   O13   S    
C17   N1    S    
C8    O27   S    
C5    C6    A    
Cu4   O8    S    
C32   O11   A    
C1    O1    A    
C15   C16   A    
C27   O24   A    
O25   H25   S    
Cu1   O1    S    
C18   C19   A    
C23   C26   S    
O26   H26   S    
C21   H6    S    
C3    C12   S    
C9    C32   S    
C15   H4    S    
C6    C28   S    
C16   C17   A    
C31   O9    A    
Cu5   O16   S    
C49   H17   S    
C43   O26   S    
C9    C10   A    
C29   O5    A    
C32   O13   A    
C2    C45   A    
C21   C22   A    
C28   O3    A    
C36   C41   A    
Cu6   O17   S    
C33   O15   A    
O27   H27   S    
C44   C46   A    
Cu4   O4    S    
Cu1   O20   S    
C29   C48   S    
C51   C52   A    
Cu2   O23   S    
C24   C25   A    
C39   C40   A    
C10   H22   S    
C8    C9    A    
C50   C51   A    
C25   C26   A    
C35   O16   A    
C14   H3    S    
Cu3   O24   S    
Cu3   O5    S    
C43   C44   A    
C51   H19   S    
Cu2   O12   S    
C37   C38   A    
C50   H18   S    
C27   C41   S    
Cu4   O6    S    
C47   C48   A    
C45   C49   A    
Cu1   O22   S    
C31   O10   A    
C45   H10   S    
C42   H14   S    
C17   C18   A    
C42   C48   A    
Cu6   O10   S    
C29   O6    A    
C2    C52   A    
C24   H7    S    
C40   C41   A    
C1    O12   A    
Cu5   O14   S    
C22   C24   A    
Cu2   O19   S    
C1    C13   S    
C42   C43   A    
Cu3   O3    S    
C3    C4    A    
C7    H21   S    
C46   C47   A    
Cu5   O11   S    
C33   C44   S    
C12   O18   A    
C14   C19   A    
C27   O2    A    
C25   H8    S    
C47   H16   S    
C4    C5    A    
C19   C34   S    
C12   O19   A    
Cu4   O2    S    
Cu1   O18   S    
N1    H23   S    
C34   O23   A    
C31   C38   S    
C20   H5    S    
C2    C3    A    
C5    H20   S    
C11   C13   A    
Cu5   Cu6   S    
C38   C39   A    
C20   C26   A    
C4    H1    S    
C39   H12   S    
C23   O20   A    
Cu3   O7    S    
C18   O25   S    
C10   C11   A    
C7    C13   A    
C20   C21   A    
C49   C50   A    
C14   C15   A    
C6    C52   A    
C30   O7    A    
C35   O17   A    
C16   C30   S    
C46   H15   S    
C11   H2    S    
