data_mof_unit_48618.cif
_audit_creation_date              2013-03-05T16:30:28-0500
_audit_creation_method            fapswitch 2.2
_symmetry_space_group_name_H-M    P1
_symmetry_Int_Tables_number       1
_space_group_crystal_system       triclinic
_cell_length_a                    8.575678
_cell_length_b                    14.761071
_cell_length_c                    14.195976
_cell_angle_alpha                 90.069567
_cell_angle_beta                  98.519621
_cell_angle_gamma                 90.53653
_cell_volume                      1777.10075576

loop_
_atom_site_label
_atom_site_type_symbol
_atom_site_description
_atom_site_fract_x
_atom_site_fract_y
_atom_site_fract_z
_atom_type_partial_charge
O1    O     O_R   0.500010 0.369070 0.579480 -0.569035
O2    O     O_R   0.499990 0.630930 0.420520 -0.637411
O3    O     O_R   0.500010 0.369060 0.420520 -0.620309
O4    O     O_R   0.499990 0.630940 0.579480 -0.623713
C1    C     C_R   0.504285 0.327133 0.500332 0.886362
C2    C     C_R   0.505381 0.672993 0.500561 0.879783
O5    O     O_R   0.271750 0.500000 0.560890 -0.615142
O6    O     O_R   0.728250 0.500000 0.439110 -0.571287
O7    O     O_R   0.271750 0.499990 0.401930 -0.629208
O8    O     O_R   0.728250 0.500010 0.598070 -0.633489
C3    C     C_R   0.201116 0.500146 0.475150 0.960715
C4    C     C_R   0.798875 0.501095 0.524823 0.964383
Zn1   Zn    Zn3+2 0.500000 0.500010 0.606140 0.970093
Zn2   Zn    Zn3+2 0.500000 0.499990 0.393860 0.966735
C5    C     C_2   0.036086 0.499045 0.461737 -0.364538
C6    C     C_2   0.963820 0.504728 0.538058 -0.408553
H1    H     H_    0.974653 0.491974 0.389387 0.221539
H2    H     H_    0.025316 0.512446 0.610329 0.170739
C7    C     C_R   0.522036 0.087086 0.578470 -0.143504
C8    C     C_R   0.539205 0.912504 0.424664 -0.148531
H3    H     H_    0.472665 0.044794 0.629237 0.168073
H4    H     H_    0.499998 0.953574 0.362572 0.164497
C9    C     C_R   0.484755 0.177876 0.573421 -0.166561
C10   C     C_R   0.501458 0.821317 0.421933 -0.220355
H5    H     H_    0.411986 0.205651 0.622378 0.189244
H6    H     H_    0.438861 0.792209 0.356863 0.158089
C11   C     C_R   0.536808 0.231508 0.503346 -0.098140
C12   C     C_R   0.539420 0.769071 0.503783 -0.092638
C13   C     C_R   0.633166 0.195545 0.441324 -0.268913
C14   C     C_R   0.623266 0.807051 0.586963 -0.260233
H7    H     H_    0.679000 0.238963 0.390128 0.198276
H8    H     H_    0.658949 0.764964 0.648726 0.186168
C15   C     C_R   0.675741 0.104675 0.447517 0.331807
C16   C     C_R   0.665502 0.898492 0.590076 0.329418
C17   C     C_R   0.614770 0.049856 0.515014 0.042242
C18   C     C_R   0.617360 0.951791 0.508742 0.048665
C19   C     C_R   0.371083 0.462630 0.094190 -0.266834
C20   C     C_R   0.567721 0.572411 0.900664 -0.265450
H9    H     H_    0.269471 0.433182 0.050093 0.153887
H10   H     H_    0.622013 0.629723 0.940857 0.160213
C21   C     C_R   0.376249 0.461946 0.193842 -0.072543
C22   C     C_R   0.569479 0.569801 0.801698 -0.075776
H11   H     H_    0.280240 0.431168 0.224269 0.163142
H12   H     H_    0.626308 0.624103 0.768117 0.160508
N1    N     N_R   0.500000 0.499980 0.252470 -0.133799
N2    N     N_R   0.500000 0.500020 0.747530 -0.132649
C23   C     C_R   0.620720 0.540475 0.214285 0.625820
C24   C     C_R   0.425311 0.431681 0.789082 0.635873
C25   C     C_R   0.621384 0.540214 0.115050 -0.344167
C26   C     C_R   0.424261 0.431193 0.888463 -0.353017
H13   H     H_    0.722329 0.568410 0.087506 0.151646
H14   H     H_    0.371221 0.374170 0.919992 0.157278
C27   C     C_R   0.495159 0.501998 0.052792 0.104208
C28   C     C_R   0.494902 0.502224 0.946189 0.097774
N3    N     N_R   0.779470 0.069128 0.385740 0.197632
O9    O     O_R   0.874379 0.003028 0.413852 -0.391543
O10   O     O_R   0.791175 0.108557 0.305093 -0.391888
N4    N     N_R   0.754674 0.936270 0.675387 0.202156
O11   O     O_R   0.847004 0.006135 0.670934 -0.374858
O12   O     O_R   0.755209 0.896091 0.756995 -0.394317
O13   O     O_3   0.748531 0.576501 0.273307 -0.646775
C29   C     C_3   0.732699 0.671436 0.281573 0.114157
H15   H     H_    0.755571 0.688525 0.358642 0.188089
H16   H     H_    0.612764 0.697549 0.253573 0.113778
C30   C     C_3   0.856592 0.720353 0.232623 -0.450353
H17   H     H_    0.975185 0.692716 0.259030 0.244341
H18   H     H_    0.830951 0.709060 0.154499 0.222577
C31   C     C_3   0.857865 0.821994 0.252621 -0.789599
H19   H     H_    0.740559 0.851339 0.226610 0.266999
H20   H     H_    0.947546 0.855937 0.215551 0.273131
H21   H     H_    0.888062 0.834927 0.330302 0.288812
O14   O     O_3   0.361830 0.358980 0.734617 -0.632953
C32   C     C_3   0.194909 0.360714 0.722495 0.051969
H22   H     H_    0.152216 0.363697 0.644872 0.186016
H23   H     H_    0.144393 0.420128 0.756042 0.112392
C33   C     C_3   0.131391 0.273113 0.760663 -0.371265
H24   H     H_    0.181814 0.213948 0.727618 0.247367
H25   H     H_    0.167524 0.269699 0.839006 0.222501
C34   C     C_3   0.951658 0.267960 0.738413 -0.831110
H26   H     H_    0.898188 0.325975 0.771517 0.254495
H27   H     H_    0.908940 0.204008 0.767345 0.295393
H28   H     H_    0.912899 0.268934 0.660168 0.261472

loop_
_geom_bond_atom_site_label_1
_geom_bond_atom_site_label_2
_geom_bond_distance
_ccdc_geom_bond_type
C15   N3    1.440304 S    
C20   H10   1.082017 S    
N3    O9    1.301269 A    
C11   C13   1.400894 A    
C32   H23   1.118413 S    
C32   H22   1.109567 S    
C17   C18   1.450756 S    
C33   C34   1.527992 S    
C23   C25   1.409590 A    
C27   C28   1.513014 S    
O5    C3    1.276700 A    
C26   C28   1.405988 A    
O1    C1    1.287602 A    
C7    H3    1.083941 S    
C10   H6    1.083453 S    
C20   C22   1.407714 A    
Zn1   N2    2.007170 S    
N4    O12   1.301569 A    
C5    C6    1.328416 D    
C13   C15   1.392904 A    
C22   N2    1.363134 A    
O4    Zn1   1.969822 S    
C29   H16   1.118529 S    
C1    C11   1.440847 S    
C3    C5    1.399702 S    
C2    C12   1.444560 S    
C4    C6    1.399580 S    
C31   H19   1.111067 S    
C30   H18   1.110282 S    
C26   H14   1.081576 S    
C9    C11   1.393710 A    
C19   C27   1.410595 A    
C24   C26   1.412199 A    
C21   H11   1.081536 S    
O2    C2    1.288770 A    
C22   H12   1.081531 S    
C24   O14   1.381344 S    
Zn2   N1    2.007170 S    
N1    C23   1.370537 A    
C19   H9    1.082021 S    
N2    C24   1.370067 A    
C14   C16   1.393189 A    
C8    C10   1.380589 A    
C33   H24   1.111724 S    
O4    C2    1.288068 A    
C34   H27   1.110434 S    
C25   H13   1.081407 S    
N4    O11   1.301603 A    
C7    C9    1.380158 A    
O7    Zn2   1.977620 S    
C29   H15   1.110813 S    
C20   C28   1.410710 A    
O6    C4    1.276344 A    
C30   C31   1.526244 S    
O7    C3    1.278247 A    
O3    Zn2   1.969822 S    
O8    C4    1.278572 A    
C31   H20   1.110313 S    
C8    H4    1.083899 S    
N3    O10   1.301573 A    
C32   C33   1.529158 S    
O1    Zn1   1.969072 S    
C5    H1    1.087067 S    
O6    Zn2   1.967608 S    
C29   C30   1.529289 S    
C10   C12   1.394860 A    
C33   H25   1.110750 S    
O14   C32   1.416712 S    
O3    C1    1.287592 A    
O8    Zn1   1.977618 S    
C23   O13   1.379159 S    
C34   H28   1.111408 S    
C12   C14   1.401760 A    
C13   H7    1.083739 S    
C7    C17   1.401842 A    
C14   H8    1.083378 S    
C31   H21   1.110642 S    
C25   C27   1.405336 A    
C15   C17   1.410208 A    
C16   C18   1.410536 A    
C9    H5    1.083124 S    
C19   C21   1.408823 A    
O13   C29   1.415573 S    
O2    Zn2   1.969072 S    
C34   H26   1.111169 S    
C8    C18   1.401480 A    
O5    Zn1   1.967610 S    
C6    H2    1.087180 S    
C30   H17   1.111962 S    
C16   N4    1.441670 S    
C21   N1    1.363869 A    
