data_mof_unit_58588.cif
_audit_creation_date              2012-10-26T20:06:10-0400
_audit_creation_method            fapswitch 2.2
_symmetry_space_group_name_H-M    P1
_symmetry_Int_Tables_number       1
_space_group_crystal_system       triclinic
_cell_length_a                    9.545302
_cell_length_b                    10.835333
_cell_length_c                    13.511358
_cell_angle_alpha                 91.423209
_cell_angle_beta                  72.630793
_cell_angle_gamma                 89.914986
_cell_volume                      1333.24172462

loop_
_atom_site_label
_atom_site_type_symbol
_atom_type_description
_atom_site_fract_x
_atom_site_fract_y
_atom_site_fract_z
_atom_type_partial_charge
C1    C     C_R   0.501845 0.737712 0.494334 0.603274
C2    C     C_R   0.373449 0.489867 0.813682 -0.005365
C3    C     C_R   0.608577 0.936515 0.521757 -0.156317
C4    C     C_R   0.421578 0.492255 0.699534 0.563331
C5    C     C_R   0.608452 0.064026 0.525192 -0.161341
C6    C     C_R   0.502725 0.129022 0.494713 -0.036352
C7    C     C_R   0.401222 0.066483 0.456603 -0.101949
C8    C     C_R   0.402538 0.938331 0.449640 0.263219
C9    C     C_R   0.503654 0.872024 0.487445 -0.000186
C10   C     C_R   0.900403 0.573948 0.570169 0.330523
C11   C     C_R   0.047792 0.569410 0.570114 0.074303
C12   C     C_R   0.436384 0.503901 0.977103 0.038660
C13   C     C_R   0.104241 0.429395 0.429466 -0.006818
C14   C     C_R   0.953716 0.425981 0.430744 0.351606
C15   C     C_R   0.500550 0.262422 0.499116 0.534928
C16   C     C_R   0.578253 0.498288 0.300208 0.560386
C17   C     C_R   0.797577 0.433267 0.022750 -0.137092
C18   C     C_R   0.621753 0.489371 0.186774 -0.002983
C19   C     C_R   0.229914 0.528086 0.865927 -0.183651
C20   C     C_R   0.191609 0.562170 0.969699 -0.129698
C21   C     C_R   0.297368 0.564439 0.022819 0.273610
C22   C     C_3   0.963454 0.236473 0.342408 -0.017934
C23   C     C_R   0.472284 0.464624 0.871005 0.002464
C24   C     C_3   0.065309 0.217285 0.232295 -0.378629
C25   C     C_3   0.227645 0.751131 0.112573 -0.002942
C26   C     C_3   0.074039 0.778715 0.184976 -0.331224
C27   C     C_R   0.543961 0.484761 0.029987 0.030810
C28   C     C_R   0.686658 0.440450 0.974290 0.052735
C29   C     C_R   0.714541 0.395959 0.872956 -0.081451
C30   C     C_R   0.606276 0.401604 0.824257 -0.073289
C31   C     C_R   0.512389 0.499414 0.137559 -0.093204
C32   C     C_R   0.766105 0.460955 0.128275 -0.144909
Cu1   Cu    Cu3+1 0.359340 0.499980 0.500000 0.985500
Cu2   Cu    Cu3+1 0.640660 0.500020 0.500000 1.079062
H1    H     H_    0.852105 0.452315 0.164955 0.163538
H2    H     H_    0.082057 0.597953 0.006653 0.130918
H3    H     H_    0.629731 0.355437 0.749248 0.132111
H4    H     H_    0.690100 0.888681 0.547520 0.224505
H5    H     H_    0.291723 0.689746 0.311192 0.379364
H6    H     H_    0.771905 0.713070 0.829054 0.370926
H7    H     H_    0.868392 0.174059 0.352013 0.168213
H8    H     H_    0.019195 0.206854 0.399742 0.126154
H9    H     H_    0.162710 0.277574 0.219047 0.146089
H10   H     H_    0.102664 0.119549 0.219505 0.152113
H11   H     H_    0.006213 0.239655 0.175465 0.151573
H12   H     H_    0.689291 0.111613 0.553447 0.149420
H13   H     H_    0.234746 0.782301 0.033117 0.121045
H14   H     H_    0.307303 0.808107 0.138412 0.219090
H15   H     H_    0.066468 0.752550 0.265321 0.209340
H16   H     H_    0.049209 0.878841 0.184829 0.124165
H17   H     H_    0.991034 0.726054 0.159170 0.137819
H18   H     H_    0.322880 0.118161 0.429830 0.165241
H19   H     H_    0.084695 0.625113 0.625031 0.187919
H20   H     H_    0.186364 0.375856 0.371995 0.124891
H21   H     H_    0.819342 0.353352 0.831976 0.115317
H22   H     H_    0.907496 0.402651 0.979601 0.112901
H23   H     H_    0.400888 0.508427 0.185774 0.192090
H24   H     H_    0.149372 0.540984 0.824982 0.157146
N1    N     N_R   0.147940 0.499970 0.499970 -0.301752
N2    N     N_R   0.852060 0.500060 0.499990 -0.249244
O1    O     O_R   0.381250 0.680340 0.500010 -0.438161
O2    O     O_2   0.234029 0.960713 0.322597 -0.350579
O3    O     O_3   0.369424 0.750797 0.309433 -0.526794
O4    O     O_2   0.877659 0.807020 0.640162 -0.293234
O5    O     O_2   0.640705 0.708681 0.677574 -0.270708
O6    O     O_3   0.814437 0.643473 0.780367 -0.571660
O7    O     O_3   0.909322 0.359470 0.356430 -0.535343
O8    O     O_3   0.263183 0.624870 0.118805 -0.599193
O9    O     O_R   0.618820 0.680370 0.500010 -0.467504
O10   O     O_R   0.323240 0.499950 0.650980 -0.524211
O11   O     O_R   0.560810 0.499980 0.650980 -0.455563
O12   O     O_R   0.381180 0.319630 0.499990 -0.520461
O13   O     O_R   0.618750 0.319660 0.499990 -0.496784
O14   O     O_R   0.439190 0.500020 0.349020 -0.521483
O15   O     O_R   0.676760 0.500050 0.349020 -0.460434
O16   O     O_2   0.150136 0.821906 0.467906 -0.267645
S1    S     S_3+6 0.282854 0.868499 0.387069 -0.015978
S2    S     S_3+6 0.799697 0.686076 0.665068 0.005763

loop_
_geom_bond_atom_site_label_1
_geom_bond_atom_site_label_2
_ccdc_geom_bond_type
C16   O15   A    
O2    S1    D    
C10   N2    A    
C19   C20   A    
C4    O10   A    
C10   S2    S    
C7    C8    A    
C15   O12   A    
C12   C23   A    
C16   O14   A    
C24   H11   S    
C28   C29   A    
C7    H18   S    
C26   H16   S    
C5    C6    A    
C22   H7    S    
Cu1   O12   S    
C6    C15   S    
C3    H4    S    
C8    C9    A    
C14   O7    S    
C25   H13   S    
C11   H19   S    
Cu2   O15   S    
Cu1   N1    S    
H6    O6    S    
C13   C14   A    
Cu2   N2    S    
C25   O8    S    
C11   N1    A    
C19   H24   S    
O6    S2    S    
C12   C27   A    
C27   C31   A    
C32   H1    S    
C1    C9    S    
O16   S1    D    
C26   H15   S    
C29   H21   S    
C25   C26   S    
C12   C21   A    
C1    O9    A    
C30   H3    S    
C2    C4    S    
C23   C30   A    
C29   C30   A    
C3    C9    A    
Cu2   O9    S    
Cu1   Cu2   S    
C17   H22   S    
Cu1   O10   S    
C16   C18   S    
C15   O13   A    
C21   O8    S    
C8    S1    S    
C24   H10   S    
C22   C24   S    
C18   C32   A    
C2    C23   A    
H5    O3    S    
C13   H20   S    
O3    S1    S    
C17   C32   A    
O5    S2    D    
C2    C19   A    
C17   C28   A    
O4    S2    D    
C3    C5    A    
C1    O1    A    
C6    C7    A    
C13   N1    A    
C14   N2    A    
C5    H12   S    
C31   H23   S    
C26   H17   S    
C22   H8    S    
C22   O7    S    
C10   C11   A    
Cu2   O13   S    
C20   H2    S    
Cu1   O14   S    
C20   C21   A    
Cu1   O1    S    
C27   C28   A    
C24   H9    S    
C18   C31   A    
C25   H14   S    
Cu2   O11   S    
C4    O11   A    
