data_mof_unit_33909.cif
_audit_creation_date              2012-12-10T19:13:23-0500
_audit_creation_method            fapswitch 2.2
_symmetry_space_group_name_H-M    P1
_symmetry_Int_Tables_number       1
_space_group_crystal_system       triclinic
_cell_length_a                    9.830363
_cell_length_b                    10.767209
_cell_length_c                    16.956427
_cell_angle_alpha                 90.901652
_cell_angle_beta                  84.757059
_cell_angle_gamma                 90.304766
_cell_volume                      1787.01891529

loop_
_atom_site_label
_atom_site_type_symbol
_atom_type_description
_atom_site_fract_x
_atom_site_fract_y
_atom_site_fract_z
_atom_type_partial_charge
C1    C     C_R   0.500629 0.742335 0.499865 0.923884
C2    C     C_R   0.348004 0.495244 0.786244 0.107442
C3    C     C_R   0.446943 0.632973 0.155731 -0.143083
C4    C     C_R   0.435274 0.597834 0.233772 -0.091816
C5    C     C_R   0.640263 0.470294 0.210223 -0.005721
C6    C     C_R   0.649728 0.506021 0.130912 -0.125534
C7    C     C_R   0.552413 0.585093 0.103648 0.133568
C8    C     C_2   0.441003 0.614330 0.982818 -0.195446
C9    C     C_2   0.556353 0.606425 0.018956 -0.199218
C10   C     C_R   0.531509 0.518302 0.262220 -0.096254
C11   C     C_3   0.367367 0.927447 0.469368 -0.460061
C12   C     C_R   0.480376 0.501567 0.652725 0.839931
C13   C     C_3   0.357177 0.068694 0.477576 -0.075657
C14   C     C_3   0.508331 0.934244 0.584996 -0.249294
C15   C     C_3   0.627199 0.929365 0.438650 0.032651
C16   C     C_3   0.503984 0.879805 0.498138 0.007428
C17   C     C_3   0.498705 0.122812 0.498453 0.007869
C18   C     C_3   0.534549 0.076399 0.581389 -0.210526
C19   C     C_3   0.614463 0.075103 0.434493 -0.311864
C20   C     C_3   0.914658 0.624093 0.527668 0.004817
C21   C     C_3   0.077803 0.632400 0.516281 0.041108
C22   C     C_3   0.911334 0.405587 0.555629 -0.293354
C23   C     C_R   0.499558 0.258587 0.498839 0.914930
C24   C     C_3   0.931818 0.467661 0.421280 -0.156048
C25   C     C_3   0.070041 0.421278 0.563942 -0.353619
C26   C     C_3   0.092294 0.454058 0.423972 -0.130271
C27   C     C_R   0.519504 0.498607 0.347286 0.988029
C28   C     C_R   0.467405 0.525705 0.737825 -0.018079
C29   C     C_R   0.572562 0.592369 0.769824 -0.255424
C30   C     C_R   0.559247 0.631145 0.847871 -0.120894
C31   C     C_R   0.444183 0.596430 0.897267 0.167334
C32   C     C_R   0.337491 0.530792 0.866190 -0.193846
H1    H     H_    0.664785 0.617684 0.734359 0.160597
H2    H     H_    0.729776 0.468352 0.089244 0.175853
H3    H     H_    0.279546 0.885977 0.504938 0.222425
H4    H     H_    0.356095 0.900166 0.407065 0.256675
H5    H     H_    0.332862 0.104429 0.419588 0.253385
H6    H     H_    0.405035 0.918948 0.616120 0.144115
H7    H     H_    0.352607 0.636805 0.272632 0.218376
H8    H     H_    0.712471 0.115776 0.451102 0.118794
H9    H     H_    0.644687 0.096788 0.585568 0.188414
H10   H     H_    0.872556 0.695954 0.491820 0.209189
H11   H     H_    0.852143 0.408907 0.614496 0.182146
H12   H     H_    0.084247 0.458411 0.623918 0.154937
H13   H     H_    0.888283 0.377392 0.402390 0.094928
H14   H     H_    0.145107 0.505001 0.374103 0.201491
H15   H     H_    0.891218 0.310348 0.532843 0.150451
H16   H     H_    0.119841 0.329096 0.562510 0.193179
H17   H     H_    0.654293 0.593794 0.984741 0.149351
H18   H     H_    0.248421 0.503257 0.904463 0.139263
H19   H     H_    0.372853 0.697085 0.136288 0.148590
H20   H     H_    0.341901 0.612127 0.016817 0.154872
H21   H     H_    0.640898 0.685903 0.869742 0.153457
N1    N     N_3   0.861190 0.500250 0.501720 -0.069690
N2    N     N_3   0.138550 0.503270 0.501080 -0.111701
O1    O     O_R   0.383960 0.685090 0.500020 -0.609672
O2    O     O_R   0.616040 0.685320 0.499960 -0.605454
O3    O     O_R   0.370240 0.499890 0.615830 -0.641528
O4    O     O_R   0.602330 0.500120 0.615770 -0.659025
O5    O     O_R   0.383960 0.314680 0.500040 -0.596017
O6    O     O_R   0.616040 0.314910 0.499980 -0.658863
O7    O     O_R   0.397670 0.499880 0.384230 -0.557790
O8    O     O_R   0.629760 0.500110 0.384170 -0.603507
Zn1   Zn    Zn3+2 0.345040 0.499850 0.500040 0.987667
Zn2   Zn    Zn3+2 0.654960 0.500150 0.499960 0.950321
N3    N     N_3   0.242854 0.105118 0.535412 -0.468542
H22   H     H_    0.244263 0.055748 0.587767 0.220214
H23   H     H_    0.151528 0.079640 0.512252 0.186401
C33   C     C_2   0.461380 0.143372 0.652466 0.384935
H24   H     H_    0.383010 0.211771 0.645480 0.086932
O9    O     O_2   0.491114 0.121610 0.719196 -0.517254
N4    N     N_3   0.759159 0.898376 0.468311 -0.448273
H25   H     H_    0.775319 0.949043 0.519435 0.221707
H26   H     H_    0.839332 0.924040 0.426749 0.152698
C34   C     C_2   0.630379 0.868353 0.355958 0.514412
H27   H     H_    0.715099 0.888605 0.312357 0.063742
O10   O     O_2   0.543192 0.795541 0.337247 -0.598163
C35   C     C_2   0.607165 0.124515 0.350995 0.333213
H28   H     H_    0.692519 0.107861 0.306932 0.073637
O11   O     O_2   0.511205 0.185417 0.332289 -0.559325
C36   C     C_2   0.599599 0.867134 0.637354 0.483482
H29   H     H_    0.571243 0.773970 0.655255 0.011004
O12   O     O_2   0.698577 0.916630 0.663437 -0.527639
N5    N     N_3   0.861394 0.658622 0.608795 -0.403539
H30   H     H_    0.756227 0.663506 0.611847 0.232769
H31   H     H_    0.890850 0.597750 0.651265 0.172140
C37   C     C_2   0.114766 0.723245 0.448736 0.370967
H32   H     H_    0.061105 0.811170 0.448796 0.077513
O13   O     O_2   0.205375 0.704264 0.396091 -0.590142
C38   C     C_2   0.131749 0.693883 0.589195 0.368594
H33   H     H_    0.191789 0.643333 0.627719 0.117739
O14   O     O_2   0.102334 0.801243 0.607881 -0.605558
C39   C     C_2   0.739569 0.378930 0.235719 0.393809
H34   H     H_    0.728457 0.341506 0.294681 0.074270
O15   O     O_2   0.835898 0.343365 0.190560 -0.577973
C40   C     C_2   0.906085 0.554669 0.354170 0.390321
H35   H     H_    0.950223 0.530926 0.294889 0.088741
O16   O     O_2   0.839103 0.649527 0.363458 -0.566040
C41   C     C_2   0.135217 0.320885 0.405786 0.447049
H36   H     H_    0.086348 0.245570 0.439202 0.024731
O17   O     O_2   0.219867 0.296142 0.350603 -0.527549
N6    N     N_3   0.239992 0.425161 0.755372 -0.460582
H37   H     H_    0.226637 0.343261 0.787534 0.207148
H38   H     H_    0.150095 0.476790 0.765255 0.174203

loop_
_geom_bond_atom_site_label_1
_geom_bond_atom_site_label_2
_ccdc_geom_bond_type
C10   C27   S    
C15   C34   S    
C37   H32   S    
C21   C37   S    
C39   H34   S    
C14   C18   S    
N3    H23   S    
C26   N2    S    
O8    Zn2   S    
C36   H29   S    
C22   N1    S    
N1    Zn2   S    
C15   C19   S    
C15   N4    S    
C17   C23   S    
C12   C28   S    
C24   H13   S    
C28   C29   A    
C1    O1    A    
C24   C26   S    
C3    C7    A    
C24   C40   S    
C30   C31   A    
C35   O11   D    
C2    N6    S    
C24   N1    S    
C15   C16   S    
C29   H1    S    
C2    C32   A    
C33   O9    D    
O7    Zn1   S    
C12   O4    A    
C22   H11   S    
C8    C9    D    
C22   C25   S    
C40   O16   D    
O1    Zn1   S    
C8    H20   S    
C13   H5    S    
C26   C41   S    
C13   N3    S    
C12   O3    A    
C5    C39   S    
C18   C33   S    
C22   H15   S    
C39   O15   D    
C40   H35   S    
N6    H37   S    
C25   H12   S    
C36   O12   D    
C21   C38   S    
O3    Zn1   S    
C23   O5    A    
C30   H21   S    
C9    H17   S    
N5    H30   S    
N4    H26   S    
C18   H9    S    
C21   N2    S    
C3    H19   S    
C35   H28   S    
C6    H2    S    
C19   C35   S    
C34   H27   S    
C29   C30   A    
C27   O7    A    
C1    O2    A    
C14   H6    S    
C11   C16   S    
C38   O14   D    
C41   H36   S    
C4    H7    S    
N2    Zn1   S    
C17   C18   S    
C1    C16   S    
N6    H38   S    
C34   O10   D    
C25   H16   S    
C32   H18   S    
C27   O8    A    
C20   N1    S    
C41   O17   D    
C20   N5    S    
C14   C16   S    
C4    C10   A    
C3    C4    A    
C7    C9    S    
C11   H4    S    
C8    C31   S    
C31   C32   A    
C25   N2    S    
O2    Zn2   S    
N4    H25   S    
C20   H10   S    
C6    C7    A    
C13   C17   S    
O5    Zn1   S    
C11   H3    S    
C5    C10   A    
O4    Zn2   S    
C11   C13   S    
C38   H33   S    
C5    C6    A    
C17   C19   S    
N3    H22   S    
C33   H24   S    
C19   H8    S    
C26   H14   S    
O6    Zn2   S    
C23   O6    A    
C20   C21   S    
C37   O13   D    
N5    H31   S    
C2    C28   A    
C14   C36   S    
