data_mof_unit_34274.cif
_audit_creation_date              2013-03-05T16:07:03-0500
_audit_creation_method            fapswitch 2.2
_symmetry_space_group_name_H-M    P1
_symmetry_Int_Tables_number       1
_space_group_crystal_system       triclinic
_cell_length_a                    16.908067
_cell_length_b                    7.24316
_cell_length_c                    16.821991
_cell_angle_alpha                 90.000863
_cell_angle_beta                  100.324783
_cell_angle_gamma                 89.99848
_cell_volume                      2026.79400391

loop_
_atom_site_label
_atom_site_type_symbol
_atom_site_description
_atom_site_fract_x
_atom_site_fract_y
_atom_site_fract_z
_atom_type_partial_charge
O1    O     O_R   0.413450 0.494370 0.415710 -0.588241
O2    O     O_R   0.586550 0.994370 0.584290 -0.588245
O3    O     O_R   0.578420 0.819350 0.429360 -0.590048
O4    O     O_R   0.421580 0.319350 0.570640 -0.590045
C1    C     C_R   0.604927 0.654247 0.413895 0.958697
C2    C     C_R   0.395075 0.154253 0.586107 0.958681
O5    O     O_R   0.413570 0.823780 0.406240 -0.597362
O6    O     O_R   0.586430 0.323780 0.593760 -0.597362
O7    O     O_R   0.420530 0.998740 0.561000 -0.591050
O8    O     O_R   0.579470 0.498740 0.439000 -0.591069
C3    C     C_R   0.386081 0.655353 0.383789 0.959200
C4    C     C_R   0.613918 0.155352 0.616211 0.959194
O9    O     O_3   0.502480 0.662320 0.550800 -0.288094
O10   O     O_3   0.497520 0.162320 0.449200 -0.288102
V1    V     V_3+5 0.499540 0.935370 0.490580 1.166825
V2    V     V_3+5 0.500460 0.435370 0.509420 1.166826
C5    C     C_R   0.743506 0.012877 0.687056 0.194842
C6    C     C_R   0.256497 0.512877 0.312943 0.194827
C7    C     C_R   0.683612 0.147764 0.683622 -0.260253
C8    C     C_R   0.316388 0.647765 0.316379 -0.260255
C9    C     C_R   0.693957 0.281731 0.745299 -0.256236
C10   C     C_R   0.306041 0.781729 0.254701 -0.256221
H1    H     H_    0.649735 0.390356 0.744311 0.176312
H2    H     H_    0.350261 0.890351 0.255689 0.176315
C11   C     C_R   0.757499 0.268962 0.812179 0.506177
C12   C     C_R   0.242500 0.768956 0.187820 0.506170
C13   C     C_R   0.815351 0.124493 0.816971 -0.318735
C14   C     C_R   0.184650 0.624491 0.183028 -0.318709
C15   C     C_R   0.807921 0.002864 0.751238 0.082455
C16   C     C_R   0.192082 0.502863 0.248760 0.082458
C17   C     C_3   0.808040 0.796836 0.749320 -0.392755
C18   C     C_3   0.191970 0.296835 0.250674 -0.392737
C19   C     C_3   0.737491 0.807905 0.679291 -0.438192
C20   C     C_3   0.262518 0.307906 0.320702 -0.438194
H3    H     H_    0.791990 0.735782 0.804804 0.253497
H4    H     H_    0.208022 0.235789 0.195188 0.253520
H5    H     H_    0.863522 0.740485 0.731612 0.196635
H6    H     H_    0.136490 0.240477 0.268379 0.196622
H7    H     H_    0.680663 0.752374 0.694392 0.210669
H8    H     H_    0.319348 0.252382 0.305600 0.210676
H9    H     H_    0.752398 0.758085 0.621237 0.192562
H10   H     H_    0.247612 0.258079 0.378756 0.192552
C21   C     C_R   0.332090 0.134775 0.636979 -0.180848
C22   C     C_R   0.667909 0.634744 0.363018 -0.180909
C23   C     C_R   0.169877 0.133028 0.865788 -0.271193
C24   C     C_R   0.830121 0.633056 0.134210 -0.271233
C25   C     C_R   0.283815 0.303577 0.831348 -0.193995
C26   C     C_R   0.716239 0.803744 0.168708 -0.193699
C27   C     C_R   0.230587 0.269095 0.884369 0.523865
C28   C     C_R   0.769450 0.769241 0.115673 0.523826
C29   C     C_R   0.167325 0.026410 0.795523 -0.215133
C30   C     C_R   0.832636 0.526330 0.204438 -0.215036
C31   C     C_R   0.222755 0.056678 0.742831 0.032258
C32   C     C_R   0.777215 0.556610 0.257140 0.032201
C33   C     C_R   0.279807 0.201540 0.760088 0.114736
C34   C     C_R   0.720216 0.701602 0.239935 0.114729
C35   C     C_R   0.333291 0.240821 0.706842 -0.172863
C36   C     C_R   0.666747 0.740902 0.293194 -0.172732
C37   C     C_R   0.275553 0.991211 0.620133 -0.251234
C38   C     C_R   0.724393 0.491048 0.379812 -0.251216
C39   C     C_R   0.221610 0.949696 0.672157 0.356033
C40   C     C_R   0.778317 0.449508 0.327771 0.355970
H11   H     H_    0.377803 0.349167 0.721308 0.137986
H12   H     H_    0.622274 0.849353 0.278766 0.137999
H13   H     H_    0.275085 0.906060 0.567061 0.169661
H14   H     H_    0.724830 0.405806 0.432851 0.169701
H15   H     H_    0.328791 0.410789 0.846164 0.168076
H16   H     H_    0.671298 0.911053 0.153926 0.168062
H17   H     H_    0.119660 0.925875 0.780762 0.187334
H18   H     H_    0.880266 0.425694 0.219168 0.187363
O11   O     O_R   0.920630 0.775410 0.061150 -0.562575
O12   O     O_R   0.079370 0.275410 0.938850 -0.562595
O13   O     O_R   0.086500 0.441450 0.093690 -0.583370
O14   O     O_R   0.913500 0.941450 0.906310 -0.583375
C41   C     C_R   0.115309 0.610275 0.114924 1.025410
C42   C     C_R   0.884691 0.110276 0.885075 1.025452
O15   O     O_R   0.921670 0.445960 0.070740 -0.573295
O16   O     O_R   0.078330 0.945960 0.929260 -0.573302
O17   O     O_R   0.913380 0.271130 0.915780 -0.564804
O18   O     O_R   0.086620 0.771130 0.084220 -0.564805
C43   C     C_R   0.894690 0.615244 0.084811 1.016482
C44   C     C_R   0.105307 0.115238 0.915186 1.016472
O19   O     O_3   0.997500 0.603030 0.949220 -0.279870
O20   O     O_3   0.002500 0.103030 0.050780 -0.279839
V3    V     V_3+5 0.000470 0.329940 0.009420 1.275165
V4    V     V_3+5 0.999530 0.829940 0.990580 1.275163
N1    N     N_R   0.168918 0.793868 0.653679 0.229506
O21   O     O_R   0.135263 0.761370 0.579192 -0.373199
O22   O     O_R   0.166667 0.666480 0.707800 -0.404370
N2    N     N_R   0.830936 0.293522 0.346182 0.229496
O23   O     O_R   0.864573 0.260787 0.420658 -0.373206
O24   O     O_R   0.833132 0.166228 0.292004 -0.404425
Cl1   Cl    Cl    0.244012 0.398022 0.974809 -0.576863
Cl2   Cl    Cl    0.756051 0.898294 0.025267 -0.576843
Cl3   Cl    Cl    0.755219 0.423229 0.892850 -0.609978
Cl4   Cl    Cl    0.244780 0.923214 0.107149 -0.609945

loop_
_geom_bond_atom_site_label_1
_geom_bond_atom_site_label_2
_geom_bond_distance
_ccdc_geom_bond_type
N1    O21   1.301422 A    
C13   C15   1.401710 A    
C5    C15   1.391277 A    
C23   C44   1.491390 S    
O1    C3    1.331548 A    
C42   O17   1.330305 A    
O2    C4    1.331546 A    
C2    O7    1.302892 A    
O12   V3    1.978026 S    
C25   C27   1.398440 A    
O5    C3    1.335670 A    
C19   H7    1.112228 S    
O14   C42   1.340825 A    
C20   H8    1.112226 S    
C18   H4    1.109573 S    
C10   H2    1.083455 S    
C7    C9    1.408396 A    
C23   C29   1.406066 A    
C24   C43   1.491398 S    
C24   C30   1.406081 A    
C38   C40   1.405088 A    
O18   V4    1.999901 S    
C39   N1    1.437036 S    
C31   C39   1.416322 A    
C22   C36   1.401068 A    
C20   H10   1.111626 S    
C17   C19   1.520971 S    
C6    C16   1.391284 A    
C23   C27   1.416949 A    
C41   O18   1.330306 A    
C21   C37   1.406534 A    
O16   V4    2.009511 S    
C26   C28   1.398419 A    
C38   H14   1.083963 S    
O6    V2    2.009935 S    
C36   H12   1.084411 S    
O13   C41   1.340829 A    
C5    C19   1.492248 S    
C25   H15   1.084218 S    
C30   C32   1.417712 A    
C35   H11   1.084376 S    
C31   C33   1.419648 A    
C12   Cl4   1.763599 S    
C32   C34   1.419672 A    
C3    C8    1.482742 S    
C37   C39   1.405100 A    
O20   V3    1.782686 S    
O4    C2    1.319226 A    
C28   Cl2   1.764782 S    
C32   C40   1.416320 A    
C26   H16   1.084251 S    
C17   H5    1.111519 S    
C29   C31   1.417725 A    
C18   C20   1.520966 S    
O4    V2    2.009469 S    
C33   C35   1.411167 A    
O11   V4    1.978050 S    
O16   C44   1.343946 A    
N2    O24   1.301618 A    
O15   C43   1.343963 A    
O6    C4    1.335663 A    
O1    V2    2.000161 S    
O14   V4    2.009627 S    
O2    V1    2.000169 S    
C6    C20   1.492247 S    
O13   V3    2.009642 S    
C1    C22   1.487660 S    
C8    C10   1.408392 A    
C11   Cl3   1.763603 S    
C18   H6    1.111516 S    
C2    C21   1.487649 S    
C9    H1    1.083456 S    
C17   H3    1.109575 S    
C13   C42   1.488685 S    
O17   V3    1.999907 S    
O3    V1    2.009428 S    
C25   C33   1.399516 A    
C26   C34   1.399527 A    
C9    C11   1.412560 A    
O3    C1    1.319245 A    
C11   C13   1.424765 A    
C24   C28   1.416986 A    
C12   C14   1.424764 A    
C19   H9    1.111629 S    
C14   C16   1.401707 A    
O7    V1    1.991437 S    
C1    O8    1.302885 A    
C15   C17   1.492652 S    
O8    V2    1.991465 S    
C37   H13   1.083958 S    
C16   C18   1.492649 S    
N2    O23   1.301478 A    
C22   C38   1.406574 A    
C40   N2    1.437071 S    
C4    C7    1.482739 S    
O5    V1    2.009947 S    
C5    C7    1.400853 A    
C34   C36   1.411144 A    
C6    C8    1.400855 A    
C30   H18   1.081550 S    
C21   C35   1.401056 A    
O15   V3    2.009470 S    
O19   V4    1.782668 S    
C10   C12   1.412558 A    
O9    V2    1.783074 S    
N1    O22   1.301592 A    
O10   V1    1.783092 S    
C29   H17   1.081540 S    
C27   Cl1   1.764759 S    
C14   C41   1.488686 S    
O12   C44   1.326377 A    
O11   C43   1.326371 A    
