data_mof_unit_6506.cif
_audit_creation_date              2012-12-11T16:56:09-0500
_audit_creation_method            fapswitch 2.2
_symmetry_space_group_name_H-M    P1
_symmetry_Int_Tables_number       1
_space_group_crystal_system       triclinic
_cell_length_a                    6.958088
_cell_length_b                    14.531941
_cell_length_c                    16.192586
_cell_angle_alpha                 90.429858
_cell_angle_beta                  90.017744
_cell_angle_gamma                 90.005744
_cell_volume                      1637.25946433

loop_
_atom_site_label
_atom_site_type_symbol
_atom_type_description
_atom_site_fract_x
_atom_site_fract_y
_atom_site_fract_z
_atom_type_partial_charge
O1    O     O_R   0.505830 0.583360 0.413880 -0.545843
O2    O     O_R   0.175830 0.595460 0.585520 -0.513337
O3    O     O_R   0.005520 0.416640 0.586120 -0.544307
C1    C     C_R   0.344631 0.617806 0.614158 0.751529
O4    O     O_R   0.176120 0.594390 0.414490 -0.542293
O5    O     O_R   0.005810 0.415570 0.413870 -0.532246
C2    C     C_R   0.344873 0.616276 0.385918 0.686409
O6    O     O_R   0.505540 0.584430 0.586130 -0.547844
O7    O     O_3   0.339200 0.441330 0.500000 -0.359075
V1    V     V_3+5 0.064350 0.510880 0.500000 1.486042
O8    O     O_R   0.676100 0.404540 0.414480 -0.535785
C3    C     C_R   0.845127 0.382502 0.385765 0.705249
O9    O     O_R   0.675810 0.405610 0.585510 -0.539099
C4    C     C_R   0.845023 0.383770 0.613688 0.745108
V2    V     V_3+5 0.564340 0.489120 0.500000 1.469089
O10   O     O_3   0.839360 0.558670 0.500000 -0.369578
C5    C     C_2   0.720907 0.209053 0.786147 -0.124521
C6    C     C_2   0.885601 0.181841 0.822634 -0.308177
H1    H     H_    0.585374 0.180403 0.807068 0.138502
H2    H     H_    0.022801 0.209819 0.803832 0.127790
C7    C     C_2   0.708556 0.277581 0.718197 -0.125656
C8    C     C_2   0.861535 0.315553 0.680545 -0.296621
H3    H     H_    0.564982 0.296704 0.698350 0.137954
H4    H     H_    0.006249 0.297118 0.698524 0.130759
C9    C     C_R   0.729336 0.180291 0.243716 0.020007
C10   C     C_R   0.882632 0.180405 0.187583 -0.103655
C11   C     C_R   0.033259 0.243104 0.202589 -0.166956
H5    H     H_    0.155200 0.245488 0.161359 0.116740
C12   C     C_R   0.021600 0.307917 0.267543 -0.097483
C13   C     C_R   0.859072 0.311941 0.319454 -0.173112
C14   C     C_R   0.717857 0.244397 0.308039 0.104549
C15   C     C_3   0.506512 0.255028 0.297123 0.514143
C16   C     C_3   0.518765 0.184682 0.227435 -0.451610
H6    H     H_    0.486567 0.213886 0.165722 0.120543
H7    H     H_    0.445421 0.118584 0.241239 0.206460
C17   C     C_R   0.495202 0.676212 0.745899 -0.012647
C18   C     C_R   0.352356 0.683274 0.685099 -0.214050
C19   C     C_R   0.210288 0.751588 0.697011 0.604603
C20   C     C_R   0.220979 0.813558 0.764432 -0.253188
H8    H     H_    0.113368 0.867089 0.769816 0.151506
C21   C     C_R   0.376085 0.810943 0.820624 -0.179685
C22   C     C_R   0.507894 0.738807 0.811278 0.085828
C23   C     C_3   0.722067 0.740060 0.808034 -0.365842
C24   C     C_3   0.708151 0.671077 0.737129 -0.331705
H9    H     H_    0.787962 0.710779 0.864580 0.155125
H10   H     H_    0.765089 0.601940 0.752932 0.149027
H11   H     H_    0.757162 0.698545 0.676968 0.243430
C25   C     C_R   0.509310 0.746478 0.311873 0.129402
C26   C     C_R   0.352958 0.686425 0.319811 -0.107547
C27   C     C_R   0.200701 0.696525 0.263231 -0.178385
C28   C     C_R   0.212471 0.759978 0.197900 -0.177956
H12   H     H_    0.096865 0.762757 0.153378 0.128670
C29   C     C_R   0.377502 0.814770 0.186799 -0.113180
C30   C     C_R   0.521356 0.808957 0.247046 0.118353
C31   C     C_3   0.731272 0.792699 0.236699 -0.420198
C32   C     C_3   0.718246 0.725041 0.307563 -0.401013
H13   H     H_    0.817740 0.854908 0.251830 0.187125
H14   H     H_    0.764844 0.759308 0.176443 0.166158
H15   H     H_    0.796568 0.748293 0.363808 0.195586
H16   H     H_    0.745050 0.652497 0.288564 0.156392
O11   O     O_R   0.229930 0.912420 0.917160 -0.541331
O12   O     O_R   0.559420 0.902500 0.088780 -0.540541
O13   O     O_R   0.729660 0.081330 0.089380 -0.536089
C33   C     C_R   0.390389 0.880464 0.117232 0.698959
O14   O     O_R   0.559650 0.901420 0.917750 -0.540146
O15   O     O_R   0.729880 0.080250 0.917130 -0.537789
C34   C     C_R   0.390567 0.879667 0.888694 0.728455
O16   O     O_R   0.229700 0.913500 0.089410 -0.538356
O17   O     O_3   0.396250 0.055540 0.003280 -0.372547
V3    V     V_3+5 0.671130 0.986010 0.003260 1.404094
O18   O     O_R   0.059600 0.091310 0.917720 -0.545705
C35   C     C_R   0.890888 0.113213 0.889562 0.742363
O19   O     O_R   0.059370 0.092380 0.088750 -0.543143
C36   C     C_R   0.890602 0.114515 0.117365 0.710968
V4    V     V_3+5 0.171120 0.007820 0.003230 1.398675
O20   O     O_3   0.896130 0.938240 0.003240 -0.372940
F1    F     F_    0.070211 0.763729 0.639896 -0.701160
H17   H     H_    0.779694 0.808024 0.789057 0.189217
H18   H     H_    0.077498 0.651523 0.266618 0.125519
H19   H     H_    0.135296 0.358121 0.274462 0.120378
H20   H     H_    0.464183 0.325220 0.277433 0.001329
F2    F     F_    0.406293 0.222419 0.364679 -0.649693

loop_
_geom_bond_atom_site_label_1
_geom_bond_atom_site_label_2
_ccdc_geom_bond_type
C9    C14   A    
C31   C32   S    
C11   C12   A    
C21   C22   A    
C17   C22   A    
C1    O6    A    
C27   H18   S    
C20   C21   A    
C29   C30   A    
O11   V4    S    
C23   H17   S    
C25   C30   A    
C15   H20   S    
C10   C11   A    
C12   C13   A    
C33   O16   A    
C17   C18   A    
O5    C3    A    
C13   C14   A    
C16   H7    S    
C29   C33   S    
V2    O10   S    
O12   V3    S    
O19   C36   A    
O12   C33   A    
C5    H1    S    
O8    V2    S    
O15   C35   A    
O14   C34   A    
O1    V2    S    
O7    V1    S    
C24   H11   S    
O9    C4    A    
O19   V4    S    
C24   H10   S    
C27   C28   A    
C7    H3    S    
C6    C35   S    
C19   C20   A    
C28   H12   S    
C2    C26   S    
C21   C34   S    
C20   H8    S    
O4    C2    A    
C9    C10   A    
C5    C7    S    
C32   H16   S    
O16   V4    S    
O2    C1    A    
V4    O20   S    
C18   C19   A    
O11   C34   A    
C14   C15   S    
O13   V3    S    
C5    C6    D    
C23   H9    S    
O3    C4    A    
C25   C26   A    
C19   F1    S    
O6    V2    S    
O9    V2    S    
C23   C24   S    
V3    O20   S    
C8    H4    S    
C17   C24   S    
C22   C23   S    
O2    V1    S    
C25   C32   S    
C30   C31   S    
C3    C13   S    
O1    C2    A    
O5    V1    S    
O8    C3    A    
O13   C36   A    
C15   F2    S    
C32   H15   S    
C15   C16   S    
C4    C8    S    
C31   H13   S    
O7    V2    S    
O18   C35   A    
O3    V1    S    
V1    O10   S    
O18   V4    S    
O15   V3    S    
C12   H19   S    
C10   C36   S    
C16   H6    S    
O17   V4    S    
C6    H2    S    
O17   V3    S    
O4    V1    S    
C1    C18   S    
C26   C27   A    
C31   H14   S    
C11   H5    S    
C28   C29   A    
C7    C8    D    
O14   V3    S    
C9    C16   S    
