data_mof_unit_38153.cif
_audit_creation_date              2012-12-10T20:30:10-0500
_audit_creation_method            fapswitch 2.2
_symmetry_space_group_name_H-M    P1
_symmetry_Int_Tables_number       1
_space_group_crystal_system       triclinic
_cell_length_a                    9.851917
_cell_length_b                    10.695516
_cell_length_c                    13.187953
_cell_angle_alpha                 90.141039
_cell_angle_beta                  71.259442
_cell_angle_gamma                 89.26356
_cell_volume                      1315.81763756

loop_
_atom_site_label
_atom_site_type_symbol
_atom_type_description
_atom_site_fract_x
_atom_site_fract_y
_atom_site_fract_z
_atom_type_partial_charge
C1    C     C_R   0.501122 0.740333 0.496347 0.887108
C2    C     C_R   0.426361 0.446041 0.984231 0.065611
C3    C     C_R   0.465267 0.428831 0.872686 0.043066
C4    C     C_R   0.537135 0.438507 0.031165 0.080912
C5    C     C_R   0.671453 0.382655 0.974173 0.179376
C6    C     C_R   0.695945 0.339861 0.869919 -0.263501
C7    C     C_R   0.594913 0.364084 0.819011 -0.196333
C8    C     C_R   0.521776 0.494578 0.129671 -0.264284
C9    C     C_R   0.754320 0.415694 0.126456 -0.205995
C10   C     C_R   0.372706 0.476713 0.818959 -0.119603
C11   C     C_R   0.395182 0.938451 0.463733 0.137428
C12   C     C_R   0.421864 0.492738 0.703278 0.877627
C13   C     C_R   0.510212 0.871747 0.477567 -0.110554
C14   C     C_R   0.638642 0.933760 0.468189 -0.221968
C15   C     C_R   0.639931 0.063057 0.467468 -0.231215
C16   C     C_R   0.512869 0.128946 0.475907 -0.103169
C17   C     C_R   0.396708 0.066211 0.462825 0.137992
C18   C     C_3   0.240762 0.077920 0.524303 -0.469506
C19   C     C_3   0.239040 0.936544 0.525936 -0.508454
C20   C     C_R   0.890073 0.539052 0.588395 0.235156
C21   C     C_R   0.962902 0.441876 0.420753 -0.145344
C22   C     C_R   0.106685 0.439957 0.422097 -0.143562
C23   C     C_R   0.502753 0.259978 0.495590 0.872530
C24   C     C_R   0.032368 0.538754 0.588566 0.212694
C25   C     C_3   0.012635 0.663240 0.642175 -0.534868
C26   C     C_3   0.858472 0.663583 0.641807 -0.490596
C27   C     C_R   0.578570 0.498440 0.295996 0.868252
C28   C     C_R   0.779372 0.371785 0.022179 -0.207486
C29   C     C_R   0.623848 0.475719 0.180819 -0.058146
C30   C     C_R   0.234011 0.518015 0.877363 -0.258206
C31   C     C_R   0.185885 0.510073 0.987808 -0.153989
C32   C     C_R   0.279003 0.470770 0.042324 0.220349
H1    H     H_    0.834498 0.399703 0.165332 0.148045
H2    H     H_    0.735949 0.110209 0.468984 0.170523
H3    H     H_    0.219681 0.120664 0.604994 0.206687
H4    H     H_    0.178394 0.119420 0.475536 0.202201
H5    H     H_    0.217908 0.898099 0.607761 0.204869
H6    H     H_    0.175036 0.897107 0.478070 0.202935
H7    H     H_    0.936929 0.397006 0.355895 0.147887
H8    H     H_    0.188993 0.390192 0.361092 0.164365
H9    H     H_    0.022048 0.658483 0.723818 0.198417
H10   H     H_    0.078368 0.734603 0.589427 0.216558
H11   H     H_    0.778700 0.657796 0.723327 0.210721
H12   H     H_    0.795716 0.292721 0.826073 0.146756
H13   H     H_    0.835455 0.736702 0.589580 0.209511
H14   H     H_    0.881489 0.327291 0.979995 0.141212
H15   H     H_    0.428638 0.552051 0.168910 0.177476
H16   H     H_    0.161147 0.553546 0.837460 0.164311
H17   H     H_    0.074598 0.532410 0.031029 0.156393
H18   H     H_    0.618887 0.329373 0.738050 0.177279
H19   H     H_    0.734305 0.883832 0.469732 0.168041
N1    N     N_R   0.856940 0.500860 0.500710 -0.109083
N2    N     N_R   0.142580 0.500820 0.500710 -0.104215
O1    O     O_R   0.385310 0.683210 0.499990 -0.611356
O2    O     O_R   0.614650 0.683240 0.500000 -0.619470
O3    O     O_R   0.328390 0.499940 0.653610 -0.613268
O4    O     O_R   0.557730 0.499980 0.653620 -0.618059
O5    O     O_R   0.385350 0.316760 0.500000 -0.617625
O6    O     O_R   0.614690 0.316790 0.500010 -0.631811
O7    O     O_R   0.442270 0.500020 0.346380 -0.618831
O8    O     O_R   0.671610 0.500060 0.346390 -0.618926
Zn1   Zn    Zn3+2 0.346870 0.499980 0.499990 0.938846
Zn2   Zn    Zn3+2 0.653130 0.500020 0.500010 0.934182
C33   C     C_3   0.210897 0.435082 0.157097 -0.994242
H20   H     H_    0.281442 0.370090 0.183306 0.251540
H21   H     H_    0.184631 0.520704 0.207778 0.250569
H22   H     H_    0.110173 0.383740 0.166854 0.236244

loop_
_geom_bond_atom_site_label_1
_geom_bond_atom_site_label_2
_ccdc_geom_bond_type
C25   H10   S    
O5    Zn1   S    
C23   O5    A    
C2    C4    A    
C1    O1    A    
C18   H4    S    
C6    C7    A    
C19   H6    S    
C27   C29   S    
C5    C28   A    
C27   O8    A    
C18   H3    S    
C10   C30   A    
C15   H2    S    
O6    Zn2   S    
C31   C32   A    
C21   H7    S    
C9    C29   A    
C30   C31   A    
C4    C8    A    
C22   H8    S    
C33   H20   S    
C17   C18   S    
C1    O2    A    
C8    H15   S    
C9    H1    S    
C20   N1    A    
C3    C10   A    
C6    H12   S    
C21   C22   A    
O7    Zn1   S    
C23   O6    A    
C11   C13   A    
C28   H14   S    
C12   O3    A    
C22   N2    A    
C10   C12   S    
C31   H17   S    
C8    C29   A    
C30   H16   S    
C26   H11   S    
O4    Zn2   S    
C16   C23   S    
C2    C3    A    
C27   O7    A    
C5    C6    A    
C16   C17   A    
O3    Zn1   S    
C1    C13   S    
C12   O4    A    
C15   C16   A    
C33   H22   S    
C20   C24   A    
C24   C25   S    
C32   C33   S    
C2    C32   A    
C18   C19   S    
N2    Zn1   S    
C25   H9    S    
C7    H18   S    
O8    Zn2   S    
C14   C15   A    
C11   C19   S    
C33   H21   S    
C19   H5    S    
C3    C7    A    
C25   C26   S    
C13   C14   A    
O1    Zn1   S    
C9    C28   A    
C21   N1    A    
C11   C17   A    
C14   H19   S    
C24   N2    A    
C20   C26   S    
C4    C5    A    
C26   H13   S    
N1    Zn2   S    
O2    Zn2   S    
