data_mof_unit_26662.cif
_audit_creation_date              2012-12-11T15:41:28-0500
_audit_creation_method            fapswitch 2.2
_symmetry_space_group_name_H-M    P1
_symmetry_Int_Tables_number       1
_space_group_crystal_system       triclinic
_cell_length_a                    19.077326
_cell_length_b                    11.007422
_cell_length_c                    18.773487
_cell_angle_alpha                 89.888501
_cell_angle_beta                  90.123975
_cell_angle_gamma                 90.123081
_cell_volume                      3942.25966823

loop_
_atom_site_label
_atom_site_type_symbol
_atom_type_description
_atom_site_fract_x
_atom_site_fract_y
_atom_site_fract_z
_atom_type_partial_charge
C1    C     C_R   0.708925 0.001945 0.861009 0.562845
C2    C     C_R   0.275012 0.960821 0.144356 0.550023
C3    C     C_R   0.208926 0.501941 0.861010 0.560218
C4    C     C_R   0.775008 0.460811 0.144360 0.547287
C5    C     C_R   0.703763 0.482554 0.034610 0.031166
C6    C     C_R   0.283023 0.520873 0.971192 0.028786
C7    C     C_R   0.203783 0.982627 0.034594 0.030663
C8    C     C_R   0.783025 0.020867 0.971188 0.028364
C9    C     C_R   0.696666 0.470431 0.961460 0.021434
C10   C     C_R   0.295185 0.493015 0.042312 0.015836
C11   C     C_R   0.196687 0.970507 0.961443 0.022748
C12   C     C_R   0.795189 0.993004 0.042306 0.015295
C13   C     C_R   0.816191 0.401284 0.953605 -0.151839
C14   C     C_R   0.176460 0.421161 0.053023 -0.146592
C15   C     C_R   0.316200 0.901296 0.953597 -0.151751
C16   C     C_R   0.676461 0.921171 0.053022 -0.146553
C17   C     C_R   0.821363 0.404529 0.027172 -0.150729
C18   C     C_R   0.165264 0.444680 0.980808 -0.156608
C19   C     C_R   0.321368 0.904537 0.027165 -0.150859
C20   C     C_R   0.665262 0.944698 0.980809 -0.156644
C21   C     C_3   0.629433 0.447169 0.047704 -0.286563
C22   C     C_3   0.356972 0.492075 0.951219 -0.263944
C23   C     C_3   0.129441 0.947309 0.047681 -0.286786
C24   C     C_3   0.856971 0.992059 0.951211 -0.263715
C25   C     C_3   0.621737 0.431902 0.967819 -0.261196
C26   C     C_3   0.370021 0.461006 0.028966 -0.269027
C27   C     C_3   0.121747 0.932048 0.967795 -0.260488
C28   C     C_3   0.870022 0.960983 0.028956 -0.269187
C29   C     C_R   0.751293 0.422299 0.920470 0.019047
C30   C     C_R   0.244029 0.433722 0.082890 0.016410
C31   C     C_R   0.251305 0.922333 0.920459 0.020406
C32   C     C_R   0.744031 0.933719 0.082886 0.016142
C33   C     C_R   0.498959 0.174387 0.425184 0.013338
C34   C     C_R   0.508422 0.161337 0.572594 0.006968
C35   C     C_R   0.986123 0.671796 0.430920 0.018458
C36   C     C_R   0.990506 0.670811 0.579315 0.017519
C37   C     C_R   0.481945 0.272980 0.468400 0.031166
C38   C     C_R   0.484770 0.264794 0.540308 0.050758
C39   C     C_R   0.975245 0.778076 0.469198 0.046166
C40   C     C_R   0.977266 0.778764 0.541977 0.021017
C41   C     C_R   0.534368 0.065487 0.530087 -0.166415
C42   C     C_R   0.528962 0.071251 0.455918 -0.180750
C43   C     C_R   0.986737 0.560755 0.542372 -0.184180
C44   C     C_R   0.989442 0.561731 0.467937 -0.188176
C45   C     C_R   0.528745 0.177726 0.849951 0.538001
C46   C     C_R   0.469373 0.177847 0.148740 0.546518
C47   C     C_R   0.028749 0.677727 0.849955 0.537393
C48   C     C_R   0.969376 0.677846 0.148743 0.546357
C49   C     C_3   0.415213 0.342529 0.472440 -0.240346
C50   C     C_3   0.418359 0.330977 0.552378 -0.279692
C51   C     C_3   0.013344 0.895284 0.461452 -0.278146
C52   C     C_3   0.016159 0.897563 0.541355 -0.252434
C53   C     C_R   0.747408 0.390060 0.416151 0.000419
C54   C     C_R   0.241084 0.435419 0.571009 -0.011361
C55   C     C_R   0.259618 0.933377 0.428888 -0.001072
C56   C     C_R   0.753551 0.909804 0.580073 0.005613
C57   C     C_R   0.796998 0.324787 0.455213 0.053567
C58   C     C_R   0.196219 0.355616 0.535951 0.033998
C59   C     C_R   0.310217 0.868749 0.466963 0.043349
C60   C     C_R   0.721443 0.811631 0.546859 0.005424
C61   C     C_R   0.786693 0.293994 0.525667 -0.000353
C62   C     C_R   0.200537 0.339964 0.463333 0.019972
C63   C     C_R   0.306625 0.858256 0.539681 0.011676
C64   C     C_R   0.722603 0.801187 0.474279 0.015427
C65   C     C_R   0.672504 0.388635 0.520766 -0.046569
C66   C     C_R   0.285650 0.502655 0.455540 -0.058866
C67   C     C_R   0.205224 0.989271 0.541543 -0.055721
C68   C     C_R   0.802076 0.969770 0.464832 -0.041919
C69   C     C_R   0.682260 0.411882 0.447507 -0.173395
C70   C     C_R   0.284413 0.513088 0.530103 -0.173847
C71   C     C_R   0.206999 0.995555 0.466870 -0.180421
C72   C     C_R   0.800353 0.981274 0.539370 -0.163602
C73   C     C_3   0.870536 0.362768 0.469347 -0.256381
C74   C     C_3   0.118527 0.371394 0.530721 -0.254219
C75   C     C_3   0.387441 0.893720 0.470082 -0.242294
C76   C     C_3   0.650621 0.754896 0.552126 -0.257112
C77   C     C_3   0.860962 0.323128 0.545000 -0.270088
C78   C     C_3   0.123285 0.343072 0.453064 -0.274929
C79   C     C_3   0.383297 0.878557 0.549535 -0.281422
C80   C     C_3   0.650843 0.747720 0.471324 -0.255873
C81   C     C_R   0.727142 0.332749 0.561554 -0.009063
C82   C     C_R   0.246184 0.410408 0.422852 -0.003249
C83   C     C_R   0.253869 0.915453 0.577810 -0.000234
C84   C     C_R   0.757212 0.885197 0.431045 0.006678
C85   C     C_R   0.738300 0.364386 0.852340 0.547828
C86   C     C_R   0.261190 0.365596 0.147727 0.546189
C87   C     C_R   0.238302 0.864395 0.852337 0.539320
C88   C     C_R   0.761191 0.865594 0.147726 0.546519
C89   C     C_R   0.728640 0.954753 0.648120 0.554750
C90   C     C_R   0.274351 0.961485 0.354890 0.555658
C91   C     C_R   0.225583 0.462386 0.644912 0.561376
C92   C     C_R   0.771159 0.451787 0.351155 0.545822
C93   C     C_R   0.530981 0.174904 0.644518 0.541652
C94   C     C_R   0.471025 0.176809 0.354365 0.535325
C95   C     C_R   0.028106 0.676720 0.646057 0.544899
C96   C     C_R   0.968570 0.676608 0.356425 0.540383
C97   C     C_R   0.725106 0.311837 0.639105 0.560430
C98   C     C_R   0.259505 0.364854 0.352005 0.539608
C99   C     C_R   0.240411 0.865135 0.647895 0.546942
C100  C     C_R   0.761773 0.857804 0.355404 0.548169
C101  C     C_2   0.494123 0.170903 0.919249 -0.117737
C102  C     C_2   0.498389 0.169528 0.076840 -0.120043
C103  C     C_2   0.994134 0.670904 0.919255 -0.117120
C104  C     C_2   0.998399 0.669526 0.076846 -0.120049
C105  C     C_2   0.486482 0.070657 0.036515 -0.161370
C106  C     C_2   0.496687 0.069536 0.958752 -0.169446
C107  C     C_2   0.986494 0.570655 0.036521 -0.161428
C108  C     C_2   0.996700 0.569536 0.958758 -0.169298
C109  C     C_R   0.763731 0.439212 0.068990 0.021644
C110  C     C_R   0.220060 0.486873 0.937765 0.012956
C111  C     C_R   0.263740 0.939244 0.068980 0.020859
C112  C     C_R   0.720059 0.986880 0.937764 0.013036
Cr1   Cr    Cr6+3 0.769260 0.163750 0.750730 1.006327
Cr2   Cr    Cr6+3 0.230740 0.163750 0.249270 1.015156
Cr3   Cr    Cr6+3 0.269260 0.663750 0.750730 1.011292
Cr4   Cr    Cr6+3 0.730740 0.663750 0.249270 1.017740
Cr5   Cr    Cr6+3 0.612640 0.009910 0.748780 1.001345
Cr6   Cr    Cr6+3 0.387360 0.009910 0.251220 1.023802
Cr7   Cr    Cr6+3 0.112640 0.509910 0.748780 1.019424
Cr8   Cr    Cr6+3 0.887360 0.509910 0.251220 1.020366
Cr9   Cr    Cr6+3 0.614190 0.322400 0.747710 1.033819
Cr10  Cr    Cr6+3 0.385810 0.322400 0.252290 1.032309
Cr11  Cr    Cr6+3 0.114190 0.822400 0.747710 1.032270
Cr12  Cr    Cr6+3 0.885810 0.822400 0.252290 1.042048
H1    H     H_    0.468913 0.986958 0.061086 0.142408
H2    H     H_    0.507839 0.983029 0.933791 0.134758
H3    H     H_    0.968922 0.486956 0.061090 0.142440
H4    H     H_    0.007850 0.483030 0.933796 0.135006
H5    H     H_    0.980559 0.968221 0.438537 0.174533
H6    H     H_    0.070624 0.887413 0.560360 0.185601
H7    H     H_    0.370560 0.291813 0.448736 0.151117
H8    H     H_    0.426330 0.419160 0.579928 0.172227
H9    H     H_    0.424120 0.436475 0.453252 0.168632
H10   H     H_    0.376370 0.272062 0.574827 0.128367
H11   H     H_    0.065595 0.884496 0.436072 0.135130
H12   H     H_    0.985458 0.972853 0.565309 0.149523
H13   H     H_    0.642018 0.458349 0.417193 0.124118
H14   H     H_    0.314952 0.583917 0.555580 0.146722
H15   H     H_    0.170051 0.053467 0.439115 0.136861
H16   H     H_    0.830387 0.052975 0.564358 0.133694
H17   H     H_    0.873483 0.462706 0.463984 0.155988
H18   H     H_    0.106110 0.467765 0.540947 0.156853
H19   H     H_    0.399153 0.988398 0.453804 0.158004
H20   H     H_    0.609026 0.814187 0.573193 0.154465
H21   H     H_    0.910727 0.310465 0.440086 0.172038
H22   H     H_    0.086517 0.305852 0.561089 0.176135
H23   H     H_    0.420014 0.823276 0.444098 0.169954
H24   H     H_    0.654580 0.665908 0.579182 0.168955
H25   H     H_    0.891953 0.241041 0.558843 0.136269
H26   H     H_    0.101637 0.252365 0.439013 0.143156
H27   H     H_    0.410382 0.795672 0.569241 0.147971
H28   H     H_    0.650987 0.653889 0.450828 0.153814
H29   H     H_    0.866035 0.399686 0.583261 0.163003
H30   H     H_    0.106358 0.418603 0.417691 0.138538
H31   H     H_    0.395445 0.963148 0.579488 0.140024
H32   H     H_    0.612232 0.809363 0.445664 0.132742
H33   H     H_    0.519289 0.251943 0.053355 0.098270
H34   H     H_    0.476823 0.255920 0.942545 0.103184
H35   H     H_    0.019304 0.751939 0.053362 0.098152
H36   H     H_    0.976835 0.755920 0.942553 0.103198
H37   H     H_    0.860853 0.368192 0.923871 0.137884
H38   H     H_    0.134032 0.380397 0.083038 0.140395
H39   H     H_    0.360858 0.868181 0.923866 0.137321
H40   H     H_    0.634031 0.880414 0.083039 0.140539
H41   H     H_    0.870233 0.376399 0.051148 0.132156
H42   H     H_    0.115448 0.420705 0.957630 0.128503
H43   H     H_    0.370231 0.876380 0.051145 0.132099
H44   H     H_    0.615444 0.920737 0.957632 0.128506
H45   H     H_    0.098144 0.023921 0.069220 0.143224
H46   H     H_    0.886092 0.074102 0.933201 0.140031
H47   H     H_    0.598115 0.523752 0.069247 0.143251
H48   H     H_    0.386090 0.574124 0.933210 0.139657
H49   H     H_    0.625021 0.360662 0.078031 0.132434
H50   H     H_    0.360957 0.412187 0.915271 0.150109
H51   H     H_    0.125000 0.860807 0.078008 0.132695
H52   H     H_    0.860950 0.912173 0.915261 0.150397
H53   H     H_    0.613306 0.335770 0.951964 0.152342
H54   H     H_    0.381151 0.363012 0.037933 0.150858
H55   H     H_    0.113287 0.835923 0.951940 0.152385
H56   H     H_    0.881147 0.862986 0.037920 0.150808
H57   H     H_    0.585176 0.498521 0.943311 0.144085
H58   H     H_    0.406845 0.524864 0.055607 0.139496
H59   H     H_    0.085209 0.998701 0.943283 0.144825
H60   H     H_    0.906851 0.024831 0.055596 0.139186
H61   H     H_    0.558503 0.987295 0.554046 0.140696
H62   H     H_    0.543808 0.994162 0.423642 0.122074
H63   H     H_    0.990756 0.475109 0.570463 0.129236
H64   H     H_    0.992673 0.476962 0.439309 0.126928
O1    O     O_R   0.784290 0.290360 0.830540 -0.528118
O2    O     O_R   0.215710 0.290360 0.169460 -0.524302
O3    O     O_R   0.284290 0.790360 0.830540 -0.533168
O4    O     O_R   0.715710 0.790360 0.169460 -0.523449
O5    O     O_R   0.554690 0.080440 0.673480 -0.518766
O6    O     O_R   0.445310 0.080440 0.326520 -0.514051
O7    O     O_R   0.054690 0.580440 0.673480 -0.511882
O8    O     O_R   0.945310 0.580440 0.326520 -0.510632
O9    O     O_R   0.543980 0.282110 0.666770 -0.491682
O10   O     O_R   0.456020 0.282110 0.333230 -0.514618
O11   O     O_R   0.043980 0.782110 0.666770 -0.517051
O12   O     O_R   0.956020 0.782110 0.333230 -0.509846
O13   O     O_R   0.679070 0.374030 0.674430 -0.484896
O14   O     O_R   0.320930 0.374030 0.325570 -0.495579
O15   O     O_R   0.179070 0.874030 0.674430 -0.487018
O16   O     O_R   0.820930 0.874030 0.325570 -0.483034
O17   O     O_3   0.665360 0.165350 0.749070 -0.292925
O18   O     O_3   0.334640 0.165350 0.250930 -0.258288
O19   O     O_3   0.165360 0.665350 0.749070 -0.275305
O20   O     O_3   0.834640 0.665350 0.250930 -0.256521
O21   O     O_R   0.762610 0.041070 0.825230 -0.497380
O22   O     O_R   0.237390 0.041070 0.174770 -0.494578
O23   O     O_R   0.262610 0.541070 0.825230 -0.497503
O24   O     O_R   0.737390 0.541070 0.174770 -0.496241
O25   O     O_R   0.667390 0.924160 0.829970 -0.511400
O26   O     O_R   0.332610 0.924160 0.170030 -0.522482
O27   O     O_R   0.167390 0.424160 0.829970 -0.509544
O28   O     O_R   0.832610 0.424160 0.170030 -0.525114
O29   O     O_R   0.553980 0.081420 0.821780 -0.511169
O30   O     O_R   0.446020 0.081420 0.178220 -0.499106
O31   O     O_R   0.053980 0.581420 0.821780 -0.512963
O32   O     O_R   0.946020 0.581420 0.178220 -0.499209
O33   O     O_R   0.543210 0.283170 0.826740 -0.522459
O34   O     O_R   0.456790 0.283170 0.173260 -0.519744
O35   O     O_R   0.043210 0.783170 0.826740 -0.521409
O36   O     O_R   0.956790 0.783170 0.173260 -0.520439
O37   O     O_R   0.678350 0.375000 0.822720 -0.496244
O38   O     O_R   0.321650 0.375000 0.177280 -0.494404
O39   O     O_R   0.178350 0.875000 0.822720 -0.497834
O40   O     O_R   0.821650 0.875000 0.177280 -0.495571
O41   O     O_R   0.785060 0.289300 0.670580 -0.520553
O42   O     O_R   0.214940 0.289300 0.329420 -0.520903
O43   O     O_R   0.285060 0.789300 0.670580 -0.520522
O44   O     O_R   0.714940 0.789300 0.329420 -0.522277
O45   O     O_R   0.763330 0.040090 0.676940 -0.516495
O46   O     O_R   0.236670 0.040090 0.323060 -0.510637
O47   O     O_R   0.263330 0.540090 0.676940 -0.504651
O48   O     O_R   0.736670 0.540090 0.323060 -0.507321
O49   O     O_R   0.668160 0.923110 0.670000 -0.518302
O50   O     O_R   0.331840 0.923110 0.330000 -0.492990
O51   O     O_R   0.168160 0.423110 0.670000 -0.497469
O52   O     O_R   0.831840 0.423110 0.330000 -0.503968
C113  C     C_1   0.611814 0.442779 0.553157 0.218006
N1    N     N_1   0.563747 0.489412 0.578720 -0.313627
C114  C     C_1   0.327204 0.584559 0.412848 0.189559
N2    N     N_1   0.360548 0.647814 0.377120 -0.303816
C115  C     C_1   0.155482 0.060419 0.581198 0.194245
N3    N     N_1   0.115693 0.113978 0.615196 -0.324388
C116  C     C_1   0.846840 0.048421 0.423521 0.203354
N4    N     N_1   0.882509 0.108929 0.388487 -0.329907

loop_
_geom_bond_atom_site_label_1
_geom_bond_atom_site_label_2
_ccdc_geom_bond_type
C58   C62   A    
C39   C51   S    
C4    C109  S    
C67   C83   A    
Cr2   O2    S    
Cr3   O19   S    
C6    C110  A    
C41   C42   A    
C14   C18   A    
C93   O9    A    
C36   C95   S    
C34   C93   S    
Cr9   O17   S    
C53   C69   A    
C33   C94   S    
C49   C50   S    
C75   H19   S    
Cr3   O47   S    
C51   H5    S    
C9    C25   S    
Cr2   O46   S    
C73   H17   S    
C35   C96   S    
C16   H40   S    
C21   H49   S    
Cr7   O27   S    
C49   H7    S    
C78   H26   S    
Cr12  O12   S    
Cr8   O8    S    
C89   O45   A    
C12   C28   S    
C46   O30   A    
C33   C42   A    
C13   C29   A    
Cr6   O18   S    
C74   H22   S    
C27   H55   S    
C55   C90   S    
Cr5   O17   S    
C8    C112  A    
C1    C112  S    
C54   C58   A    
C25   H53   S    
C103  H36   S    
C67   C71   A    
C23   H51   S    
C66   C114  S    
C3    C110  S    
C85   O1    A    
C114  N2    T    
C48   C104  S    
C91   O47   A    
C65   C69   A    
Cr9   O37   S    
Cr8   O32   S    
C90   O46   A    
C102  C105  D    
C96   O12   A    
C113  N1    T    
C96   O8    A    
C57   C73   S    
C57   C61   A    
C18   H42   S    
Cr10  O18   S    
C64   C84   A    
C7    C11   A    
C49   H9    S    
C77   H29   S    
C15   C19   A    
C51   H11   S    
C61   C81   A    
C97   O41   A    
Cr8   O28   S    
Cr12  O36   S    
C61   C77   S    
C56   C72   A    
C23   H45   S    
Cr6   O30   S    
C107  C108  S    
Cr5   O29   S    
C103  C108  D    
C23   C27   S    
C67   C115  S    
C30   C86   S    
C24   H46   S    
Cr3   O43   S    
Cr2   O22   S    
C8    C12   A    
C8    C24   S    
Cr1   O45   S    
C19   C111  A    
Cr6   O50   S    
C6    C22   S    
C62   C82   A    
Cr10  O34   S    
C11   C31   A    
Cr4   O44   S    
C98   O42   A    
C115  N3    T    
Cr12  O20   S    
Cr7   O31   S    
C64   C80   S    
C47   C103  S    
C34   C41   A    
C19   H43   S    
C14   C30   A    
Cr6   O6    S    
C100  O16   A    
C102  H33   S    
C7    C111  A    
C34   C38   A    
Cr12  O40   S    
C25   H57   S    
C80   H32   S    
C3    O27   A    
C26   H54   S    
C68   C116  S    
C69   H13   S    
C20   H44   S    
C2    C111  S    
C2    O22   A    
C86   O2    A    
C90   O50   A    
C1    O21   A    
C51   C52   S    
C68   C84   A    
C89   O49   A    
C36   C40   A    
C31   C87   S    
C17   H41   S    
C22   H50   S    
C77   H25   S    
C39   C40   A    
C53   C57   A    
Cr1   O21   S    
C78   H30   S    
C71   H15   S    
C48   O36   A    
C3    O23   A    
C75   H23   S    
C40   C52   S    
C47   O31   A    
C92   O48   A    
Cr7   O51   S    
C108  H4    S    
Cr2   O18   S    
C76   H24   S    
C73   H21   S    
C68   C72   A    
C94   O10   A    
Cr8   O20   S    
C55   C71   A    
C14   H38   S    
C35   C39   A    
C43   C44   A    
C5    C9    A    
C37   C38   A    
C86   O38   A    
C66   C82   A    
C37   C49   S    
C10   C30   A    
C65   C81   A    
C54   C70   A    
C11   C27   S    
C16   C20   A    
Cr4   O48   S    
C53   C92   S    
C10   C26   S    
C36   C43   A    
C85   O37   A    
C5    C21   S    
Cr6   O26   S    
Cr10  O10   S    
C15   C31   A    
C35   C44   A    
C28   H56   S    
Cr9   O9    S    
Cr4   O20   S    
C50   H8    S    
Cr8   O52   S    
C38   C50   S    
C26   H58   S    
C95   O11   A    
C56   C89   S    
C44   H64   S    
C101  H34   S    
C2    O26   A    
C87   O39   A    
C45   C101  S    
C50   H10   S    
C52   H12   S    
C82   C98   S    
C59   C63   A    
C32   C88   S    
C12   C32   A    
C72   H16   S    
C91   O51   A    
C13   H37   S    
C24   H52   S    
Cr5   O5    S    
C59   C75   S    
C41   H61   S    
Cr11  O11   S    
C55   C59   A    
C58   C74   S    
C24   C28   S    
C87   O3    A    
C48   O32   A    
C79   H27   S    
C15   H39   S    
C101  C106  D    
C80   H28   S    
C21   C25   S    
C52   H6    S    
C92   O52   A    
C95   O7    A    
C99   O15   A    
C94   O6    A    
C29   C85   S    
C62   C78   S    
C93   O5    A    
C76   C80   S    
C97   O13   A    
C76   H20   S    
C17   C109  A    
C43   H63   S    
Cr2   O42   S    
Cr7   O19   S    
C99   O43   A    
C116  N4    T    
Cr1   O41   S    
C63   C79   S    
Cr11  O15   S    
C88   O4    A    
C16   C32   A    
C79   H31   S    
Cr1   O1    S    
C105  C106  S    
C106  H2    S    
C98   O14   A    
Cr11  O35   S    
C4    O24   A    
Cr3   O23   S    
C107  H3    S    
C60   C64   A    
C45   O33   A    
C105  H1    S    
C28   H60   S    
Cr3   O3    S    
C54   C91   S    
Cr4   O24   S    
C21   H47   S    
C1    O25   A    
C9    C29   A    
Cr9   O13   S    
C70   H14   S    
C42   H62   S    
C88   O40   A    
C65   C113  S    
C7    C23   S    
C5    C109  A    
C74   C78   S    
C81   C97   S    
C60   C76   S    
C33   C37   A    
Cr7   O7    S    
C74   H18   S    
C46   O34   A    
Cr5   O25   S    
C27   H59   S    
C84   C100  S    
C6    C10   A    
Cr5   O49   S    
C13   C17   A    
C56   C60   A    
Cr10  O14   S    
Cr11  O19   S    
Cr11  O39   S    
C66   C70   A    
C47   O35   A    
C73   C77   S    
C18   C110  A    
Cr12  O16   S    
C22   C26   S    
C20   C112  A    
C63   C83   A    
C4    O28   A    
Cr9   O33   S    
Cr4   O4    S    
C100  O44   A    
C83   C99   S    
C104  H35   S    
C75   C79   S    
C104  C107  D    
C22   H48   S    
C45   O29   A    
Cr1   O17   S    
C46   C102  S    
Cr10  O38   S    
