data_mof_unit_49996.cif
_audit_creation_date              2012-12-10T18:59:17-0500
_audit_creation_method            fapswitch 2.2
_symmetry_space_group_name_H-M    P1
_symmetry_Int_Tables_number       1
_space_group_crystal_system       triclinic
_cell_length_a                    10.828477
_cell_length_b                    10.863251
_cell_length_c                    9.573363
_cell_angle_alpha                 90.384369
_cell_angle_beta                  91.528069
_cell_angle_gamma                 92.425982
_cell_volume                      1124.6942137

loop_
_atom_site_label
_atom_site_type_symbol
_atom_type_description
_atom_site_fract_x
_atom_site_fract_y
_atom_site_fract_z
_atom_type_partial_charge
C1    C     C_R   0.498438 0.262571 0.499306 0.833780
C2    C     C_R   0.069067 0.429168 0.625674 0.076130
C3    C     C_R   0.128335 0.452521 0.498754 -0.142916
C4    C     C_R   0.057076 0.442328 0.375082 -0.211735
C5    C     C_R   0.928470 0.430531 0.381788 0.144643
C6    C     C_R   0.870208 0.458310 0.508005 -0.157378
C7    C     C_R   0.491891 0.064683 0.621751 0.164720
C8    C     C_R   0.485675 0.129522 0.497555 -0.103220
C9    C     C_R   0.457119 0.064098 0.373174 -0.239292
C10   C     C_R   0.454043 0.934786 0.371877 0.145101
C11   C     C_R   0.481071 0.870704 0.497407 -0.112551
C12   C     C_R   0.262544 0.483993 0.498545 0.828178
C13   C     C_R   0.488640 0.938253 0.622165 0.099288
C14   C     C_3   0.578840 0.936882 0.742601 -0.481761
C15   C     C_3   0.582293 0.076519 0.741251 -0.435359
C16   C     C_R   0.538334 0.602897 0.076298 0.293021
C17   C     C_R   0.454267 0.401487 0.072233 -0.062102
C18   C     C_R   0.455982 0.400963 0.924132 -0.072012
C19   C     C_R   0.538756 0.603205 0.928885 0.257947
C20   C     C_3   0.665737 0.664326 0.933603 -0.530258
C21   C     C_3   0.662577 0.665241 0.091153 -0.476210
C22   C     C_R   0.495836 0.737662 0.499638 0.831396
C23   C     C_R   0.737257 0.486899 0.502425 0.819518
C24   C     C_R   0.130535 0.375765 0.740331 0.173780
C25   C     C_R   0.087261 0.391812 0.874003 -0.138263
C26   C     C_R   0.970408 0.436187 0.888974 -0.170165
C27   C     C_R   0.893360 0.448366 0.771509 -0.176167
C28   C     C_R   0.941672 0.448966 0.635251 0.055207
Cu1   Cu    Cu3+1 0.499990 0.499980 0.640670 0.957012
Cu2   Cu    Cu3+1 0.500010 0.500020 0.359330 0.977591
H1    H     H_    0.100970 0.435420 0.275159 0.171489
H2    H     H_    0.668145 0.898021 0.713759 0.199769
H3    H     H_    0.541573 0.117471 0.835307 0.205017
H4    H     H_    0.673059 0.118590 0.711055 0.206077
H5    H     H_    0.418710 0.320634 0.125559 0.139219
H6    H     H_    0.425011 0.318688 0.868725 0.168114
H7    H     H_    0.738239 0.606739 0.894274 0.213395
H8    H     H_    0.669867 0.757906 0.890970 0.198732
H9    H     H_    0.732581 0.606298 0.140540 0.235835
H10   H     H_    0.658962 0.759220 0.136863 0.201546
H11   H     H_    0.136934 0.357095 0.964105 0.152385
H12   H     H_    0.934248 0.447101 0.991233 0.181513
H13   H     H_    0.797525 0.446761 0.793632 0.185285
H14   H     H_    0.441550 0.112452 0.276066 0.162121
H15   H     H_    0.534645 0.899019 0.837482 0.202457
N1    N     N_R   0.500790 0.500930 0.147930 -0.182901
N2    N     N_R   0.500790 0.500890 0.852020 -0.188722
O1    O     O_R   0.500000 0.319640 0.618810 -0.583018
O2    O     O_R   0.500010 0.319680 0.381230 -0.585987
O3    O     O_R   0.319640 0.499980 0.618820 -0.567263
O4    O     O_R   0.319650 0.500020 0.381230 -0.582606
O5    O     O_R   0.499990 0.680320 0.618770 -0.580421
O6    O     O_R   0.500000 0.680360 0.381190 -0.547526
O7    O     O_R   0.680350 0.499980 0.618770 -0.603770
O8    O     O_R   0.680360 0.500020 0.381180 -0.553357
I1    I     I_    0.223886 0.212292 0.705790 -0.437348
I2    I     I_    0.832665 0.328554 0.218793 -0.426646
N3    N     N_3   0.426554 0.870608 0.242791 -0.564182
H16   H     H_    0.338527 0.894198 0.207512 0.224693
H17   H     H_    0.489915 0.902127 0.169206 0.208178

loop_
_geom_bond_atom_site_label_1
_geom_bond_atom_site_label_2
_ccdc_geom_bond_type
C12   O3    A    
Cu2   O4    S    
C1    O1    A    
C23   O8    A    
Cu1   Cu2   S    
C24   I1    S    
C1    C8    S    
C20   H8    S    
C9    C10   A    
C11   C22   S    
C19   C20   S    
C21   H9    S    
C5    I2    S    
C18   N2    A    
C20   C21   S    
C7    C15   S    
C17   C18   A    
N3    H16   S    
C7    C8    A    
C13   C14   S    
C17   N1    A    
C20   H7    S    
C11   C13   A    
C26   C27   A    
C16   C21   S    
C21   H10   S    
C1    O2    A    
Cu1   N2    S    
C16   C19   A    
C6    C23   S    
C10   N3    S    
Cu2   O2    S    
Cu2   N1    S    
C2    C3    A    
C22   O6    A    
Cu1   O3    S    
C2    C24   A    
C5    C6    A    
Cu2   O6    S    
C19   N2    A    
C4    H1    S    
C10   C11   A    
Cu1   O1    S    
N3    H17   S    
C3    C4    A    
C15   H4    S    
C27   H13   S    
C7    C13   A    
C12   O4    A    
C24   C25   A    
C26   H12   S    
C23   O7    A    
C22   O5    A    
Cu1   O7    S    
C25   H11   S    
C27   C28   A    
C14   C15   S    
C16   N1    A    
C9    H14   S    
C2    C28   A    
C3    C12   S    
C17   H5    S    
C14   H15   S    
C25   C26   A    
C4    C5    A    
C18   H6    S    
Cu2   O8    S    
C15   H3    S    
C6    C28   A    
C14   H2    S    
C8    C9    A    
Cu1   O5    S    
