data_mof_unit_7080.cif
_audit_creation_date              2013-03-05T16:45:22-0500
_audit_creation_method            fapswitch 2.2
_symmetry_space_group_name_H-M    P1
_symmetry_Int_Tables_number       1
_space_group_crystal_system       triclinic
_cell_length_a                    8.887697
_cell_length_b                    10.650432
_cell_length_c                    9.924934
_cell_angle_alpha                 89.143148
_cell_angle_beta                  90.087398
_cell_angle_gamma                 90.423172
_cell_volume                      939.340926721

loop_
_atom_site_label
_atom_site_type_symbol
_atom_site_description
_atom_site_fract_x
_atom_site_fract_y
_atom_site_fract_z
_atom_type_partial_charge
O1    O     O_R   0.500020 0.316790 0.614690 -0.626218
O2    O     O_R   0.500000 0.316760 0.385350 -0.577060
C1    C     C_R   0.503618 0.260516 0.500599 0.918005
O3    O     O_R   0.285350 0.500020 0.614650 -0.618234
O4    O     O_R   0.285340 0.499980 0.385310 -0.575506
C2    C     C_R   0.218945 0.499823 0.499944 0.940947
Zn1   Zn    Zn3+2 0.500010 0.500020 0.653130 0.995178
Zn2   Zn    Zn3+2 0.499990 0.499980 0.346870 1.087790
O5    O     O_R   0.500000 0.683240 0.614650 -0.630046
O6    O     O_R   0.499980 0.683210 0.385310 -0.578642
O7    O     O_R   0.714660 0.500020 0.614690 -0.622912
O8    O     O_R   0.714650 0.499980 0.385350 -0.555399
C3    C     C_R   0.501036 0.739340 0.499036 0.910199
C4    C     C_R   0.781074 0.500036 0.500082 0.935638
C5    C     C_1   0.065501 0.499812 0.499970 -0.090942
C6    C     C_1   0.934529 0.499892 0.500116 -0.080455
C7    C     C_R   0.394790 0.062690 0.570560 0.062032
C8    C     C_R   0.505442 0.128381 0.499144 -0.156145
C9    C     C_R   0.603266 0.065421 0.411693 0.264906
C10   C     C_R   0.598801 0.935653 0.409909 -0.131358
H1    H     H_    0.679024 0.885501 0.349253 0.233999
C11   C     C_R   0.499415 0.870996 0.495243 -0.194122
C12   C     C_R   0.392820 0.934275 0.569320 0.083509
C13   C     C_3   0.354699 0.924045 0.715693 0.147320
C14   C     C_3   0.353463 0.066791 0.716538 -0.513644
H2    H     H_    0.445392 0.881618 0.778692 0.146906
H3    H     H_    0.240093 0.107703 0.730859 0.237921
H4    H     H_    0.444027 0.107756 0.780035 0.211452
C15   C     C_R   0.427036 0.407502 0.071977 0.102452
N1    N     N_R   0.499010 0.499140 0.142800 -0.164704
C16   C     C_R   0.576381 0.589644 0.069305 0.365385
C17   C     C_R   0.575501 0.589167 0.925957 -0.110318
H5    H     H_    0.634431 0.662327 0.870047 0.182178
N2    N     N_R   0.499010 0.499180 0.857150 -0.114742
C18   C     C_R   0.431716 0.404854 0.929958 0.115157
C19   C     C_3   0.270834 0.367364 0.918647 -0.505815
C20   C     C_3   0.261324 0.378768 0.070529 0.434741
H6    H     H_    0.202884 0.437227 0.861361 0.245935
H7    H     H_    0.257887 0.269803 0.883302 0.202787
Br1   Br    Br    0.755912 0.149568 0.305945 -0.361419
Br2   Br    Br    0.131383 0.517504 0.118851 -0.331220
Br3   Br    Br    0.211953 0.222558 0.164043 -0.360262
N3    N     N_R   0.206585 0.866775 0.738586 0.245819
O9    O     O_R   0.089973 0.901829 0.668263 -0.353164
O10   O     O_R   0.192113 0.775898 0.826732 -0.329234
N4    N     N_R   0.652042 0.690321 0.135016 0.216341
O11   O     O_R   0.779195 0.669230 0.195734 -0.328698
O12   O     O_R   0.617800 0.805303 0.102043 -0.376341

loop_
_geom_bond_atom_site_label_1
_geom_bond_atom_site_label_2
_geom_bond_distance
_ccdc_geom_bond_type
O4    Zn2   1.946088 S    
N3    O9    1.302445 A    
C15   N1    1.365927 A    
C14   H3    1.110898 S    
C15   C18   1.410914 A    
C18   C19   1.486266 S    
N1    C16   1.380136 A    
Zn2   O8    1.945112 S    
Zn2   N1    2.025540 S    
C17   H5    1.082260 S    
C19   H6    1.111108 S    
O2    C1    1.283710 A    
C7    C14   1.496550 S    
C16   C17   1.422811 A    
C10   H1    1.082881 S    
C14   H4    1.112150 S    
Zn1   O7    1.946089 S    
N3    O10   1.300724 A    
C7    C12   1.367892 A    
O3    Zn1   1.945112 S    
O3    C2    1.281561 A    
C19   C20   1.516646 S    
Zn1   N2    2.024804 S    
O8    C4    1.281848 A    
C3    C11   1.402310 S    
C7    C8    1.391463 A    
N4    O12   1.300996 A    
C11   C12   1.385156 A    
C20   Br2   1.948109 S    
O4    C2    1.282436 A    
N2    C18   1.363768 A    
O7    C4    1.282306 A    
C4    C6    1.363879 S    
C9    Br1   1.924460 S    
C10   C11   1.395572 A    
C12   C13   1.494437 S    
C5    C6    1.164042 T    
C13   C14   1.520576 S    
C1    C8    1.407794 S    
Zn2   O6    1.994014 S    
C8    C9    1.409682 A    
C15   C20   1.502138 S    
C20   Br3   1.940660 S    
Zn1   O5    1.982780 S    
C13   N3    1.463373 S    
O5    C3    1.285763 A    
N4    O11   1.299368 A    
C2    C5    1.363764 S    
O1    Zn1   1.994014 S    
O6    C3    1.285128 A    
C19   H7    1.106787 S    
O2    Zn2   1.982782 S    
C9    C10   1.382736 A    
C13   H2    1.113660 S    
O1    C1    1.289625 A    
C16   N4    1.426940 S    
C17   N2    1.362204 A    
