data_mof_unit_14193.cif
_audit_creation_date              2012-12-10T17:52:28-0500
_audit_creation_method            fapswitch 2.2
_symmetry_space_group_name_H-M    P1
_symmetry_Int_Tables_number       1
_space_group_crystal_system       triclinic
_cell_length_a                    19.007106
_cell_length_b                    10.640335
_cell_length_c                    10.038257
_cell_angle_alpha                 92.487512
_cell_angle_beta                  91.706497
_cell_angle_gamma                 95.940044
_cell_volume                      2016.15358942

loop_
_atom_site_label
_atom_site_type_symbol
_atom_type_description
_atom_site_fract_x
_atom_site_fract_y
_atom_site_fract_z
_atom_type_partial_charge
C1    C     C_R   0.509554 0.262587 0.498482 0.935068
C2    C     C_R   0.847070 0.396505 0.473108 -0.137452
C3    C     C_R   0.572661 0.134885 0.727481 0.350215
C4    C     C_R   0.365567 0.508374 0.498227 0.905985
C5    C     C_R   0.566901 0.084698 0.855269 0.236314
C6    C     C_R   0.524280 0.970257 0.869770 0.274599
C7    C     C_R   0.488040 0.906201 0.758021 0.421882
C8    C     C_R   0.501460 0.948996 0.628888 -0.162283
C9    C     C_R   0.532888 0.072603 0.618105 -0.158772
C10   C     C_R   0.524416 0.130661 0.496482 -0.056363
C11   C     C_R   0.508748 0.058041 0.378991 0.383131
C12   C     C_R   0.288480 0.521032 0.490827 -0.198380
C13   C     C_R   0.478210 0.933467 0.386579 0.016391
C14   C     C_R   0.483522 0.874666 0.509159 -0.070606
C15   C     C_R   0.383114 0.360040 0.115220 0.214149
C16   C     C_R   0.493000 0.739420 0.502787 0.907935
C17   C     C_R   0.321839 0.328318 0.031807 0.143630
C18   C     C_R   0.329953 0.313022 0.895074 0.372234
C19   C     C_R   0.394833 0.353949 0.842674 -0.286700
C20   C     C_R   0.447314 0.428346 0.919962 0.033838
C21   C     C_R   0.444544 0.430734 0.063204 0.046762
C22   C     C_R   0.549577 0.573950 0.077934 0.224416
C23   C     C_R   0.922188 0.392274 0.452333 0.298510
C24   C     C_R   0.548438 0.575693 0.934972 0.247482
C25   C     C_R   0.634678 0.494736 0.501179 0.919538
C26   C     C_R   0.248250 0.526935 0.606747 -0.013361
C27   C     C_R   0.174530 0.493024 0.595582 0.405792
C28   C     C_R   0.141034 0.475246 0.468142 -0.111937
C29   C     C_R   0.179408 0.499988 0.352989 0.284586
C30   C     C_R   0.253729 0.526681 0.365000 0.278370
C31   C     C_3   0.279788 0.591584 0.735137 -0.779905
C32   C     C_3   0.435246 0.867822 0.269266 -0.800369
C33   C     C_3   0.607130 0.657878 0.155882 -0.796276
C34   C     C_R   0.064441 0.438734 0.456263 0.431408
C35   C     C_3   0.392157 0.258778 0.210754 -0.779704
C36   C     C_3   0.251936 0.279308 0.087940 -0.729593
C37   C     C_3   0.600944 0.667886 0.871077 -0.845429
C38   C     C_3   0.737274 0.543318 0.738556 -0.849472
C39   C     C_R   0.828137 0.456601 0.592261 0.441273
C40   C     C_R   0.758039 0.486012 0.607880 0.080157
C41   C     C_R   0.708717 0.462883 0.498524 -0.167800
C42   C     C_R   0.729143 0.401624 0.380927 -0.200800
C43   C     C_R   0.796972 0.366783 0.367451 0.401047
H1    H     H_    0.401786 0.330412 0.740061 0.214660
H2    H     H_    0.396027 0.792047 0.302969 0.261307
H3    H     H_    0.404069 0.935332 0.218027 0.227792
H4    H     H_    0.470496 0.825546 0.198035 0.294642
H5    H     H_    0.611613 0.755485 0.120993 0.221387
H6    H     H_    0.597476 0.671311 0.261414 0.285472
H7    H     H_    0.658620 0.618486 0.145085 0.225766
H8    H     H_    0.379279 0.286119 0.313666 0.250863
H9    H     H_    0.358226 0.168991 0.184904 0.195948
H10   H     H_    0.444981 0.231356 0.196103 0.290129
H11   H     H_    0.250982 0.301072 0.196919 0.234733
H12   H     H_    0.691767 0.378713 0.297596 0.221300
H13   H     H_    0.208377 0.323107 0.037955 0.257343
H14   H     H_    0.242379 0.175174 0.069467 0.247713
H15   H     H_    0.288138 0.255145 0.720528 0.331836
H16   H     H_    0.163259 0.469463 0.785832 0.363815
H17   H     H_    0.596658 0.664387 0.762613 0.285718
H18   H     H_    0.592788 0.765390 0.901701 0.244105
H19   H     H_    0.655178 0.652764 0.904629 0.222403
H20   H     H_    0.176250 0.495109 0.157075 0.350195
H21   H     H_    0.267541 0.621703 0.206481 0.334409
H22   H     H_    0.877501 0.582335 0.714686 0.343186
H23   H     H_    0.329637 0.651065 0.718728 0.292623
H24   H     H_    0.722013 0.639241 0.721268 0.227731
H25   H     H_    0.693454 0.481517 0.779685 0.281037
H26   H     H_    0.779605 0.552088 0.817563 0.257161
H27   H     H_    0.858391 0.272341 0.257699 0.346790
H28   H     H_    0.507189 0.056427 0.185545 0.379812
H29   H     H_    0.243434 0.657677 0.776169 0.244836
H30   H     H_    0.288673 0.521950 0.810368 0.243485
H31   H     H_    0.659724 0.243642 0.771168 0.345406
H32   H     H_    0.603268 0.240426 0.953641 0.349631
H33   H     H_    0.562503 0.942367 0.044843 0.378163
H34   H     H_    0.429101 0.792952 0.868655 0.375313
N1    N     N_R   0.024127 0.492615 0.365676 -0.086840
N2    N     N_R   0.954126 0.470039 0.363966 -0.148080
N3    N     N_R   0.962344 0.335323 0.540523 -0.088041
N4    N     N_R   0.032435 0.357378 0.541631 -0.099599
N5    N     N_R   0.499340 0.498800 0.142780 -0.111119
N6    N     N_R   0.499320 0.498720 0.857170 -0.105765
O1    O     O_R   0.500000 0.316780 0.614690 -0.612866
O2    O     O_3   0.598023 0.148501 0.968341 -0.731290
O3    O     O_3   0.517990 0.917518 0.991987 -0.825781
O4    O     O_3   0.435039 0.809103 0.773064 -0.746629
O5    O     O_3   0.274248 0.255640 0.814997 -0.748177
O6    O     O_3   0.133270 0.483901 0.706762 -0.715350
O7    O     O_3   0.143040 0.490811 0.230769 -0.738494
O8    O     O_3   0.293010 0.560975 0.256456 -0.758298
O9    O     O_3   0.880434 0.492071 0.688992 -0.715257
O10   O     O_3   0.812235 0.307015 0.248381 -0.718905
O11   O     O_3   0.529285 0.109506 0.260947 -0.738757
O12   O     O_R   0.499990 0.316750 0.385360 -0.594866
O13   O     O_R   0.398140 0.500000 0.614700 -0.629865
O14   O     O_R   0.398130 0.499970 0.385370 -0.554966
O15   O     O_R   0.500010 0.683250 0.614640 -0.580471
O16   O     O_R   0.500000 0.683220 0.385310 -0.631865
O17   O     O_R   0.601870 0.500030 0.614630 -0.595376
O18   O     O_R   0.601860 0.500000 0.385300 -0.636726
O19   O     O_3   0.620244 0.238153 0.703851 -0.747869
Zn1   Zn    Zn3+2 0.500000 0.500020 0.653130 0.957280
Zn2   Zn    Zn3+2 0.500000 0.499980 0.346870 0.967750

loop_
_geom_bond_atom_site_label_1
_geom_bond_atom_site_label_2
_ccdc_geom_bond_type
C31   H23   S    
H22   O9    S    
C41   C42   A    
C13   C32   S    
C19   C20   A    
C16   O15   A    
C37   H19   S    
C7    C8    A    
H28   O11   S    
O12   Zn2   S    
C1    O1    A    
C26   C27   A    
N6    Zn1   S    
C3    C9    A    
C22   N5    A    
C28   C29   A    
C24   N6    A    
H16   O6    S    
C5    C6    A    
C31   H30   S    
C35   H10   S    
C33   H6    S    
O15   Zn1   S    
C18   C19   A    
C32   H2    S    
C4    O13   A    
C2    C39   A    
H32   O2    S    
C7    O4    S    
C8    C9    A    
C34   N4    A    
C23   N3    A    
C4    C12   S    
C9    C10   A    
H31   O19   S    
C5    O2    S    
O16   Zn2   S    
C38   H26   S    
C28   C34   S    
C26   C31   S    
C13   C14   A    
C33   H5    S    
C15   C35   S    
C29   O7    S    
C24   C37   S    
C37   H17   S    
H27   O10   S    
C36   H14   S    
C25   C41   S    
C39   C40   A    
N1    N2    A    
C30   O8    S    
C33   H7    S    
O17   Zn1   S    
C18   O5    S    
C12   C26   A    
C29   C30   A    
C36   H13   S    
C42   H12   S    
C25   O17   A    
C2    C43   A    
C1    O12   A    
C2    C23   S    
C17   C18   A    
C38   H24   S    
C3    O19   S    
C40   C41   A    
C17   C36   S    
C38   H25   S    
O18   Zn2   S    
C35   H8    S    
C32   H4    S    
C14   C16   S    
O13   Zn1   S    
C42   C43   A    
H33   O3    S    
C39   O9    S    
C27   C28   A    
C19   H1    S    
C11   O11   S    
C15   C17   A    
C22   C33   S    
C31   H29   S    
C8    C14   A    
C12   C30   A    
C32   H3    S    
C1    C10   S    
N3    N4    A    
C3    C5    A    
H15   O5    S    
C37   H18   S    
C16   O16   A    
C6    C7    A    
C6    O3    S    
C34   N1    A    
C38   C40   S    
C21   N5    A    
C11   C13   A    
C25   O18   A    
H20   O7    S    
C43   O10   S    
C27   O6    S    
C22   C24   A    
O14   Zn2   S    
C36   H11   S    
C10   C11   A    
C15   C21   A    
C20   C21   A    
H34   O4    S    
C20   N6    A    
C35   H9    S    
O1    Zn1   S    
N5    Zn2   S    
H21   O8    S    
C23   N2    A    
C4    O14   A    
