data_mof_unit_27134.cif
_audit_creation_date              2012-12-11T15:39:15-0500
_audit_creation_method            fapswitch 2.2
_symmetry_space_group_name_H-M    P1
_symmetry_Int_Tables_number       1
_space_group_crystal_system       triclinic
_cell_length_a                    17.326067
_cell_length_b                    24.487533
_cell_length_c                    14.852479
_cell_angle_alpha                 89.950396
_cell_angle_beta                  125.695081
_cell_angle_gamma                 90.166651
_cell_volume                      5117.63604869

loop_
_atom_site_label
_atom_site_type_symbol
_atom_type_description
_atom_site_fract_x
_atom_site_fract_y
_atom_site_fract_z
_atom_type_partial_charge
C1    C     C_R   0.351799 0.347985 0.908774 -0.042882
C2    C     C_R   0.687678 0.373069 0.092994 -0.034639
C3    C     C_R   0.851800 0.847985 0.908775 -0.042894
C4    C     C_R   0.187679 0.873071 0.092994 -0.034616
C5    C     C_R   0.383327 0.682502 0.999555 0.030115
C6    C     C_R   0.687583 0.640222 0.004223 0.041574
C7    C     C_R   0.883324 0.182502 0.999554 0.030096
C8    C     C_R   0.187585 0.140222 0.004224 0.041574
C9    C     C_R   0.446649 0.497590 0.272648 0.125519
C10   C     C_R   0.434181 0.497597 0.629957 0.176326
C11   C     C_R   0.946646 0.997589 0.272646 0.125517
C12   C     C_R   0.934176 0.997597 0.629955 0.176324
C13   C     C_R   0.174719 0.500656 0.727720 0.152202
C14   C     C_R   0.801231 0.499777 0.370977 0.159256
C15   C     C_R   0.674718 0.000655 0.727720 0.152190
C16   C     C_R   0.301234 0.999776 0.370976 0.159250
C17   C     C_R   0.027128 0.552176 0.617287 0.030131
C18   C     C_R   0.932660 0.551127 0.525451 0.029905
C19   C     C_R   0.527125 0.052176 0.617305 0.030111
C20   C     C_R   0.432657 0.051127 0.525463 0.029896
C21   C     C_R   0.071854 0.503612 0.673196 -0.164886
C22   C     C_R   0.882608 0.501847 0.488035 -0.162589
C23   C     C_R   0.571853 0.003610 0.673202 -0.164875
C24   C     C_R   0.382611 0.001845 0.488036 -0.162585
C25   C     C_R   0.015441 0.457098 0.653182 0.386930
C26   C     C_R   0.919871 0.456114 0.559706 0.370572
C27   C     C_R   0.515442 0.957094 0.653182 0.386926
C28   C     C_R   0.419873 0.956111 0.559704 0.370570
C29   C     C_3   0.907634 0.599832 0.565043 -0.238544
C30   C     C_3   0.009650 0.600236 0.666095 -0.197143
C31   C     C_3   0.407624 0.099824 0.565067 -0.238538
C32   C     C_3   0.509636 0.100226 0.666129 -0.197120
C33   C     C_R   0.343424 0.779253 0.964877 -0.111197
C34   C     C_R   0.815703 0.706480 0.107098 -0.113863
C35   C     C_R   0.843472 0.279260 0.964946 -0.111189
C36   C     C_R   0.315721 0.206469 0.107100 -0.113860
C37   C     C_R   0.792899 0.322569 0.965671 -0.163505
C38   C     C_R   0.365084 0.249540 0.105714 -0.144593
C39   C     C_R   0.292851 0.822561 0.965603 -0.163499
C40   C     C_R   0.865070 0.749549 0.105714 -0.144585
C41   C     C_R   0.734358 0.313509 0.000315 -0.051657
C42   C     C_R   0.359941 0.261058 0.009946 0.000725
C43   C     C_R   0.234360 0.813509 0.000319 -0.051661
C44   C     C_R   0.859940 0.761060 0.009950 0.000714
C45   C     C_R   0.444283 0.651652 0.091329 0.046413
C46   C     C_R   0.596591 0.629104 0.909971 0.028709
C47   C     C_R   0.944280 0.151652 0.091329 0.046442
C48   C     C_R   0.096592 0.129104 0.909973 0.028713
C49   C     C_R   0.723291 0.261617 0.031655 0.501351
C50   C     C_R   0.318193 0.223012 0.922272 0.504603
C51   C     C_R   0.223343 0.761625 0.031729 0.501338
C52   C     C_R   0.818198 0.723011 0.922280 0.504584
C53   C     C_R   0.274819 0.719201 0.032390 -0.214257
C54   C     C_R   0.767422 0.679393 0.923983 -0.232490
C55   C     C_R   0.774765 0.219192 0.032314 -0.214258
C56   C     C_R   0.267419 0.179393 0.923977 -0.232500
C57   C     C_R   0.334536 0.728358 0.999880 0.030301
C58   C     C_R   0.760062 0.674127 0.012618 0.059907
C59   C     C_R   0.834531 0.228357 0.999875 0.030313
C60   C     C_R   0.260068 0.174123 0.012617 0.059903
C61   C     C_R   0.360420 0.540574 0.440490 0.365085
C62   C     C_R   0.361225 0.542301 0.346210 0.379958
C63   C     C_R   0.860418 0.040574 0.440487 0.365076
C64   C     C_R   0.861217 0.042299 0.346204 0.379952
C65   C     C_R   0.389815 0.495345 0.318233 -0.231200
C66   C     C_R   0.402717 0.495116 0.513434 -0.297911
C67   C     C_R   0.889809 0.995341 0.318230 -0.231188
C68   C     C_R   0.902716 0.995116 0.513433 -0.297923
C69   C     C_R   0.387590 0.446163 0.363549 0.366773
C70   C     C_R   0.416686 0.446757 0.471944 0.349077
C71   C     C_R   0.887590 0.946160 0.363551 0.366770
C72   C     C_R   0.916689 0.946757 0.471946 0.349087
C73   C     C_R   0.488265 0.453160 0.256776 0.030376
C74   C     C_R   0.443159 0.453620 0.693692 0.043479
C75   C     C_R   0.988264 0.953160 0.256775 0.030368
C76   C     C_R   0.943157 0.953620 0.693692 0.043485
C77   C     C_R   0.232298 0.545905 0.753185 -0.088611
C78   C     C_R   0.753815 0.545097 0.306128 -0.137935
C79   C     C_R   0.732297 0.045904 0.753183 -0.088614
C80   C     C_R   0.253818 0.045096 0.306128 -0.137935
C81   C     C_R   0.475654 0.544147 0.244717 -0.117050
C82   C     C_R   0.453213 0.543731 0.694923 -0.128482
C83   C     C_R   0.975651 0.044146 0.244714 -0.117052
C84   C     C_R   0.953211 0.043730 0.694922 -0.128482
C85   C     C_R   0.230687 0.454543 0.750661 -0.091914
C86   C     C_R   0.755288 0.454478 0.304858 -0.117608
C87   C     C_R   0.730687 0.954543 0.750661 -0.091916
C88   C     C_R   0.255289 0.954477 0.304856 -0.117611
C89   C     C_R   0.351503 0.651419 0.907776 -0.149540
C90   C     C_R   0.690525 0.623380 0.094666 -0.136360
C91   C     C_R   0.851501 0.151418 0.907775 -0.149547
C92   C     C_R   0.190525 0.123380 0.094666 -0.136355
C93   C     C_R   0.447929 0.347904 0.091988 -0.074871
C94   C     C_R   0.594208 0.372334 0.906818 -0.059608
C95   C     C_R   0.947932 0.847904 0.091988 -0.074883
C96   C     C_R   0.094207 0.872333 0.906818 -0.059652
C97   C     C_R   0.386037 0.316151 0.001651 0.121319
C98   C     C_R   0.681416 0.357322 0.999923 0.052175
C99   C     C_R   0.886040 0.816151 0.001652 0.121312
C100  C     C_R   0.181415 0.857322 0.999924 0.052182
H1    H     H_    0.307885 0.335205 0.823177 0.156299
H2    H     H_    0.743590 0.363786 0.178471 0.125133
H3    H     H_    0.807886 0.835204 0.823177 0.156298
H4    H     H_    0.243594 0.863790 0.178472 0.125148
H5    H     H_    0.886204 0.635549 0.508827 0.152467
H6    H     H_    0.020765 0.590609 0.746201 0.170893
H7    H     H_    0.386197 0.135547 0.508864 0.152472
H8    H     H_    0.520741 0.090585 0.746227 0.170894
H9    H     H_    0.389255 0.785180 0.938237 0.159667
H10   H     H_    0.813538 0.702975 0.178156 0.137794
H11   H     H_    0.889343 0.285195 0.938364 0.159664
H12   H     H_    0.313569 0.202958 0.178165 0.137788
H13   H     H_    0.799103 0.362723 0.939675 0.167300
H14   H     H_    0.398073 0.276999 0.175984 0.167959
H15   H     H_    0.299016 0.862708 0.939551 0.167309
H16   H     H_    0.898046 0.777013 0.175979 0.167974
H17   H     H_    0.267127 0.678743 0.056168 0.205876
H18   H     H_    0.730253 0.651496 0.854331 0.166534
H19   H     H_    0.767038 0.178728 0.056041 0.205849
H20   H     H_    0.230246 0.151498 0.854323 0.166534
H21   H     H_    0.212337 0.588091 0.744667 0.109543
H22   H     H_    0.762932 0.586670 0.335172 0.102478
H23   H     H_    0.712334 0.088091 0.744661 0.109544
H24   H     H_    0.262936 0.086670 0.335174 0.102482
H25   H     H_    0.461043 0.585818 0.251663 0.170565
H26   H     H_    0.439570 0.585050 0.666502 0.178630
H27   H     H_    0.961037 0.085817 0.251659 0.170567
H28   H     H_    0.939581 0.085047 0.666505 0.178635
H29   H     H_    0.208934 0.412347 0.736813 0.159443
H30   H     H_    0.767369 0.412246 0.329540 0.169538
H31   H     H_    0.708935 0.912347 0.736815 0.159446
H32   H     H_    0.267369 0.912246 0.329538 0.169547
H33   H     H_    0.307967 0.664903 0.822441 0.132630
H34   H     H_    0.749244 0.626086 0.181067 0.112789
H35   H     H_    0.807965 0.164902 0.822440 0.132642
H36   H     H_    0.249243 0.126087 0.181068 0.112784
H37   H     H_    0.499468 0.333281 0.175044 0.115172
H38   H     H_    0.564460 0.362907 0.821277 0.150815
H39   H     H_    0.999471 0.833280 0.175045 0.115189
H40   H     H_    0.064458 0.862906 0.821277 0.150817
N1    N     N_R   0.394180 0.396910 0.943210 -0.059457
N2    N     N_R   0.605820 0.396910 0.056790 -0.049404
N3    N     N_R   0.894180 0.896910 0.943210 -0.059456
N4    N     N_R   0.105820 0.896910 0.056790 -0.049402
N5    N     N_R   0.450950 0.603070 0.056740 -0.061471
N6    N     N_R   0.549050 0.603070 0.943260 -0.060081
N7    N     N_R   0.950950 0.103070 0.056740 -0.061476
N8    N     N_R   0.049050 0.103070 0.943260 -0.060081
N9    N     N_R   0.525650 0.471570 0.206150 -0.073001
N10   N     N_R   0.474350 0.471570 0.793850 -0.084747
N11   N     N_R   0.025650 0.971570 0.206150 -0.073000
N12   N     N_R   0.974350 0.971570 0.793850 -0.084743
N13   N     N_R   0.319480 0.528420 0.793810 -0.048641
N14   N     N_R   0.680520 0.528420 0.206190 -0.048177
N15   N     N_R   0.819480 0.028420 0.793810 -0.048639
N16   N     N_R   0.180520 0.028420 0.206190 -0.048177
N17   N     N_R   0.525640 0.528390 0.206120 -0.064474
N18   N     N_R   0.474360 0.528390 0.793880 -0.067294
N19   N     N_R   0.025640 0.028390 0.206120 -0.064474
N20   N     N_R   0.974360 0.028390 0.793880 -0.067295
N21   N     N_R   0.319490 0.471590 0.793840 -0.068254
N22   N     N_R   0.680510 0.471590 0.206160 -0.060761
N23   N     N_R   0.819490 0.971590 0.793840 -0.068253
N24   N     N_R   0.180510 0.971590 0.206160 -0.060762
N25   N     N_R   0.394130 0.603080 0.943110 -0.050342
N26   N     N_R   0.605870 0.603080 0.056890 -0.053832
N27   N     N_R   0.894130 0.103080 0.943110 -0.050343
N28   N     N_R   0.105870 0.103080 0.056890 -0.053834
N29   N     N_R   0.450990 0.396900 0.056840 -0.052818
N30   N     N_R   0.549010 0.396900 0.943160 -0.054600
N31   N     N_R   0.950990 0.896900 0.056840 -0.052817
N32   N     N_R   0.049010 0.896900 0.943160 -0.054602
Ni1   Ni    Ni4+2 0.434860 0.434850 0.869700 0.240549
Ni2   Ni    Ni4+2 0.565140 0.434850 0.130300 0.249887
Ni3   Ni    Ni4+2 0.934860 0.934850 0.869700 0.240543
Ni4   Ni    Ni4+2 0.065140 0.934850 0.130300 0.249894
Ni5   Ni    Ni4+2 0.565130 0.565140 0.130240 0.222678
Ni6   Ni    Ni4+2 0.434870 0.565140 0.869760 0.239506
Ni7   Ni    Ni4+2 0.065130 0.065140 0.130240 0.222676
Ni8   Ni    Ni4+2 0.934870 0.065140 0.869760 0.239509
C101  C     C_1   0.839472 0.587781 0.591524 0.203181
N33   N     N_1   0.785920 0.578311 0.612163 -0.036104
C102  C     C_1   0.061192 0.649568 0.672107 0.156654
N34   N     N_1   0.101587 0.688453 0.676929 -0.047758
C103  C     C_1   0.339452 0.087761 0.591531 0.203182
N35   N     N_1   0.285892 0.078282 0.612156 -0.036116
C104  C     C_1   0.561180 0.149566 0.672174 0.156675
N36   N     N_1   0.601578 0.188458 0.677024 -0.047766
Cl1   Cl    Cl    0.642936 0.247478 0.065472 -0.568112
Cl2   Cl    Cl    0.327498 0.227836 0.810659 -0.625770
Cl3   Cl    Cl    0.143038 0.747489 0.065622 -0.568094
Cl4   Cl    Cl    0.827514 0.727833 0.810673 -0.625797
Cl5   Cl    Cl    0.302118 0.593261 0.460166 -0.545820
Cl6   Cl    Cl    0.314771 0.599564 0.257361 -0.542103
Cl7   Cl    Cl    0.802140 0.093276 0.460176 -0.545825
Cl8   Cl    Cl    0.814756 0.099558 0.257346 -0.542098
Cl9   Cl    Cl    0.337064 0.386439 0.282299 -0.579834
Cl10  Cl    Cl    0.491658 0.392083 0.554268 -0.609531
Cl11  Cl    Cl    0.837073 0.886434 0.282312 -0.579859
Cl12  Cl    Cl    0.991673 0.892087 0.554278 -0.609541
C105  C     C_1   0.512622 0.673076 0.200869 0.071045
N37   N     N_1   0.567599 0.690265 0.288884 -0.043618
C106  C     C_1   0.551894 0.657022 0.805565 0.061923
N38   N     N_1   0.516761 0.680258 0.722524 -0.000897
C107  C     C_1   0.012616 0.173076 0.200868 0.071049
N39   N     N_1   0.067590 0.190266 0.288884 -0.043617
C108  C     C_1   0.051898 0.157020 0.805564 0.061923
N40   N     N_1   0.016771 0.180253 0.722521 -0.000893
C109  C     C_1   0.525593 0.404483 0.323547 0.184049
N41   N     N_1   0.556807 0.365664 0.377935 0.017856
C110  C     C_1   0.384002 0.405392 0.650147 0.159772
N42   N     N_1   0.336400 0.366787 0.615672 -0.020098
C111  C     C_1   0.025595 0.904483 0.323548 0.184057
N43   N     N_1   0.056810 0.865664 0.377938 0.017864
C112  C     C_1   0.884009 0.905387 0.650150 0.159749
N44   N     N_1   0.836415 0.866778 0.615678 -0.020095
Cl13  Cl    Cl    0.061629 0.401618 0.746749 -0.557110
Cl14  Cl    Cl    0.847491 0.399870 0.540051 -0.563926
Cl15  Cl    Cl    0.561630 0.901613 0.746744 -0.557116
Cl16  Cl    Cl    0.347493 0.899865 0.540045 -0.563924

loop_
_geom_bond_atom_site_label_1
_geom_bond_atom_site_label_2
_ccdc_geom_bond_type
C84   H28   S    
C87   N23   A    
C106  N38   T    
N12   N20   A    
C27   Cl15  S    
C17   C30   S    
C55   C59   A    
C26   Cl14  S    
C85   N21   A    
C30   C102  S    
C6    C58   S    
C25   Cl13  S    
C19   C20   A    
N3    Ni3   S    
C112  N44   T    
N23   Ni3   S    
C84   N20   A    
C51   Cl3   S    
N2    Ni2   S    
N5    N25   A    
C107  N39   T    
C12   C68   S    
C93   N29   A    
C33   C39   A    
C29   C101  S    
C96   C100  A    
C34   C40   A    
C91   N27   A    
C35   C37   A    
C38   C42   A    
C93   H37   S    
C80   H24   S    
C82   N18   A    
N16   Ni7   S    
C53   H17   S    
C62   Cl6   S    
C49   Cl1   S    
C2    H2    S    
C95   C99   A    
C3    H3    S    
C48   N8    A    
N11   N19   A    
C88   N24   A    
N6    Ni6   S    
C35   C59   A    
N9    Ni2   S    
C52   Cl4   S    
C87   H31   S    
N8    Ni8   S    
N20   Ni8   S    
C83   N19   A    
C85   H29   S    
C63   C68   A    
N12   Ni3   S    
C61   C66   A    
C41   C49   A    
C82   H26   S    
C20   C24   A    
C63   Cl7   S    
C75   N11   A    
C36   H12   S    
N29   Ni2   S    
C80   N16   A    
C8    C92   A    
C23   C27   A    
C6    C46   A    
C40   C44   A    
C61   C62   A    
C32   C104  S    
N32   Ni3   S    
C95   N31   A    
N2    N30   A    
C77   N13   A    
C44   C52   A    
C15   C23   S    
N27   Ni8   S    
N6    N26   A    
C96   N32   A    
C16   C24   S    
C90   N26   A    
C69   Cl9   S    
N25   Ni6   S    
C56   H20   S    
C31   C103  S    
C92   H36   S    
C9    C73   A    
C50   Cl2   S    
C19   C32   S    
C7    C59   S    
C11   C67   S    
C17   C18   A    
C47   N7    A    
C10   C66   S    
C13   C77   A    
C81   N17   A    
C47   C107  S    
C13   C21   S    
C108  N40   T    
C64   C67   A    
C89   H33   S    
C43   C100  S    
C14   C86   A    
C42   C97   S    
C1    C97   A    
C18   C29   S    
C77   H21   S    
C53   C57   A    
C78   N14   A    
C55   H19   S    
C12   C84   A    
C11   C83   A    
C25   C26   A    
C101  N33   T    
C79   H23   S    
C75   C111  S    
C50   C56   A    
C56   C60   A    
N13   N21   A    
C16   C80   A    
C94   H38   S    
C7    C47   A    
C19   C23   A    
C102  N34   T    
C8    C48   A    
C4    N4    A    
C29   C30   S    
C30   H6    S    
N7    Ni7   S    
C72   Cl12  S    
C28   Cl16  S    
N21   Ni1   S    
C92   N28   A    
C93   C97   A    
C110  N42   T    
C111  N43   T    
C68   C72   A    
C7    C91   A    
N4    Ni4   S    
N1    N29   A    
C109  N41   T    
C3    N3    A    
N26   Ni5   S    
N17   Ni5   S    
C34   C58   A    
C2    N2    A    
C89   N25   A    
N7    N27   A    
C42   C50   A    
C86   N22   A    
C45   C105  S    
C46   C106  S    
C1    H1    S    
C39   H15   S    
C94   N30   A    
C4    C100  A    
C12   C76   A    
C32   H8    S    
N1    Ni1   S    
N8    N28   A    
C45   N5    A    
C33   H9    S    
C88   H32   S    
N5    Ni5   S    
C61   Cl5   S    
C35   H11   S    
N15   Ni8   S    
C15   C87   A    
C54   C58   A    
C83   H27   S    
C73   C109  S    
C65   C69   A    
C21   C25   A    
N13   Ni6   S    
C46   N6    A    
C33   C57   A    
N11   Ni4   S    
N10   N18   A    
C62   C65   A    
C81   H25   S    
C18   C22   A    
C31   H7    S    
C6    C90   A    
N14   N22   A    
C31   C32   S    
C86   H30   S    
C24   C28   A    
N19   Ni7   S    
C63   C64   A    
C36   C60   A    
C49   C55   A    
C96   H40   S    
C39   C43   A    
C4    H4    S    
C71   Cl11  S    
N22   Ni2   S    
C15   C79   A    
C76   N12   A    
N28   Ni7   S    
N31   Ni4   S    
N4    N32   A    
C95   H39   S    
C105  N37   T    
C5    C57   S    
C74   C110  S    
N15   N23   A    
C14   C22   S    
C54   H18   S    
N18   Ni6   S    
N3    N31   A    
C71   C72   A    
C11   C75   A    
C8    C60   S    
N16   N24   A    
C10   C74   A    
C76   C112  S    
C43   C51   A    
C103  N35   T    
C40   H16   S    
C5    C45   A    
C38   H14   S    
C64   Cl8   S    
C48   C108  S    
C36   C38   A    
C44   C99   S    
C10   C82   A    
C52   C54   A    
N24   Ni4   S    
C67   C71   A    
C14   C78   A    
C37   C41   A    
C69   C70   A    
C78   H22   S    
C9    C65   S    
C1    N1    A    
C79   N15   A    
C29   H5    S    
C73   N9    A    
C3    C99   A    
C104  N36   T    
N10   Ni1   S    
C91   H35   S    
C66   C70   A    
C2    C98   A    
C70   Cl10  S    
C22   C26   A    
N14   Ni5   S    
C13   C85   A    
C27   C28   A    
C16   C88   A    
C94   C98   A    
C41   C98   S    
C74   N10   A    
C37   H13   S    
C90   H34   S    
C34   H10   S    
C51   C53   A    
N9    N17   A    
C20   C31   S    
C5    C89   A    
C9    C81   A    
N30   Ni1   S    
C17   C21   A    
