data_mof_unit_36979.cif
_audit_creation_date              2012-12-10T18:45:35-0500
_audit_creation_method            fapswitch 2.2
_symmetry_space_group_name_H-M    P1
_symmetry_Int_Tables_number       1
_space_group_crystal_system       triclinic
_cell_length_a                    19.4214
_cell_length_b                    18.168643
_cell_length_c                    10.775508
_cell_angle_alpha                 89.972093
_cell_angle_beta                  89.605054
_cell_angle_gamma                 90.309843
_cell_volume                      3802.10450973

loop_
_atom_site_label
_atom_site_type_symbol
_atom_type_description
_atom_site_fract_x
_atom_site_fract_y
_atom_site_fract_z
_atom_type_partial_charge
C1    C     C_R   0.367544 0.499895 0.499541 0.752211
C2    C     C_R   0.927967 0.501731 0.497756 -0.059675
C3    C     C_R   0.487531 0.721908 0.393505 0.063339
C4    C     C_R   0.551298 0.277763 0.443239 0.083306
C5    C     C_R   0.514163 0.720842 0.607062 0.062929
C6    C     C_R   0.443889 0.280268 0.546412 0.045186
C7    C     C_R   0.487278 0.799020 0.392728 -0.274819
C8    C     C_R   0.548506 0.200493 0.437414 -0.250355
C9    C     C_R   0.513810 0.797886 0.610340 -0.257023
C10   C     C_R   0.440048 0.203330 0.544922 -0.285121
C11   C     C_R   0.500037 0.838030 0.502455 0.140723
C12   C     C_R   0.632488 0.500177 0.499953 0.817450
C13   C     C_R   0.493071 0.161523 0.491914 0.131476
C14   C     C_R   0.555745 0.962616 0.540387 -0.051964
C15   C     C_R   0.433839 0.035232 0.469240 -0.051995
C16   C     C_R   0.435999 0.957164 0.473749 -0.053798
C17   C     C_R   0.552742 0.040773 0.542251 -0.051960
C18   C     C_R   0.493023 0.078118 0.500016 -0.019037
C19   C     C_R   0.497595 0.920596 0.504558 -0.023379
C20   C     C_R   0.488310 0.499206 0.263568 0.810508
C21   C     C_R   0.487973 0.499595 0.737045 0.809871
C22   C     C_R   0.408113 0.614980 0.134037 -0.241585
C23   C     C_R   0.708109 0.500594 0.499612 -0.035898
C24   C     C_R   0.443942 0.361314 0.873323 -0.206328
C25   C     C_R   0.421454 0.626089 0.877820 -0.258395
C26   C     C_R   0.449408 0.359583 0.128434 -0.221472
C27   C     C_R   0.381623 0.676752 0.073960 0.192472
C28   C     C_R   0.441614 0.293594 0.935762 0.191727
C29   C     C_R   0.392887 0.684986 0.945003 0.188115
C30   C     C_R   0.447350 0.292769 0.065335 0.167927
C31   C     C_R   0.445333 0.561713 0.937420 0.056834
C32   C     C_R   0.459689 0.427657 0.066424 0.050862
C33   C     C_R   0.442539 0.559058 0.068733 0.049798
C34   C     C_R   0.292041 0.500006 0.498135 -0.015236
C35   C     C_R   0.458459 0.428457 0.935114 0.041641
C36   C     C_R   0.465528 0.497227 0.870932 -0.190452
C37   C     C_R   0.465424 0.495610 0.131289 -0.188738
C38   C     C_R   0.744545 0.434146 0.491082 -0.193984
C39   C     C_R   0.256344 0.566798 0.487614 -0.208090
C40   C     C_R   0.254969 0.433606 0.507187 -0.196829
C41   C     C_R   0.744572 0.567438 0.507591 -0.192618
C42   C     C_R   0.816229 0.434624 0.490190 -0.187888
C43   C     C_R   0.184734 0.567136 0.486480 -0.191275
C44   C     C_R   0.183293 0.434111 0.506429 -0.188723
C45   C     C_R   0.963878 0.501971 0.382656 0.110013
C46   C     C_R   0.816260 0.567743 0.507170 -0.190147
C47   C     C_R   0.852181 0.501377 0.498326 0.164391
C48   C     C_R   0.148106 0.500854 0.496228 0.167119
C49   C     C_3   0.447759 0.222220 0.139606 -0.412268
C50   C     C_3   0.518643 0.186096 0.133635 -0.854544
C51   C     C_3   0.373503 0.754424 0.875821 -0.423911
C52   C     C_3   0.422508 0.817617 0.908502 -0.870340
C53   C     C_3   0.426516 0.224540 0.862476 -0.432019
C54   C     C_3   0.349867 0.218593 0.833091 -0.881963
C55   C     C_3   0.335423 0.727276 0.148747 -0.422702
C56   C     C_R   0.036480 0.501805 0.611818 0.109824
C57   C     C_3   0.265221 0.690926 0.170687 -0.854564
C58   C     C_3   0.923780 0.503566 0.260966 -0.382339
C59   C     C_3   0.911340 0.582426 0.217581 -0.849481
C60   C     C_3   0.076638 0.503670 0.733519 -0.380639
C61   C     C_3   0.090196 0.582624 0.775977 -0.851412
C62   C     C_3   0.077434 0.500409 0.259870 -0.381743
C63   C     C_3   0.090537 0.421694 0.216240 -0.849602
C64   C     C_3   0.922987 0.500227 0.734629 -0.381350
C65   C     C_3   0.909802 0.421439 0.778782 -0.850872
C66   C     C_R   0.619854 0.924384 0.577369 0.124390
C67   C     C_R   0.036864 0.501631 0.382122 0.109588
C68   C     C_R   0.658596 0.885582 0.488697 -0.140753
C69   C     C_R   0.718075 0.848184 0.523913 -0.140977
C70   C     C_R   0.739286 0.849414 0.647585 -0.114936
C71   C     C_R   0.701018 0.888004 0.736289 -0.135214
C72   C     C_R   0.641411 0.925314 0.701546 -0.143225
C73   C     C_R   0.368357 0.070686 0.433416 0.136997
C74   C     C_R   0.359293 0.095591 0.311791 -0.163734
C75   C     C_R   0.296816 0.126934 0.276382 -0.147389
C76   C     C_R   0.242815 0.132660 0.362201 -0.105233
C77   C     C_R   0.250885 0.106055 0.482940 -0.135967
C78   C     C_R   0.963496 0.501645 0.612339 0.109977
C79   C     C_R   0.313194 0.074394 0.518260 -0.153935
C80   C     C_R   0.371962 0.913476 0.453867 0.137743
C81   C     C_R   0.341647 0.875212 0.553676 -0.141485
C82   C     C_R   0.280245 0.836119 0.537301 -0.143437
C83   C     C_R   0.248234 0.835736 0.421627 -0.108641
C84   C     C_R   0.278143 0.873553 0.321725 -0.137275
C85   C     C_R   0.340276 0.911526 0.337141 -0.144764
C86   C     C_R   0.610806 0.083431 0.596379 0.127564
C87   C     C_R   0.600594 0.123792 0.706137 -0.143718
C88   C     C_R   0.654477 0.165124 0.756460 -0.135607
C89   C     C_R   0.072363 0.501413 0.496706 -0.059799
C90   C     C_R   0.718933 0.166207 0.697966 -0.113420
C91   C     C_R   0.729615 0.125862 0.589145 -0.141117
C92   C     C_R   0.675814 0.084551 0.538335 -0.146482
Cu1   Cu    Cu3+1 0.500000 0.573360 0.500000 0.929080
Cu2   Cu    Cu3+1 0.500000 0.426640 0.500000 0.925256
H1    H     H_    0.395908 0.607847 0.231463 0.161072
H2    H     H_    0.157741 0.618897 0.477899 0.125450
H3    H     H_    0.155108 0.382696 0.514450 0.125251
H4    H     H_    0.843868 0.619531 0.514096 0.124071
H5    H     H_    0.478246 0.693359 0.307907 0.128886
H6    H     H_    0.594178 0.306692 0.400787 0.115795
H7    H     H_    0.526207 0.691443 0.691048 0.136161
H8    H     H_    0.401933 0.310856 0.586909 0.119884
H9    H     H_    0.477135 0.828053 0.307020 0.128124
H10   H     H_    0.589738 0.171373 0.391067 0.133495
H11   H     H_    0.524321 0.826112 0.696433 0.137635
H12   H     H_    0.428916 0.360486 0.777665 0.169088
H13   H     H_    0.397119 0.177191 0.590816 0.158712
H14   H     H_    0.533785 0.172471 0.036985 0.238212
H15   H     H_    0.558125 0.223913 0.172339 0.253575
H16   H     H_    0.518030 0.134520 0.188901 0.239528
H17   H     H_    0.435242 0.232782 0.238828 0.215963
H18   H     H_    0.407362 0.184258 0.105406 0.196537
H19   H     H_    0.417583 0.833698 0.007353 0.241633
H20   H     H_    0.476606 0.800896 0.891286 0.249940
H21   H     H_    0.410979 0.866463 0.850603 0.236472
H22   H     H_    0.376782 0.745798 0.773790 0.200379
H23   H     H_    0.419126 0.629817 0.778359 0.168282
H24   H     H_    0.319292 0.769721 0.895777 0.198721
H25   H     H_    0.319004 0.219976 0.920248 0.253774
H26   H     H_    0.333691 0.264540 0.772111 0.244864
H27   H     H_    0.339167 0.165669 0.785382 0.237716
H28   H     H_    0.458061 0.225551 0.777119 0.207454
H29   H     H_    0.442036 0.173587 0.910529 0.209863
H30   H     H_    0.240943 0.677019 0.080566 0.250668
H31   H     H_    0.270554 0.639958 0.226658 0.254190
H32   H     H_    0.230771 0.729096 0.221460 0.237211
H33   H     H_    0.359616 0.739675 0.239549 0.206862
H34   H     H_    0.437132 0.356281 0.225607 0.179070
H35   H     H_    0.326827 0.780809 0.102892 0.210454
H36   H     H_    0.877833 0.611905 0.284556 0.255511
H37   H     H_    0.960576 0.613221 0.207944 0.240376
H38   H     H_    0.885385 0.581559 0.126091 0.239821
H39   H     H_    0.950319 0.472469 0.186573 0.202744
H40   H     H_    0.873427 0.474989 0.269699 0.206462
H41   H     H_    0.041338 0.613506 0.785892 0.240453
H42   H     H_    0.116476 0.581968 0.867172 0.239658
H43   H     H_    0.123816 0.611865 0.708352 0.255223
H44   H     H_    0.049731 0.473003 0.808385 0.203061
H45   H     H_    0.717760 0.381862 0.484616 0.146661
H46   H     H_    0.126579 0.474838 0.725151 0.206742
H47   H     H_    0.123811 0.392294 0.282911 0.256111
H48   H     H_    0.041481 0.390681 0.206818 0.240024
H49   H     H_    0.117017 0.422846 0.124591 0.240589
H50   H     H_    0.051019 0.531320 0.185744 0.203435
H51   H     H_    0.127554 0.529391 0.267979 0.207196
H52   H     H_    0.876224 0.391707 0.712585 0.255519
H53   H     H_    0.958763 0.390781 0.787830 0.240297
H54   H     H_    0.883615 0.422471 0.870692 0.239746
H55   H     H_    0.949515 0.531604 0.808407 0.202532
H56   H     H_    0.283645 0.618769 0.479911 0.158150
H57   H     H_    0.872875 0.528627 0.726437 0.206858
H58   H     H_    0.642534 0.884181 0.392665 0.121207
H59   H     H_    0.747677 0.818161 0.455375 0.121912
H60   H     H_    0.785315 0.820378 0.674704 0.117036
H61   H     H_    0.717404 0.888768 0.832074 0.122929
H62   H     H_    0.611751 0.954403 0.771254 0.122104
H63   H     H_    0.400116 0.088582 0.244315 0.125575
H64   H     H_    0.289978 0.146130 0.182205 0.119339
H65   H     H_    0.194487 0.156948 0.334759 0.116193
H66   H     H_    0.208809 0.109716 0.548976 0.121993
H67   H     H_    0.281238 0.381420 0.515510 0.142823
H68   H     H_    0.318891 0.053485 0.611760 0.116655
H69   H     H_    0.365340 0.876271 0.644184 0.123778
H70   H     H_    0.257168 0.806705 0.614576 0.120164
H71   H     H_    0.200275 0.806095 0.409445 0.112760
H72   H     H_    0.253328 0.873151 0.232118 0.126187
H73   H     H_    0.363353 0.939854 0.258700 0.117198
H74   H     H_    0.550894 0.123258 0.752342 0.113897
H75   H     H_    0.646233 0.196325 0.840766 0.127440
H76   H     H_    0.760603 0.198309 0.736947 0.119857
H77   H     H_    0.779538 0.126817 0.543910 0.122422
H78   H     H_    0.717804 0.619430 0.514552 0.154881
H79   H     H_    0.684466 0.054126 0.453301 0.121451
H80   H     H_    0.843818 0.383131 0.482863 0.124653
N1    N     N_R   0.500000 0.683620 0.500000 -0.171280
N2    N     N_R   0.500000 0.316380 0.500000 -0.173494
O1    O     O_R   0.400190 0.561980 0.499980 -0.596628
O2    O     O_R   0.599810 0.438020 0.500020 -0.583646
O3    O     O_R   0.599810 0.561980 0.500020 -0.570238
O4    O     O_R   0.400190 0.438020 0.499980 -0.610656
O5    O     O_R   0.500000 0.561950 0.319660 -0.589248
O6    O     O_R   0.500000 0.438050 0.680340 -0.578241
O7    O     O_R   0.500000 0.561950 0.680340 -0.598254
O8    O     O_R   0.500000 0.438050 0.319660 -0.587611

loop_
_geom_bond_atom_site_label_1
_geom_bond_atom_site_label_2
_ccdc_geom_bond_type
C25   C31   A    
C15   C18   A    
C66   C68   A    
C87   C88   A    
C76   H65   S    
C26   C32   A    
Cu1   Cu2   S    
C72   H62   S    
C54   H26   S    
C27   C29   A    
C5    N1    A    
C22   H1    S    
C12   O2    A    
C35   C36   A    
C67   C89   A    
C4    C8    A    
C81   C82   A    
Cu1   O3    S    
C59   H36   S    
C21   C36   S    
C53   C54   S    
C58   H40   S    
C7    C11   A    
C83   H71   S    
C12   C23   S    
C11   C19   S    
C80   C85   A    
C82   H70   S    
C13   C18   S    
C68   H58   S    
C38   C42   A    
C3    C7    A    
C53   H28   S    
C57   H31   S    
C1    O4    A    
C27   C55   S    
C9    H11   S    
C15   C16   A    
C50   H16   S    
C51   H24   S    
C56   C78   A    
Cu2   O2    S    
C1    O1    A    
C66   C72   A    
C83   C84   A    
C68   C69   A    
C55   H35   S    
C62   H51   S    
C45   C67   A    
C41   C46   A    
C31   C33   A    
C70   C71   A    
C65   H53   S    
C43   C48   A    
C49   H17   S    
C46   H4    S    
C71   H61   S    
C2    C45   A    
C7    H9    S    
C54   H25   S    
C25   C29   A    
C81   H69   S    
C14   C17   A    
C10   H13   S    
Cu2   O8    S    
C1    C34   S    
C17   C18   A    
C17   C86   S    
C77   C79   A    
C58   H39   S    
C14   C66   S    
C21   O6    A    
C59   H38   S    
C41   H78   S    
C5    H7    S    
C45   C58   S    
C24   C35   A    
C74   C75   A    
C64   H57   S    
C34   C39   A    
C85   H73   S    
C32   C35   A    
C76   C77   A    
C53   H29   S    
C57   H32   S    
Cu1   O1    S    
C86   C87   A    
C39   C43   A    
C58   C59   S    
C52   H19   S    
Cu1   N1    S    
C50   H15   S    
C33   C37   A    
C51   C52   S    
C91   H77   S    
C60   C61   S    
C16   C80   S    
C75   C76   A    
C5    C9    A    
C62   C63   S    
C2    C78   A    
C9    C11   A    
C44   H3    S    
C87   H74   S    
C39   H56   S    
C40   C44   A    
C38   H45   S    
C59   H37   S    
C90   H76   S    
C43   H2    S    
C63   H47   S    
C26   H34   S    
C32   C37   A    
C84   C85   A    
C65   H54   S    
C8    H10   S    
C60   H46   S    
C49   H18   S    
C62   C67   S    
C75   H64   S    
C3    N1    A    
C56   C89   A    
C15   C73   S    
C54   H27   S    
C88   C90   A    
C26   C30   A    
C48   C89   S    
C4    H6    S    
C42   H80   S    
C2    C47   S    
C34   C40   A    
C24   H12   S    
C79   H68   S    
C30   C49   S    
C73   C74   A    
C91   C92   A    
C61   H41   S    
C29   C51   S    
C52   H21   S    
C21   O7    A    
C22   C33   A    
C46   C47   A    
C88   H75   S    
C74   H63   S    
C70   H60   S    
C64   C78   S    
C14   C19   A    
C50   H14   S    
C24   C28   A    
C62   H50   S    
C80   C81   A    
C73   C79   A    
C10   C13   A    
C25   H23   S    
C55   H33   S    
C28   C53   S    
C52   H20   S    
C92   H79   S    
C23   C38   A    
Cu2   O4    S    
C51   H22   S    
C23   C41   A    
C20   O8    A    
C64   H55   S    
C22   C27   A    
C64   C65   S    
C55   C57   S    
C40   H67   S    
C86   C92   A    
C57   H30   S    
C20   C37   S    
Cu1   O7    S    
C61   H43   S    
C90   C91   A    
C6    N2    A    
C16   C19   A    
C28   C30   A    
C63   H48   S    
Cu1   O5    S    
C42   C47   A    
C6    H8    S    
C69   C70   A    
C69   H59   S    
C84   H72   S    
C6    C10   A    
C77   H66   S    
C8    C13   A    
C3    H5    S    
C71   C72   A    
C12   O3    A    
C56   C60   S    
C49   C50   S    
C4    N2    A    
C60   H44   S    
C63   H49   S    
C31   C36   A    
Cu2   O6    S    
C82   C83   A    
C65   H52   S    
C44   C48   A    
C61   H42   S    
Cu2   N2    S    
C20   O5    A    
