data_mof_unit_33226.cif
_audit_creation_date              2012-10-26T19:35:14-0400
_audit_creation_method            fapswitch 2.2
_symmetry_space_group_name_H-M    P1
_symmetry_Int_Tables_number       1
_space_group_crystal_system       triclinic
_cell_length_a                    10.772919
_cell_length_b                    10.813497
_cell_length_c                    9.544784
_cell_angle_alpha                 90.083058
_cell_angle_beta                  90.10143
_cell_angle_gamma                 90.044029
_cell_volume                      1111.8965874

loop_
_atom_site_label
_atom_site_type_symbol
_atom_type_description
_atom_site_fract_x
_atom_site_fract_y
_atom_site_fract_z
_atom_type_partial_charge
Br1   Br    Br    0.143193 0.729701 0.350984 -0.520371
C1    C     C_R   0.497124 0.262317 0.499890 0.527289
C2    C     C_R   0.471268 0.935385 0.372441 -0.130780
C3    C     C_R   0.484085 0.870775 0.499438 0.023356
C4    C     C_R   0.262572 0.498759 0.499886 0.577673
C5    C     C_R   0.477755 0.936573 0.625080 0.035760
C6    C     C_3   0.558638 0.930620 0.752152 -0.270511
C7    C     C_3   0.557157 0.071037 0.752726 -0.268024
C8    C     C_R   0.561614 0.590136 0.073914 0.161111
C9    C     C_R   0.429889 0.418190 0.074150 0.002692
C10   C     C_R   0.429879 0.418168 0.925238 -0.003584
C11   C     C_R   0.561723 0.590039 0.926541 0.157882
C12   C     C_R   0.066087 0.392409 0.562574 -0.005230
C13   C     C_3   0.697424 0.617061 0.921266 -0.272904
C14   C     C_3   0.697188 0.617576 0.080218 -0.275869
C15   C     C_R   0.497488 0.737707 0.499972 0.568696
C16   C     C_R   0.737321 0.497156 0.500088 0.534412
C17   C     C_R   0.130695 0.290947 0.621367 -0.103849
C18   C     C_R   0.066478 0.192347 0.681193 -0.105409
C19   C     C_R   0.937369 0.191980 0.682384 -0.114715
C20   C     C_R   0.871732 0.290145 0.623526 -0.101090
C21   C     C_R   0.934964 0.391679 0.563477 0.017442
C22   C     C_R   0.128738 0.493141 0.499528 0.013676
C23   C     C_R   0.062655 0.589319 0.434857 0.133893
C24   C     C_R   0.934464 0.586986 0.434808 -0.125911
C25   C     C_R   0.870895 0.490935 0.500254 -0.030901
C26   C     C_R   0.477015 0.063814 0.625097 0.014233
C27   C     C_R   0.483352 0.129292 0.499375 0.003073
C28   C     C_R   0.470944 0.064283 0.372409 -0.150953
Cu1   Cu    Cu3+1 0.499990 0.499980 0.640670 0.941123
Cu2   Cu    Cu3+1 0.500010 0.500020 0.359330 0.968765
H1    H     H_    0.651762 0.891162 0.729461 0.130457
H2    H     H_    0.230871 0.285617 0.620145 0.125466
H3    H     H_    0.117168 0.115382 0.725676 0.125306
H4    H     H_    0.887911 0.114680 0.727809 0.110159
H5    H     H_    0.771560 0.284711 0.623765 0.129082
H6    H     H_    0.883791 0.662215 0.386163 0.144317
H7    H     H_    0.467608 0.112247 0.272926 0.132059
H8    H     H_    0.468025 0.887135 0.272966 0.149529
H9    H     H_    0.509848 0.889314 0.843356 0.145767
H10   H     H_    0.506863 0.110826 0.843849 0.134505
H11   H     H_    0.649449 0.112786 0.731478 0.130936
H12   H     H_    0.375051 0.350396 0.129780 0.115946
H13   H     H_    0.375021 0.350369 0.869164 0.112532
H14   H     H_    0.752463 0.539644 0.876490 0.164346
H15   H     H_    0.717286 0.709292 0.875395 0.123727
H16   H     H_    0.752435 0.540677 0.125716 0.164233
H17   H     H_    0.716318 0.710233 0.126017 0.129961
N1    N     N_R   0.500790 0.500930 0.147930 -0.227619
N2    N     N_R   0.500790 0.500890 0.852020 -0.231718
O1    O     O_R   0.500000 0.319640 0.618810 -0.521704
O2    O     O_R   0.500010 0.319680 0.381230 -0.515876
O3    O     O_R   0.319640 0.499980 0.618820 -0.503774
O4    O     O_R   0.319650 0.500020 0.381230 -0.465518
O5    O     O_R   0.499990 0.680320 0.618770 -0.493058
O6    O     O_R   0.500000 0.680360 0.381190 -0.491205
O7    O     O_R   0.680350 0.499980 0.618770 -0.511559
O8    O     O_R   0.680360 0.500020 0.381180 -0.507271

loop_
_geom_bond_atom_site_label_1
_geom_bond_atom_site_label_2
_ccdc_geom_bond_type
C28   H7    S    
C3    C15   S    
C11   N2    A    
C6    H9    S    
C15   O6    A    
C23   C24   A    
C5    C6    S    
Cu2   O6    S    
Cu1   O5    S    
Cu2   O2    S    
C5    C26   A    
C4    C22   S    
C14   H16   S    
C16   O8    A    
Cu1   O1    S    
C24   C25   A    
Cu1   N2    S    
C15   O5    A    
C2    H8    S    
C6    C7    S    
C13   H15   S    
C20   H5    S    
C20   C21   A    
C7    H10   S    
C19   H4    S    
C1    O2    A    
C14   H17   S    
Cu2   N1    S    
C16   C25   S    
C12   C17   A    
Cu2   O8    S    
C4    O3    A    
C27   C28   A    
Cu1   O3    S    
C11   C13   S    
C12   C21   A    
C13   H14   S    
Cu2   O4    S    
C8    C14   S    
Cu1   Cu2   S    
C17   H2    S    
C8    C11   A    
C22   C23   A    
C21   C25   A    
C2    C3    A    
Cu1   O7    S    
C4    O4    A    
C10   H13   S    
C8    N1    A    
C19   C20   A    
C12   C22   A    
Br1   C23   S    
C3    C5    A    
C17   C18   A    
C9    C10   A    
C16   O7    A    
C26   C27   A    
C2    C28   A    
C7    C26   S    
C10   N2    A    
C13   C14   S    
C1    C27   S    
C6    H1    S    
C1    O1    A    
C24   H6    S    
C9    H12   S    
C9    N1    A    
C18   C19   A    
C7    H11   S    
C18   H3    S    
