data_mof_unit_67739.cif
_audit_creation_date              2012-12-10T19:48:35-0500
_audit_creation_method            fapswitch 2.2
_symmetry_space_group_name_H-M    P1
_symmetry_Int_Tables_number       1
_space_group_crystal_system       triclinic
_cell_length_a                    11.067362
_cell_length_b                    10.806396
_cell_length_c                    9.605068
_cell_angle_alpha                 84.57056
_cell_angle_beta                  89.552081
_cell_angle_gamma                 91.243438
_cell_volume                      1143.27035326

loop_
_atom_site_label
_atom_site_type_symbol
_atom_type_description
_atom_site_fract_x
_atom_site_fract_y
_atom_site_fract_z
_atom_type_partial_charge
C1    C     C_R   0.498183 0.259526 0.504787 0.831781
C2    C     C_R   0.501711 0.740531 0.495170 0.838550
C3    C     C_R   0.871386 0.491819 0.504705 -0.083121
C4    C     C_R   0.128587 0.507597 0.494953 -0.084138
C5    C     C_R   0.941049 0.394394 0.571050 -0.057332
C6    C     C_R   0.058940 0.604636 0.427924 -0.057227
C7    C     C_3   0.540293 0.025224 0.622212 0.182418
C8    C     C_3   0.459556 0.975031 0.377496 0.190133
C9    C     C_3   0.614564 0.961673 0.514727 -0.188522
C10   C     C_3   0.385246 0.038577 0.484948 -0.181487
C11   C     C_3   0.503171 0.878300 0.489780 -0.031597
C12   C     C_3   0.496624 0.121871 0.509963 -0.024671
C13   C     C_3   0.429941 0.941193 0.601059 -0.190668
C14   C     C_3   0.569835 0.059084 0.398677 -0.166733
C15   C     C_3   0.609289 0.508612 0.047159 0.045438
C16   C     C_3   0.390479 0.491273 0.952846 0.015581
C17   C     C_3   0.548277 0.599674 0.939867 0.207474
C18   C     C_3   0.451374 0.400389 0.060716 0.198883
C19   C     C_3   0.558630 0.408889 0.959874 0.138224
C20   C     C_3   0.440974 0.590849 0.040591 0.084408
C21   C     C_R   0.263598 0.511826 0.497895 0.813583
C22   C     C_R   0.736365 0.487927 0.502087 0.814412
C23   C     C_R   0.121298 0.934551 0.282186 0.197350
C24   C     C_R   0.878421 0.064337 0.716693 0.194617
C25   C     C_R   0.121457 0.828277 0.380495 0.051856
C26   C     C_R   0.878350 0.170650 0.618374 0.053041
C27   C     C_R   0.113299 0.708633 0.333515 -0.069980
C28   C     C_R   0.886748 0.290278 0.665380 -0.071243
C29   C     C_R   0.118134 0.696125 0.188067 0.056380
C30   C     C_R   0.882135 0.302702 0.810819 0.050008
C31   C     C_R   0.128920 0.802963 0.091372 0.138689
C32   C     C_R   0.871325 0.195930 0.907542 0.136352
C33   C     C_R   0.132885 0.921352 0.139090 0.102679
C34   C     C_R   0.867067 0.077548 0.859828 0.103496
C35   C     C_R   0.930889 0.599106 0.440650 -0.106207
C36   C     C_R   0.069126 0.399899 0.558067 -0.105057
Cu1   Cu    Cu3+1 0.500030 0.499990 0.643150 0.999902
Cu2   Cu    Cu3+1 0.499970 0.500010 0.356850 0.988787
H1    H     H_    0.709962 0.938991 0.517947 0.211586
H2    H     H_    0.289805 0.061173 0.481827 0.210955
H3    H     H_    0.373316 0.893854 0.686949 0.164119
H4    H     H_    0.625862 0.106753 0.312422 0.177663
N1    N     N_3   0.500090 0.499970 0.858290 -0.236737
N2    N     N_3   0.499910 0.500030 0.141710 -0.237735
O1    O     O_R   0.500060 0.316850 0.620870 -0.594639
O2    O     O_R   0.499940 0.683150 0.379130 -0.592726
O3    O     O_R   0.500000 0.316860 0.379090 -0.553591
O4    O     O_R   0.500000 0.683140 0.620910 -0.564822
O5    O     O_R   0.319670 0.500010 0.620890 -0.550859
O6    O     O_R   0.680330 0.499990 0.379110 -0.551660
O7    O     O_R   0.319620 0.500010 0.379110 -0.598856
O8    O     O_R   0.680380 0.499990 0.620890 -0.576729
N3    N     N_3   0.155278 0.029875 0.043161 -0.553113
H5    H     H_    0.093270 0.031498 0.962003 0.276364
H6    H     H_    0.240733 0.022031 0.998126 0.240293
N4    N     N_3   0.844859 0.969048 0.955841 -0.546731
H7    H     H_    0.907208 0.967322 0.036648 0.276330
H8    H     H_    0.759631 0.977046 0.001388 0.240261
N5    N     N_3   0.598679 0.716440 0.873039 -0.497641
H9    H     H_    0.525600 0.770583 0.839574 0.223971
H10   H     H_    0.637991 0.764619 0.950978 0.233101
N6    N     N_3   0.401000 0.284873 0.130507 -0.535418
H11   H     H_    0.371658 0.229298 0.053633 0.230234
H12   H     H_    0.324980 0.306710 0.187743 0.274232
C37   C     C_2   0.738870 0.525726 0.085706 0.878744
O9    O     O_2   0.789969 0.445660 0.159811 -0.618158
O10   O     O_R   0.803954 0.628513 0.023173 -0.781398
H13   H     H_    0.894017 0.620455 0.033613 0.331573
C38   C     C_2   0.261532 0.472594 0.912739 0.880907
O11   O     O_2   0.209276 0.553403 0.841014 -0.615279
O12   O     O_R   0.198483 0.366429 0.969816 -0.808826
H14   H     H_    0.108223 0.373520 0.960638 0.332261
N7    N     N_3   0.617916 0.301068 0.915686 -0.597017
H15   H     H_    0.647917 0.324414 0.813538 0.256880
H16   H     H_    0.551520 0.231615 0.911334 0.249344
N8    N     N_3   0.382354 0.698817 0.085436 -0.608708
H17   H     H_    0.351496 0.674896 0.187124 0.265590
H18   H     H_    0.449513 0.767231 0.091664 0.240911
N9    N     N_3   0.102863 0.056685 0.323630 -0.537702
H19   H     H_    0.178469 0.112328 0.292628 0.250411
H20   H     H_    0.092256 0.054468 0.431787 0.273207
N10   N     N_3   0.897012 0.942213 0.675249 -0.534218
H21   H     H_    0.821539 0.886344 0.706272 0.265257
H22   H     H_    0.907674 0.944470 0.567094 0.271376
N11   N     N_3   0.129645 0.841932 0.527297 -0.584024
H23   H     H_    0.207677 0.797365 0.563820 0.218418
H24   H     H_    0.056738 0.794968 0.579525 0.262046
N12   N     N_3   0.870105 0.157048 0.471569 -0.584848
H25   H     H_    0.792187 0.201840 0.435071 0.218747
H26   H     H_    0.943086 0.203875 0.419352 0.261063
N13   N     N_3   0.108603 0.575720 0.137434 -0.579792
H27   H     H_    0.180654 0.523226 0.177092 0.261824
H28   H     H_    0.029684 0.530330 0.177075 0.244302
N14   N     N_3   0.892081 0.423018 0.861428 -0.577953
H29   H     H_    0.820405 0.475771 0.821233 0.275664
H30   H     H_    0.971325 0.467993 0.822172 0.246815
N15   N     N_3   0.130593 0.794167 0.943473 -0.551850
H31   H     H_    0.213311 0.759204 0.915629 0.286017
H32   H     H_    0.060390 0.734865 0.917096 0.276427
N16   N     N_3   0.870256 0.204812 0.055448 -0.551510
H33   H     H_    0.787712 0.239959 0.083683 0.289880
H34   H     H_    0.940604 0.264164 0.081403 0.272879
C39   C     C_2   0.857679 0.713467 0.415007 0.852521
O13   O     O_2   0.795317 0.742973 0.510824 -0.613571
O14   O     O_R   0.853665 0.785559 0.286893 -0.726890
H35   H     H_    0.894834 0.746072 0.209388 0.317353
C40   C     C_2   0.142316 0.285272 0.581167 0.852281
O15   O     O_2   0.204847 0.257743 0.484507 -0.633240
O16   O     O_R   0.145979 0.210550 0.707576 -0.723164
H36   H     H_    0.104154 0.247847 0.786166 0.318513
N17   N     N_3   0.580693 0.052173 0.759264 -0.593037
H37   H     H_    0.622640 0.973071 0.804641 0.223282
H38   H     H_    0.647073 0.121659 0.742293 0.210589
N18   N     N_3   0.419656 0.948794 0.240050 -0.588811
H39   H     H_    0.379489 0.028824 0.194246 0.233087
H40   H     H_    0.352298 0.880260 0.256217 0.207910

loop_
_geom_bond_atom_site_label_1
_geom_bond_atom_site_label_2
_ccdc_geom_bond_type
C4    C36   A    
C34   N4    S    
C27   C29   A    
N7    H16   S    
N7    H15   S    
N17   H37   S    
C21   O7    A    
C13   H3    S    
N18   H39   S    
N17   H38   S    
N11   H23   S    
C2    O2    A    
C15   C19   S    
Cu1   Cu2   S    
C24   C26   A    
C15   N2    S    
C35   C39   S    
C15   C37   S    
C5    C36   A    
C9    H1    S    
C17   C20   S    
C6    C35   A    
C20   N8    S    
C10   H2    S    
C18   C19   S    
C38   O12   S    
C24   N10   S    
N6    H12   S    
C20   N2    S    
N4    H8    S    
C37   O10   S    
C40   O15   D    
C31   C33   A    
C8    N18   S    
C14   H4    S    
N11   H24   S    
N5    H9    S    
C36   C40   S    
C29   C31   A    
C40   O16   S    
N14   H29   S    
C1    C12   S    
C2    C11   S    
C25   N11   S    
N15   H32   S    
C19   N1    S    
N15   H31   S    
N3    H6    S    
C33   N3    S    
C7    C12   S    
N5    H10   S    
O10   H13   S    
C19   N7    S    
N8    H17   S    
C4    C6    A    
N13   H27   S    
N9    H20   S    
Cu1   O8    S    
C1    O3    A    
Cu2   O7    S    
C23   C33   A    
N3    H5    S    
C24   C34   A    
C32   N16   S    
C32   C34   A    
Cu1   N1    S    
C9    C14   S    
C17   N1    S    
Cu2   N2    S    
N6    H11   S    
C18   N2    S    
N13   H28   S    
C5    C28   S    
Cu1   O5    S    
C6    C27   S    
C3    C35   A    
C16   C20   S    
N16   H34   S    
C39   O14   S    
Cu1   O4    S    
N14   H30   S    
C9    C11   S    
C16   N1    S    
Cu2   O3    S    
C10   C12   S    
C17   N5    S    
C21   O5    A    
C8    C10   S    
N12   H26   S    
N10   H21   S    
N10   H22   S    
N4    H7    S    
Cu1   O1    S    
C29   N13   S    
C22   O8    A    
C15   C17   S    
C8    C14   S    
C18   N6    S    
C16   C38   S    
N8    H18   S    
C3    C5    A    
C10   C13   S    
N18   H40   S    
Cu2   O6    S    
C25   C27   A    
O14   H35   S    
C26   C28   A    
C22   O6    A    
C2    O4    A    
C28   C30   A    
C12   C14   S    
O12   H14   S    
C30   N14   S    
O16   H36   S    
C30   C32   A    
C4    C21   S    
C11   C13   S    
C1    O1    A    
C8    C11   S    
N16   H33   S    
C7    N17   S    
C31   N15   S    
C38   O11   D    
Cu2   O2    S    
N9    H19   S    
C26   N12   S    
C7    C9    S    
C7    C13   S    
C23   C25   A    
N12   H25   S    
C16   C18   S    
C37   O9    D    
C39   O13   D    
C3    C22   S    
C23   N9    S    
