data_mof_unit_14509.cif
_audit_creation_date              2013-03-05T15:54:44-0500
_audit_creation_method            fapswitch 2.2
_symmetry_space_group_name_H-M    P1
_symmetry_Int_Tables_number       1
_space_group_crystal_system       triclinic
_cell_length_a                    12.316495
_cell_length_b                    13.141615
_cell_length_c                    15.014759
_cell_angle_alpha                 77.622358
_cell_angle_beta                  101.094587
_cell_angle_gamma                 116.516783
_cell_volume                      2111.01786938

loop_
_atom_site_label
_atom_site_type_symbol
_atom_site_description
_atom_site_fract_x
_atom_site_fract_y
_atom_site_fract_z
_atom_type_partial_charge
O1    O     O_R   0.972510 0.318130 0.526570 -0.579318
O2    O     O_R   0.806530 0.359650 0.490890 -0.612396
C1    C     C_R   0.855097 0.286557 0.506370 0.769784
O3    O     O_R   0.082980 0.479210 0.647590 -0.573070
O4    O     O_R   0.917000 0.520730 0.611900 -0.607706
C2    C     C_R   0.002308 0.504418 0.670186 0.788389
Cu1   Cu    Cu3+1 0.098270 0.475420 0.521130 0.953598
Cu2   Cu    Cu3+1 0.901730 0.524580 0.478870 0.973109
O5    O     O_R   0.193470 0.640350 0.509110 -0.595027
O6    O     O_R   0.027490 0.681870 0.473430 -0.528950
O7    O     O_R   0.083000 0.479270 0.388100 -0.582519
O8    O     O_R   0.917020 0.520790 0.352410 -0.570979
C3    C     C_R   0.145037 0.714134 0.488302 0.853744
C4    C     C_R   0.002877 0.503565 0.329087 0.861368
C5    C     C_R   0.038352 0.615136 0.173611 0.303318
C6    C     C_R   0.008037 0.510067 0.232381 -0.174638
C7    C     C_R   0.985980 0.410224 0.200472 -0.296281
C8    C     C_R   0.991197 0.411120 0.108153 0.125228
C9    C     C_R   0.010830 0.514602 0.046092 -0.044347
C10   C     C_R   0.031282 0.616667 0.078271 -0.097162
C11   C     C_R   0.976023 0.311022 0.076046 0.138249
C12   C     C_R   0.975504 0.314390 0.982440 -0.208086
C13   C     C_R   0.992022 0.414787 0.920933 0.092070
C14   C     C_R   0.010873 0.515947 0.951868 0.046477
C15   C     C_R   0.030246 0.618069 0.888688 0.045479
C16   C     C_R   0.047558 0.717085 0.921723 -0.276457
C17   C     C_R   0.044631 0.716773 0.014049 0.352009
C18   C     C_R   0.990408 0.414484 0.828420 -0.252256
C19   C     C_R   0.006680 0.513226 0.765472 -0.074688
C20   C     C_R   0.028930 0.617535 0.793875 0.107999
H1    H     H_    0.965798 0.332468 0.249509 0.160343
H2    H     H_    0.963707 0.238225 0.957254 0.159563
H3    H     H_    0.975129 0.336241 0.804586 0.148601
H4    H     H_    0.059099 0.795922 0.876148 0.197670
C21   C     C_R   0.274160 0.031341 0.395245 -0.219663
H5    H     H_    0.452783 0.228042 0.334733 0.152551
H6    H     H_    0.243593 0.095796 0.357683 0.155986
C22   C     C_R   0.227714 0.837331 0.473095 -0.159289
C23   C     C_R   0.818022 0.082502 0.553380 -0.159189
C24   C     C_R   0.740377 0.966318 0.565845 -0.107266
C25   C     C_R   0.616363 0.929429 0.536626 -0.189143
C26   C     C_R   0.567891 0.008675 0.490233 0.098393
C27   C     C_R   0.650366 0.124938 0.466740 0.075714
C28   C     C_R   0.440461 0.976978 0.466804 0.088355
C29   C     C_R   0.399132 0.058591 0.413688 0.101064
C30   C     C_R   0.483040 0.166990 0.379642 -0.190020
C31   C     C_R   0.606936 0.198920 0.404090 -0.191963
C32   C     C_R   0.352683 0.867491 0.496535 -0.303071
C33   C     C_R   0.187783 0.922308 0.426745 0.403060
C34   C     C_R   0.773929 0.163367 0.506255 -0.116754
H7    H     H_    0.379292 0.803197 0.538383 0.169632
H8    H     H_    0.912536 0.109162 0.582366 0.174536
H9    H     H_    0.561685 0.838156 0.549998 0.134736
H10   H     H_    0.775809 0.904633 0.601338 0.164793
H11   H     H_    0.667617 0.281753 0.371798 0.177685
C35   C     C_R   0.345601 0.327816 0.648774 0.240647
H12   H     H_    0.166763 0.309927 0.661870 0.162490
H13   H     H_    0.547966 0.290526 0.672230 0.203617
N1    N     N_R   0.246280 0.438190 0.553160 -0.211587
C36   C     C_R   0.760679 0.647477 0.377314 0.121612
C37   C     C_R   0.665233 0.681634 0.351412 0.089957
C38   C     C_R   0.561578 0.625575 0.398771 -0.234197
C39   C     C_R   0.552449 0.535614 0.472030 -0.010349
C40   C     C_R   0.653284 0.505304 0.495795 0.265574
C41   C     C_R   0.447914 0.475526 0.523042 -0.056622
C42   C     C_R   0.447187 0.387601 0.597501 0.037039
C43   C     C_R   0.546644 0.359335 0.618223 -0.213226
C44   C     C_R   0.647243 0.417713 0.569733 -0.174762
C45   C     C_R   0.342967 0.498310 0.503051 0.001595
C46   C     C_R   0.245378 0.354521 0.623752 0.008118
N2    N     N_R   0.754320 0.561190 0.447410 -0.239531
H14   H     H_    0.335225 0.562860 0.447755 0.144782
H15   H     H_    0.841516 0.691019 0.341968 0.207774
H16   H     H_    0.490073 0.654472 0.377326 0.145813
H17   H     H_    0.718817 0.390959 0.593528 0.208251
N3    N     N_R   0.092170 0.720183 0.212434 0.131348
O9    O     O_R   0.031175 0.742354 0.261357 -0.333034
O10   O     O_R   0.205208 0.791443 0.202561 -0.334985
N4    N     N_R   0.343100 0.241842 0.726762 0.111641
O11   O     O_R   0.429877 0.266633 0.794411 -0.343358
O12   O     O_R   0.243813 0.147792 0.738386 -0.353581
C47   C     C_3   0.675536 0.779452 0.274493 -0.411682
C48   C     C_3   0.671946 0.746352 0.182181 -0.726722
H18   H     H_    0.750170 0.725924 0.181923 0.282768
H19   H     H_    0.585237 0.670513 0.167685 0.246442
H20   H     H_    0.677594 0.819262 0.126933 0.254958
H21   H     H_    0.599843 0.805129 0.270319 0.216083
H22   H     H_    0.762333 0.855613 0.288077 0.255034
C49   C     C_3   0.965404 0.200797 0.139149 -0.390836
C50   C     C_3   0.089329 0.213743 0.191144 -0.742336
H23   H     H_    0.156002 0.235386 0.142003 0.262589
H24   H     H_    0.125356 0.281939 0.235503 0.237674
H25   H     H_    0.079901 0.131653 0.235106 0.284692
H26   H     H_    0.896451 0.174460 0.187351 0.200741
H27   H     H_    0.932387 0.128368 0.099167 0.227520
C51   C     C_3   0.056309 0.727365 0.724336 -0.409452
C52   C     C_3   0.193180 0.804587 0.729177 -0.759534
H28   H     H_    0.230253 0.829843 0.798482 0.272027
H29   H     H_    0.242251 0.758899 0.712467 0.237266
H30   H     H_    0.210080 0.883723 0.678411 0.266440
H31   H     H_    0.025230 0.709951 0.652881 0.236823
H32   H     H_    0.004861 0.774491 0.733990 0.215375
N5    N     N_R   0.043773 0.815916 0.038922 0.167049
O13   O     O_R   0.949339 0.805514 0.073128 -0.333957
O14   O     O_R   0.123041 0.918233 0.009680 -0.297050
N6    N     N_R   0.061312 0.900659 0.412534 0.128355
O15   O     O_R   0.000588 0.870660 0.482906 -0.391176
O16   O     O_R   0.014051 0.932376 0.332460 -0.367381

loop_
_geom_bond_atom_site_label_1
_geom_bond_atom_site_label_2
_geom_bond_distance
_ccdc_geom_bond_type
C39   C41   1.442322 A    
C51   H32   1.109199 S    
C8    C11   1.419657 A    
C25   C26   1.417844 A    
C9    C10   1.423127 A    
C52   H28   1.109686 S    
Cu1   Cu2   2.703559 S    
C22   C33   1.413797 A    
C11   C49   1.517633 S    
C29   C30   1.391128 A    
C44   H17   1.063055 S    
Cu1   O7    1.961678 S    
C16   C17   1.392730 A    
C38   C39   1.411271 A    
C35   N4    1.436755 S    
C12   H2    1.085012 S    
C40   C44   1.403730 A    
C18   C19   1.390039 A    
C21   H6    1.084219 S    
N3    O10   1.301157 A    
C37   C47   1.508870 S    
O4    C2    1.297155 A    
O7    C4    1.297852 A    
C47   H22   1.111031 S    
N6    O15   1.301341 A    
C47   H21   1.111886 S    
C36   H15   1.079266 S    
C8    C9    1.423380 A    
C40   N2    1.385229 A    
C49   H26   1.109743 S    
O5    C3    1.307117 A    
C20   C51   1.530353 S    
C16   H4    1.078822 S    
C32   H7    1.075414 S    
C6    C7    1.387827 A    
C21   C33   1.396637 A    
C13   C14   1.408754 A    
C35   C42   1.417408 A    
H5    C30   1.084255 S    
H12   C46   1.082280 S    
C22   C32   1.398787 A    
C5    N3    1.436696 S    
C51   H31   1.104058 S    
C26   C28   1.423776 A    
O3    Cu1   1.956986 S    
Cu1   N1    2.037641 S    
C52   H29   1.111614 S    
C1    C34   1.475028 S    
C5    C10   1.413662 A    
C5    C6    1.403113 A    
C43   C44   1.383037 A    
C42   C43   1.394781 A    
N3    O9    1.299397 A    
O3    C2    1.297661 A    
C23   C24   1.386865 A    
N4    O12   1.301367 A    
C36   N2    1.356638 A    
C15   C16   1.404619 A    
N4    O11   1.301280 A    
C36   C37   1.398233 A    
O1    C1    1.305668 A    
C49   H27   1.112258 S    
C45   H14   1.076030 S    
C19   C20   1.416414 A    
C50   H24   1.109391 S    
C48   H18   1.110469 S    
Cu2   O8    1.956986 S    
C51   C52   1.527699 S    
C48   H20   1.110395 S    
C7    C8    1.397231 A    
N5    O14   1.301388 A    
C13   C18   1.386195 A    
C14   C15   1.418904 A    
C25   H9    1.077078 S    
C3    C22   1.472800 S    
N1    C45   1.363183 A    
C24   C25   1.390183 A    
C48   H19   1.111003 S    
O8    C4    1.297042 A    
C18   H3    1.086195 S    
C47   C48   1.526435 S    
C24   H10   1.082938 S    
C7    H1    1.081276 S    
C4    C6    1.448172 S    
C26   C27   1.418355 A    
C21   C29   1.400149 A    
C52   H30   1.110759 S    
C28   C29   1.417737 A    
C50   H25   1.106950 S    
C31   H11   1.079522 S    
C15   C20   1.422047 A    
Cu1   O5    1.936414 S    
C30   C31   1.384947 A    
Cu2   N2    2.025681 S    
O1    Cu1   1.948324 S    
C9    C14   1.411173 A    
O2    Cu2   1.936415 S    
O6    C3    1.301423 A    
C2    C19   1.448781 S    
O4    Cu2   1.961680 S    
C27   C34   1.420488 A    
C33   N6    1.433614 S    
C10   C17   1.418298 A    
C35   C46   1.392793 A    
O2    C1    1.303209 A    
C50   H23   1.110980 S    
N6    O16   1.300203 A    
C41   C45   1.417129 A    
C17   N5    1.435113 S    
C23   H8    1.083264 S    
C37   C38   1.401152 A    
N1    C46   1.351502 A    
C39   C40   1.427794 A    
H13   C43   1.081299 S    
C23   C34   1.403568 A    
Cu2   O6    1.948323 S    
C41   C42   1.423336 A    
N5    O13   1.301194 A    
C12   C13   1.394735 A    
C38   H16   1.077294 S    
C49   C50   1.527934 S    
C11   C12   1.395518 A    
C27   C31   1.412410 A    
C28   C32   1.399906 A    
