data_mof_unit_21281.cif
_audit_creation_date              2013-03-05T16:19:19-0500
_audit_creation_method            fapswitch 2.2
_symmetry_space_group_name_H-M    P1
_symmetry_Int_Tables_number       1
_space_group_crystal_system       triclinic
_cell_length_a                    10.632498
_cell_length_b                    9.67679
_cell_length_c                    23.441789
_cell_angle_alpha                 89.960935
_cell_angle_beta                  89.892918
_cell_angle_gamma                 90.022373
_cell_volume                      2411.88438503

loop_
_atom_site_label
_atom_site_type_symbol
_atom_site_description
_atom_site_fract_x
_atom_site_fract_y
_atom_site_fract_z
_atom_type_partial_charge
O1    O     O_R   0.314910 0.616040 0.499990 -0.625128
O2    O     O_R   0.314910 0.383960 0.499990 -0.631942
C1    C     C_R   0.257690 0.500268 0.499538 0.940777
O3    O     O_R   0.500080 0.616070 0.416130 -0.636191
O4    O     O_R   0.500080 0.383930 0.416130 -0.622663
C2    C     C_R   0.500133 0.500138 0.389198 0.943458
Zn1   Zn    Zn3+2 0.500150 0.654960 0.499970 0.935751
Zn2   Zn    Zn3+2 0.500150 0.345040 0.499970 0.952436
O5    O     O_R   0.685320 0.616040 0.499970 -0.642609
O6    O     O_R   0.685320 0.383960 0.499970 -0.640386
O7    O     O_R   0.500150 0.616010 0.583820 -0.629854
O8    O     O_R   0.500150 0.383990 0.583820 -0.593398
C3    C     C_R   0.742579 0.500267 0.499124 0.876524
C4    C     C_R   0.500262 0.499990 0.610929 0.984549
C5    C     C_R   0.623704 0.517354 0.880580 0.616809
N1    N     N_R   0.511628 0.532149 0.852808 -0.344124
C6    C     C_R   0.400087 0.545474 0.881075 0.597638
C7    C     C_R   0.397489 0.542057 0.940430 -0.031620
C8    C     C_R   0.511835 0.528011 0.970369 -0.041724
C9    C     C_R   0.627709 0.520094 0.940585 -0.142890
C10   C     C_R   0.283169 0.550584 0.970247 -0.082676
C11   C     C_R   0.281363 0.543124 0.029412 -0.107316
C12   C     C_R   0.393915 0.527525 0.059771 -0.027139
C13   C     C_R   0.509578 0.520472 0.030276 -0.006135
C14   C     C_R   0.622627 0.505099 0.060665 -0.075776
C15   C     C_R   0.737329 0.500228 0.031337 -0.181264
C16   C     C_R   0.741640 0.510198 0.971911 0.330935
C17   C     C_R   0.394148 0.519567 0.119230 0.570950
N2    N     N_R   0.505199 0.505879 0.147801 -0.354037
C18   C     C_R   0.618113 0.497757 0.120172 0.584081
O9    O     O_2   0.729243 0.496185 0.849827 -0.450135
O10   O     O_2   0.292094 0.560633 0.851502 -0.470380
H1    H     H_    0.194632 0.561968 0.947953 0.239596
H2    H     H_    0.191605 0.549292 0.051205 0.212524
O11   O     O_2   0.284813 0.526284 0.148467 -0.495557
O12   O     O_2   0.725341 0.483826 0.150380 -0.510621
H3    H     H_    0.824999 0.492248 0.054617 0.222482
C19   C     C_R   0.498744 0.378710 0.237272 -0.116026
H4    H     H_    0.496128 0.282539 0.213701 0.174585
C20   C     C_R   0.497416 0.376616 0.296487 -0.144303
H5    H     H_    0.493752 0.277919 0.318234 0.168316
C21   C     C_R   0.500814 0.501218 0.327020 -0.078097
C22   C     C_R   0.505481 0.627665 0.297711 -0.226223
H6    H     H_    0.508455 0.724826 0.320568 0.173704
C23   C     C_R   0.506978 0.629865 0.238524 0.335280
C24   C     C_R   0.503571 0.504932 0.208402 0.232566
C25   C     C_R   0.474024 0.401791 0.766606 -0.136262
H7    H     H_    0.447731 0.314760 0.793186 0.199699
C26   C     C_R   0.470651 0.388941 0.707675 0.317685
C27   C     C_R   0.504681 0.503196 0.673428 -0.167376
C28   C     C_R   0.542680 0.627212 0.699586 -0.300910
H8    H     H_    0.569525 0.715203 0.673708 0.204697
C29   C     C_R   0.544840 0.640730 0.758817 0.381343
C30   C     C_R   0.509836 0.525926 0.792164 0.117854
C31   C     C_3   0.071288 0.438626 0.556302 0.120667
C32   C     C_3   0.072095 0.407737 0.449261 0.131431
H9    H     H_    0.103082 0.328916 0.558838 0.110410
H10   H     H_    0.097758 0.298620 0.459317 0.099152
C33   C     C_3   0.926318 0.437623 0.555453 -0.440213
C34   C     C_3   0.927309 0.414866 0.447356 -0.453850
H11   H     H_    0.892405 0.329170 0.559717 0.161700
H12   H     H_    0.888742 0.307906 0.448959 0.160452
H13   H     H_    0.886700 0.495940 0.592248 0.218299
H14   H     H_    0.893669 0.461844 0.406817 0.216785
H15   H     H_    0.107311 0.721434 0.525137 0.215011
H16   H     H_    0.104461 0.697311 0.450728 0.216195
H17   H     H_    0.896257 0.715021 0.529798 0.200789
H18   H     H_    0.892167 0.700198 0.453293 0.188424
C35   C     C_3   0.071213 0.651375 0.491432 -0.348542
C36   C     C_3   0.121420 0.501136 0.499017 -0.097559
C37   C     C_3   0.878697 0.500891 0.498701 0.054634
C38   C     C_3   0.928559 0.651311 0.493012 -0.373642
C39   C     C_3   0.527444 0.081533 0.441210 -0.232021
C40   C     C_3   0.527598 0.918748 0.441231 -0.231903
H19   H     H_    0.620102 0.120565 0.426029 0.150367
H20   H     H_    0.620405 0.880038 0.426158 0.152890
H21   H     H_    0.456197 0.119163 0.410187 0.173593
H22   H     H_    0.456529 0.880999 0.410166 0.166500
H23   H     H_    0.690943 0.118955 0.525596 0.147313
H24   H     H_    0.690521 0.880245 0.526255 0.149196
C41   C     C_3   0.596019 0.081230 0.538138 -0.221017
C42   C     C_3   0.595611 0.918625 0.538353 -0.223709
C43   C     C_3   0.376070 0.081178 0.516632 -0.224497
C44   C     C_3   0.376129 0.918577 0.516740 -0.228082
N3    N     N_3   0.499750 0.138610 0.498760 -0.051573
N4    N     N_3   0.499750 0.861390 0.498760 -0.051915
H25   H     H_    0.351111 0.120168 0.559741 0.200206
H26   H     H_    0.351660 0.879684 0.560040 0.185089
H27   H     H_    0.301243 0.118662 0.487359 0.156186
H28   H     H_    0.301206 0.880936 0.487580 0.151809
H29   H     H_    0.579255 0.119919 0.582068 0.200564
H30   H     H_    0.577552 0.880600 0.582385 0.175163
Br1   Br    Br    0.413494 0.214270 0.678681 -0.426515
N5    N     N_R   0.581560 0.770557 0.784041 0.240783
O13   O     O_R   0.542640 0.805693 0.834641 -0.339771
O14   O     O_R   0.647038 0.859463 0.754706 -0.330079
N6    N     N_R   0.119645 0.510821 0.606924 0.226880
O15   O     O_R   0.194709 0.446305 0.641625 -0.346363
O16   O     O_R   0.079526 0.633341 0.620818 -0.370667
N7    N     N_R   0.128456 0.441959 0.393667 0.220019
O17   O     O_R   0.203655 0.353982 0.369176 -0.388734
O18   O     O_R   0.098281 0.554452 0.366501 -0.377898
N8    N     N_R   0.862741 0.516211 0.944948 0.245833
O19   O     O_R   0.895173 0.626641 0.916819 -0.278317
O20   O     O_R   0.949085 0.427234 0.958939 -0.362593
Br2   Br    Br    0.514496 0.804338 0.199879 -0.438360

loop_
_geom_bond_atom_site_label_1
_geom_bond_atom_site_label_2
_geom_bond_distance
_ccdc_geom_bond_type
C43   H25   1.110675 S    
C31   C33   1.541578 S    
C7    C10   1.403486 A    
C39   C40   1.575237 S    
C8    C9    1.417089 A    
N6    O15   1.300234 A    
C25   C26   1.387632 A    
C4    C27   1.466274 S    
C23   C24   1.400960 A    
Zn1   O7    2.001150 S    
C15   C16   1.396972 A    
C40   H20   1.112685 S    
C17   N2    1.365002 A    
C44   N4    1.486726 S    
H17   C38   1.114185 S    
C19   H4    1.082992 S    
O7    C4    1.289706 A    
H16   C35   1.109538 S    
C10   H1    1.083178 S    
C5    N1    1.366465 A    
C42   H30   1.111932 S    
C34   H12   1.113736 S    
Zn2   N3    1.997804 S    
O5    C3    1.275403 A    
C25   H7    1.083567 S    
C17   O11   1.350003 S    
N1    C6    1.363642 A    
C12   C13   1.411399 A    
Zn2   O8    2.001655 S    
C20   C21   1.403092 A    
C10   C11   1.388872 A    
C39   H19   1.112701 S    
N5    O13   1.301031 A    
C44   H28   1.112056 S    
O3    Zn1   2.001319 S    
C43   H27   1.112354 S    
N6    O16   1.301578 A    
C27   C28   1.407477 A    
C5    C9    1.407637 A    
C11   H2    1.083328 S    
C33   H11   1.113927 S    
C28   H8    1.083025 S    
C1    C36   1.448990 S    
C13   C14   1.406273 A    
H24   C42   1.111784 S    
H23   C41   1.112126 S    
C7    C8    1.411505 A    
C3    C37   1.447305 S    
C34   C37   1.551831 S    
C14   C15   1.399720 A    
C42   N4    1.486881 S    
C5    O9    1.348422 S    
C41   C42   1.573502 S    
C32   C34   1.541743 S    
C28   C29   1.394944 A    
C41   H29   1.110109 S    
C35   C38   1.517154 S    
C22   H6    1.082951 S    
N2    C18   1.365376 A    
C43   C44   1.573457 S    
H18   C38   1.114155 S    
C31   N6    1.470971 S    
N7    O18   1.301365 A    
C6    C7    1.391978 A    
N8    O20   1.301194 A    
C12   C17   1.395903 A    
C40   N4    1.487193 S    
N5    O14   1.301785 A    
C22   C23   1.387676 A    
C39   N3    1.487088 S    
C25   C30   1.395837 A    
O3    C2    1.287675 A    
C20   H5    1.082960 S    
C43   N3    1.486851 S    
O8    C4    1.290290 A    
C32   C36   1.567062 S    
C31   H9    1.115863 S    
C40   H22   1.112177 S    
C21   C22   1.403700 A    
C32   N7    1.470881 S    
C23   Br2   1.917050 S    
C14   C18   1.397442 A    
Zn1   O5    2.004664 S    
C29   N5    1.442861 S    
O1    Zn1   2.005103 S    
O2    Zn2   2.005392 S    
C44   H26   1.112675 S    
O6    C3    1.279504 A    
O4    Zn2   2.000815 S    
C15   H3    1.083780 S    
C29   C30   1.407530 A    
C9    C16   1.420970 A    
C33   H13   1.113265 S    
C18   O12   1.349979 S    
N2    C24   1.420678 S    
C34   H14   1.112867 S    
C26   Br1   1.921087 S    
O2    C1    1.279655 A    
C37   C38   1.554484 S    
C19   C20   1.388287 A    
O4    C2    1.289249 A    
H15   C35   1.110332 S    
C16   N8    1.434457 S    
N7    O17   1.301215 A    
C32   H10   1.115826 S    
C8    C13   1.406326 A    
C35   C36   1.559100 S    
N1    C30   1.423096 S    
C19   C24   1.396858 A    
C31   C36   1.565014 S    
Zn1   N4    1.997769 S    
Zn2   O6    2.004375 S    
C26   C27   1.412520 A    
C2    C21   1.457598 S    
N8    O19   1.301364 A    
C6    O10   1.350386 S    
C39   H21   1.112303 S    
C11   C12   1.401624 A    
O1    C1    1.274695 A    
C41   N3    1.487074 S    
C33   C37   1.550078 S    
