data_mof_unit_15284.cif
_audit_creation_date              2012-10-26T18:33:58-0400
_audit_creation_method            fapswitch 2.2
_symmetry_space_group_name_H-M    P1
_symmetry_Int_Tables_number       1
_space_group_crystal_system       triclinic
_cell_length_a                    11.04651
_cell_length_b                    10.777013
_cell_length_c                    9.649829
_cell_angle_alpha                 89.835801
_cell_angle_beta                  102.550537
_cell_angle_gamma                 92.935577
_cell_volume                      1119.83399624

loop_
_atom_site_label
_atom_site_type_symbol
_atom_type_description
_atom_site_fract_x
_atom_site_fract_y
_atom_site_fract_z
_atom_type_partial_charge
C1    C     C_R   0.501656 0.262831 0.500791 0.537861
C2    C     C_2   0.871951 0.502044 0.590152 -0.124896
C3    C     C_2   0.067408 0.503057 0.515154 -0.136443
C4    C     C_2   0.932592 0.496942 0.484846 -0.136443
C5    C     C_R   0.415446 0.062724 0.398636 -0.099182
C6    C     C_R   0.584554 0.937276 0.601364 -0.099183
C7    C     C_R   0.411474 0.933527 0.394851 -0.015261
C8    C     C_R   0.588526 0.066473 0.605149 -0.015261
C9    C     C_R   0.497261 0.871161 0.497715 0.025460
C10   C     C_R   0.502739 0.128839 0.502285 0.025460
C11   C     C_2   0.352041 0.316057 0.110229 0.312374
C12   C     C_R   0.498344 0.737169 0.499209 0.537860
C13   C     C_2   0.647958 0.683944 0.889771 0.312369
C14   C     C_2   0.316436 0.350816 0.808394 0.303423
C15   C     C_2   0.683564 0.649183 0.191606 0.303428
C16   C     C_3   0.313535 0.864719 0.284400 -0.346449
C17   C     C_3   0.686465 0.135281 0.715600 -0.346449
C18   C     C_R   0.263149 0.499771 0.442160 0.541663
C19   C     C_R   0.736851 0.500229 0.557840 0.541663
C20   C     C_R   0.422722 0.418482 0.055189 0.135704
C21   C     C_R   0.577278 0.581518 0.944810 0.135704
C22   C     C_R   0.418383 0.422735 0.905784 0.126977
C23   C     C_R   0.581617 0.577265 0.094216 0.126978
C24   C     C_2   0.128049 0.497955 0.409848 -0.124896
Cu1   Cu    Cu3+1 0.500000 0.500020 0.640660 0.932107
Cu2   Cu    Cu3+1 0.500000 0.499980 0.359340 0.932109
H1    H     H_    0.882689 0.488121 0.374834 0.197163
H2    H     H_    0.668427 0.700158 0.281240 0.157155
H3    H     H_    0.259386 0.796670 0.336628 0.142741
H4    H     H_    0.247488 0.928858 0.221636 0.148701
H5    H     H_    0.357806 0.815369 0.209221 0.175030
H6    H     H_    0.740614 0.203330 0.663373 0.142741
H7    H     H_    0.642193 0.184631 0.790779 0.175030
H8    H     H_    0.752512 0.071142 0.778364 0.148702
H9    H     H_    0.117311 0.511878 0.625166 0.197162
H10   H     H_    0.922159 0.508970 0.700259 0.128726
H11   H     H_    0.077841 0.491030 0.299741 0.128726
H12   H     H_    0.348777 0.112364 0.322337 0.148509
H13   H     H_    0.651223 0.887636 0.677663 0.148507
H14   H     H_    0.297680 0.331760 0.187776 0.138434
H15   H     H_    0.702315 0.668242 0.812218 0.138437
H16   H     H_    0.331573 0.299842 0.718759 0.157156
N1    N     N_R   0.500030 0.500030 0.852080 -0.310729
N2    N     N_R   0.499970 0.499970 0.147920 -0.310729
O1    O     O_R   0.499990 0.319660 0.618740 -0.535247
O2    O     O_2   0.645618 0.790226 0.932393 -0.519347
O3    O     O_2   0.210845 0.348327 0.828272 -0.535401
O4    O     O_2   0.789156 0.651671 0.171729 -0.535398
O5    O     O_R   0.500010 0.680340 0.381260 -0.535247
O6    O     O_R   0.499990 0.319630 0.381170 -0.498197
O7    O     O_R   0.500010 0.680370 0.618830 -0.498201
O8    O     O_R   0.320690 0.500020 0.575130 -0.503491
O9    O     O_R   0.679310 0.499980 0.424870 -0.503491
O10   O     O_R   0.320680 0.499990 0.337560 -0.527385
O11   O     O_R   0.679320 0.500010 0.662440 -0.527385
O12   O     O_2   0.354387 0.209774 0.067612 -0.519347

loop_
_geom_bond_atom_site_label_1
_geom_bond_atom_site_label_2
_ccdc_geom_bond_type
C2    C4    D    
Cu1   O7    S    
C14   O3    D    
C19   O11   A    
C1    O6    A    
C19   O9    A    
C8    C17   S    
C3    H9    S    
C14   H16   S    
Cu1   N1    S    
C6    C9    A    
C13   H15   S    
C24   H11   S    
Cu1   Cu2   S    
Cu1   O8    S    
C18   O8    A    
C5    C10   A    
C5    H12   S    
C13   C21   S    
C16   H5    S    
C1    O1    A    
C3    C24   D    
C13   O2    D    
C17   H7    S    
C15   O4    D    
C18   C24   S    
Cu2   O10   S    
C15   C23   S    
C7    C16   S    
C20   N2    A    
C20   C22   A    
C12   O5    A    
C5    C7    A    
Cu2   O6    S    
C21   C23   A    
C11   H14   S    
C9    C12   S    
C11   C20   S    
C17   H8    S    
C18   O10   A    
Cu2   N2    S    
C3    C4    S    
C15   H2    S    
Cu2   O9    S    
Cu1   O1    S    
C12   O7    A    
C16   H3    S    
C14   C22   S    
C1    C10   S    
Cu2   O5    S    
C2    H10   S    
C7    C9    A    
C17   H6    S    
C6    H13   S    
C6    C8    A    
C4    H1    S    
C2    C19   S    
C21   N1    A    
C16   H4    S    
C8    C10   A    
C11   O12   D    
Cu1   O11   S    
C23   N2    A    
C22   N1    A    
