data_mof_unit_15373.cif
_audit_creation_date              2012-12-10T19:45:01-0500
_audit_creation_method            fapswitch 2.2
_symmetry_space_group_name_H-M    P1
_symmetry_Int_Tables_number       1
_space_group_crystal_system       triclinic
_cell_length_a                    15.008886
_cell_length_b                    10.945625
_cell_length_c                    13.933421
_cell_angle_alpha                 89.972458
_cell_angle_beta                  89.822995
_cell_angle_gamma                 88.709788
_cell_volume                      2288.41377821

loop_
_atom_site_label
_atom_site_type_symbol
_atom_type_description
_atom_site_fract_x
_atom_site_fract_y
_atom_site_fract_z
_atom_type_partial_charge
C1    C     C_R   0.497647 0.262529 0.499649 0.882392
C2    C     C_R   0.530996 0.883050 0.685127 -0.002050
C3    C     C_R   0.529137 0.123558 0.243756 0.378737
C4    C     C_R   0.470378 0.899454 0.762283 0.310410
C5    C     C_R   0.500791 0.158449 0.151429 0.414610
C6    C     C_R   0.492958 0.851431 0.853585 0.373611
C7    C     C_R   0.411134 0.187090 0.134265 0.454602
C8    C     C_R   0.576079 0.795236 0.868753 0.443904
C9    C     C_R   0.494773 0.934340 0.414814 0.574953
C10   C     C_R   0.505475 0.065290 0.586089 0.549205
C11   C     C_R   0.505576 0.871325 0.502098 -0.322483
C12   C     C_R   0.503606 0.737285 0.500546 0.859318
C13   C     C_R   0.496651 0.128271 0.498751 -0.303011
C14   C     C_R   0.512219 0.938441 0.589139 -0.024188
C15   C     C_R   0.489810 0.061192 0.412326 -0.048877
C16   C     C_R   0.329458 0.506147 0.500315 0.903972
C17   C     C_R   0.670668 0.496843 0.499639 0.903761
C18   C     C_R   0.576590 0.470220 0.794830 0.614594
C19   C     C_R   0.421554 0.527272 0.207298 0.587902
C20   C     C_R   0.422724 0.524475 0.795386 0.529734
C21   C     C_R   0.578231 0.489735 0.204078 0.514992
C22   C     C_R   0.419985 0.512392 0.897544 -0.182662
C23   C     C_R   0.054393 0.285356 0.470216 0.397516
C24   C     C_R   0.578320 0.480394 0.102407 -0.171182
C25   C     C_R   0.498854 0.491780 0.949116 -0.076372
C26   C     C_R   0.497772 0.491040 0.052032 -0.050154
C27   C     C_R   0.579140 0.476231 0.897556 -0.180874
C28   C     C_R   0.416983 0.507499 0.104038 -0.170975
C29   C     C_R   0.339101 0.518492 0.948758 0.568804
C30   C     C_R   0.658923 0.466177 0.050367 0.542647
C31   C     C_R   0.336170 0.504840 0.049594 0.464355
C32   C     C_R   0.660305 0.464310 0.949228 0.488915
C33   C     C_R   0.809343 0.605299 0.516730 0.552441
C34   C     C_R   0.945385 0.722728 0.525436 0.401195
C35   C     C_R   0.190620 0.400817 0.483042 0.534501
C36   C     C_R   0.767129 0.496042 0.498559 -0.254480
C37   C     C_R   0.233062 0.510104 0.500183 -0.283113
C38   C     C_R   0.815913 0.389241 0.475145 0.404401
C39   C     C_R   0.184387 0.620596 0.513467 0.371806
C40   C     C_R   0.909957 0.390983 0.475347 -0.110159
C41   C     C_R   0.090313 0.619070 0.508397 -0.089995
C42   C     C_R   0.953113 0.502482 0.495259 -0.162259
C43   C     C_R   0.047056 0.506222 0.495330 -0.161359
C44   C     C_R   0.902370 0.610731 0.513476 -0.125535
C45   C     C_R   0.347953 0.179294 0.208106 0.385375
C46   C     C_R   0.097651 0.396832 0.482880 -0.127404
C47   C     C_R   0.962071 0.284107 0.457194 0.403372
C48   C     C_R   0.038231 0.727865 0.514676 0.418386
C49   C     C_3   0.663010 0.306478 0.751012 -0.247980
C50   C     C_3   0.279344 0.589570 0.262427 -0.134202
C51   C     C_3   0.326252 0.674910 0.746005 -0.065134
C52   C     C_3   0.679875 0.627772 0.249746 -0.047217
C53   C     C_3   0.199274 0.404411 0.050009 -0.132975
C54   C     C_3   0.799299 0.370876 0.924657 -0.197321
C55   C     C_3   0.744849 0.216357 0.521080 -0.241317
C56   C     C_R   0.638208 0.785597 0.793554 0.344012
C57   C     C_3   0.270546 0.786066 0.475983 -0.221889
C58   C     C_3   0.930301 0.158458 0.333572 -0.244565
C59   C     C_3   0.060082 0.885068 0.411792 -0.282934
C60   C     C_3   0.106712 0.129878 0.562715 -0.159656
C61   C     C_3   0.900985 0.865944 0.634203 -0.194457
C62   C     C_3   0.201889 0.119986 0.225872 -0.304308
C63   C     C_3   0.775680 0.805445 0.858510 -0.194843
C64   C     C_3   0.671106 0.186739 0.260819 -0.159082
C65   C     C_3   0.365575 0.046170 0.810314 -0.010184
C66   C     C_R   0.376641 0.147387 0.301123 -0.379828
C67   C     C_R   0.614815 0.828018 0.702114 -0.355951
C68   C     C_R   0.466155 0.116869 0.318664 0.000890
Cu1   Cu    Cu3+1 0.500010 0.499980 0.597420 1.039846
Cu2   Cu    Cu3+1 0.499990 0.500020 0.402580 1.018647
F1    F     F_    0.758140 0.707198 0.532535 -0.662345
F2    F     F_    0.433942 0.855948 0.927525 -0.621989
F3    F     F_    0.241506 0.298266 0.467446 -0.665974
F4    F     F_    0.485099 0.873044 0.330584 -0.616761
F5    F     F_    0.507652 0.126791 0.670464 -0.691500
F6    F     F_    0.261090 0.536313 0.901264 -0.668243
F7    F     F_    0.737871 0.457324 0.097463 -0.674576
F8    F     F_    0.384910 0.216919 0.044045 -0.654691
F9    F     F_    0.595923 0.749298 0.956774 -0.627321
F10   F     F_    0.559435 0.159154 0.077107 -0.631040
H1    H     H_    0.329246 0.141507 0.359472 0.241752
H2    H     H_    0.254786 0.690334 0.729158 0.222331
H3    H     H_    0.365759 0.718264 0.688658 0.175291
H4    H     H_    0.689080 0.663996 0.175851 0.178015
H5    H     H_    0.743643 0.638632 0.288573 0.158749
H6    H     H_    0.628116 0.683742 0.287853 0.193580
H7    H     H_    0.157207 0.361725 0.105658 0.182905
H8    H     H_    0.236895 0.330106 0.012023 0.217191
H9    H     H_    0.152126 0.452066 0.000732 0.199392
H10   H     H_    0.837830 0.343614 0.859775 0.151345
H11   H     H_    0.764395 0.288267 0.950742 0.133934
H12   H     H_    0.662885 0.820771 0.644477 0.264412
H13   H     H_    0.848391 0.400932 0.978628 0.214167
H14   H     H_    0.728489 0.124049 0.494460 0.209327
H15   H     H_    0.797965 0.204584 0.576244 0.157079
H16   H     H_    0.683452 0.256220 0.553057 0.126133
H17   H     H_    0.227909 0.803693 0.412519 0.162204
H18   H     H_    0.331791 0.736614 0.453325 0.155710
H19   H     H_    0.290630 0.876011 0.504356 0.190671
H20   H     H_    0.898621 0.236196 0.293739 0.173011
H21   H     H_    0.894725 0.074514 0.313629 0.176996
H22   H     H_    0.000984 0.145718 0.310806 0.142518
H23   H     H_    0.732364 0.280766 0.730707 0.145418
H24   H     H_    0.071589 0.814024 0.355447 0.110120
H25   H     H_    0.106513 0.959662 0.395954 0.204542
H26   H     H_    0.991219 0.923220 0.406402 0.232821
H27   H     H_    0.040147 0.099757 0.587398 0.161145
H28   H     H_    0.133935 0.197659 0.613882 0.148942
H29   H     H_    0.152792 0.049264 0.563483 0.221055
H30   H     H_    0.969570 0.892886 0.653792 0.150451
H31   H     H_    0.877968 0.792200 0.682713 0.175663
H32   H     H_    0.856147 0.946743 0.645156 0.165545
H33   H     H_    0.187005 0.140809 0.302199 0.223391
H34   H     H_    0.618466 0.264258 0.699109 0.228800
H35   H     H_    0.228577 0.024676 0.217805 0.172834
H36   H     H_    0.137850 0.125815 0.186444 0.162671
H37   H     H_    0.752135 0.817913 0.933609 0.212032
H38   H     H_    0.781761 0.895751 0.822479 0.100736
H39   H     H_    0.843299 0.762684 0.861818 0.172227
H40   H     H_    0.647034 0.256028 0.313830 0.200521
H41   H     H_    0.677059 0.228791 0.188577 0.208277
H42   H     H_    0.738782 0.155954 0.282739 0.200579
H43   H     H_    0.424916 0.093884 0.838558 0.210060
H44   H     H_    0.325695 0.008776 0.870275 0.196952
H45   H     H_    0.650175 0.267553 0.823447 0.149107
H46   H     H_    0.323173 0.116098 0.773699 0.158199
H47   H     H_    0.256560 0.627105 0.331268 0.112492
H48   H     H_    0.268209 0.489271 0.265713 0.196121
H49   H     H_    0.236504 0.639119 0.209944 0.197943
H50   H     H_    0.337556 0.719764 0.816354 0.173829
N1    N     N_R   0.499960 0.499900 0.743810 -0.292041
N2    N     N_R   0.500040 0.500100 0.256190 -0.286794
O1    O     O_R   0.500000 0.319630 0.582270 -0.534763
O2    O     O_3   0.369010 0.620295 0.248077 -0.528690
O3    O     O_3   0.343890 0.547939 0.747856 -0.519244
O4    O     O_3   0.658907 0.502247 0.249251 -0.537642
O5    O     O_3   0.254878 0.489500 0.095338 -0.627678
O6    O     O_3   0.741043 0.469366 0.900059 -0.501675
O7    O     O_3   0.771794 0.287716 0.442477 -0.569643
O8    O     O_3   0.225972 0.722966 0.549489 -0.568754
O9    O     O_3   0.923241 0.174776 0.433785 -0.532922
O10   O     O_3   0.077225 0.840482 0.505451 -0.552952
O11   O     O_3   0.102120 0.175977 0.468186 -0.563161
O12   O     O_R   0.500000 0.680370 0.417730 -0.510950
O13   O     O_3   0.896314 0.830336 0.537196 -0.513922
O14   O     O_3   0.259636 0.207421 0.187070 -0.548068
O15   O     O_3   0.719905 0.727415 0.806645 -0.490741
O16   O     O_3   0.616055 0.084215 0.259185 -0.541520
O17   O     O_3   0.387242 0.952834 0.743562 -0.595891
O18   O     O_R   0.499990 0.319660 0.417730 -0.611253
O19   O     O_R   0.500010 0.680340 0.582270 -0.609022
O20   O     O_R   0.370260 0.499960 0.582280 -0.515518
O21   O     O_R   0.629740 0.500040 0.417720 -0.552577
O22   O     O_R   0.370250 0.499990 0.417740 -0.583933
O23   O     O_R   0.629750 0.500010 0.582260 -0.527431
O24   O     O_3   0.653117 0.434862 0.746610 -0.500793

loop_
_geom_bond_atom_site_label_1
_geom_bond_atom_site_label_2
_ccdc_geom_bond_type
C9    F4    S    
C40   C47   A    
C66   C68   A    
C22   C29   A    
Cu2   O21   S    
C49   O24   S    
C3    C68   A    
Cu2   O18   S    
C17   O21   A    
C8    C56   A    
C39   C41   A    
C29   F6    S    
C19   O2    S    
C62   H36   S    
C4    O17   S    
C59   H25   S    
C53   O5    S    
C59   H24   S    
C7    C45   A    
C52   H5    S    
C35   C37   A    
C24   C26   A    
C54   H10   S    
C60   O11   S    
C63   H37   S    
C34   O13   S    
C57   H18   S    
C64   H41   S    
C57   H19   S    
C33   C36   A    
C55   O7    S    
C65   H44   S    
C52   H4    S    
C61   O13   S    
C54   H13   S    
C60   H29   S    
C30   F7    S    
C51   O3    S    
C59   O10   S    
C33   C44   A    
C22   C25   A    
C8    F9    S    
C38   O7    S    
C58   H22   S    
C17   C36   S    
C31   O5    S    
C21   O4    S    
C60   H28   S    
C16   C37   S    
C40   C42   A    
C49   H34   S    
C3    O16   S    
C23   C46   A    
C64   O16   S    
C41   C43   A    
C12   O19   A    
C23   O11   S    
C18   N1    A    
C42   C44   A    
C55   H14   S    
C1    O1    A    
C61   H30   S    
C63   O15   S    
C51   H50   S    
C59   H26   S    
C23   C47   A    
C45   O14   S    
Cu1   O19   S    
C58   H20   S    
C62   H33   S    
C55   H15   S    
C2    C67   A    
C50   O2    S    
C5    C7    A    
C63   H38   S    
C6    C8    A    
C25   C26   A    
C6    F2    S    
C16   O22   A    
C12   O12   A    
C57   O8    S    
C1    C13   S    
C2    C4    A    
C21   N2    A    
C32   O6    S    
C50   H49   S    
C63   H39   S    
C10   F5    S    
Cu1   N1    S    
C57   H17   S    
Cu2   N2    S    
C48   O10   S    
C1    O18   A    
C53   H7    S    
C58   H21   S    
Cu1   O23   S    
C5    F10   S    
C19   C28   A    
C9    C11   A    
C51   H2    S    
C60   H27   S    
C7    F8    S    
C4    C6    A    
C20   C22   A    
C13   C15   A    
C53   H9    S    
C52   O4    S    
C50   H48   S    
C42   C43   A    
C20   N1    A    
C17   O23   A    
C51   H3    S    
C18   O24   S    
C19   N2    A    
C34   C44   A    
C39   O8    S    
C35   F3    S    
Cu1   O1    S    
C27   C32   A    
Cu2   O22   S    
Cu1   O20   S    
Cu2   O12   S    
C28   C31   A    
C18   C27   A    
C55   H16   S    
C3    C5    A    
C10   C13   A    
C49   H23   S    
C11   C12   S    
C16   O20   A    
C25   C27   A    
C56   C67   A    
C49   H45   S    
C47   O9    S    
C26   C28   A    
C64   H40   S    
C65   H46   S    
C56   O15   S    
C52   H6    S    
C9    C15   A    
C62   H35   S    
C37   C39   A    
C66   H1    S    
C30   C32   A    
C61   H32   S    
C58   O9    S    
C54   O6    S    
C38   C40   A    
C64   H42   S    
C15   C68   S    
C36   C38   A    
C67   H12   S    
C11   C14   A    
C41   C48   A    
C53   H8    S    
C65   H43   S    
C20   O3    S    
C65   O17   S    
Cu1   Cu2   S    
C2    C14   S    
C43   C46   A    
C24   C30   A    
C33   F1    S    
C54   H11   S    
C34   C48   A    
C29   C31   A    
C62   O14   S    
C21   C24   A    
C45   C66   A    
C50   H47   S    
C35   C46   A    
C10   C14   A    
C61   H31   S    
