data_mof_unit_56616.cif
_audit_creation_date              2012-12-11T16:26:28-0500
_audit_creation_method            fapswitch 2.2
_symmetry_space_group_name_H-M    P1
_symmetry_Int_Tables_number       1
_space_group_crystal_system       triclinic
_cell_length_a                    6.932414
_cell_length_b                    17.593393
_cell_length_c                    19.463697
_cell_angle_alpha                 108.581051
_cell_angle_beta                  89.938108
_cell_angle_gamma                 90.260995
_cell_volume                      2250.11870824

loop_
_atom_site_label
_atom_site_type_symbol
_atom_type_description
_atom_site_fract_x
_atom_site_fract_y
_atom_site_fract_z
_atom_type_partial_charge
O1    O     O_R   0.494330 0.415720 0.413720 -0.535992
O2    O     O_R   0.819330 0.430070 0.560210 -0.545232
O3    O     O_R   0.994320 0.584280 0.586280 -0.537207
C1    C     C_R   0.650944 0.415607 0.582216 0.704758
O4    O     O_R   0.823730 0.406300 0.412670 -0.538506
O5    O     O_R   0.998760 0.560340 0.437690 -0.542223
C2    C     C_R   0.654819 0.383419 0.385025 0.696657
O6    O     O_R   0.489890 0.439660 0.562310 -0.543126
O7    O     O_3   0.662340 0.550560 0.508380 -0.369522
V1    V     V_3+5 0.935370 0.490620 0.498450 1.409726
O8    O     O_R   0.328750 0.569930 0.439790 -0.545223
C3    C     C_R   0.160163 0.585039 0.418135 0.703494
O9    O     O_R   0.324340 0.593700 0.587330 -0.539161
C4    C     C_R   0.155636 0.616405 0.615048 0.693099
V2    V     V_3+5 0.435940 0.509380 0.501550 1.408311
O10   O     O_3   0.159100 0.449440 0.491620 -0.367822
H1    H     H_    0.769029 0.832699 0.577891 0.114018
C5    C     C_R   0.340090 0.610303 0.746979 -0.145466
C6    C     C_R   0.429474 0.605227 0.809376 -0.126513
C7    C     C_R   0.416504 0.668404 0.873738 -0.120118
C8    C     C_R   0.313969 0.737103 0.876189 -0.134816
C9    C     C_R   0.224675 0.744919 0.813310 0.066256
C10   C     C_R   0.238125 0.680055 0.747214 0.072553
C11   C     C_R   0.116996 0.814421 0.816208 -0.194242
C12   C     C_R   0.017941 0.817728 0.753184 0.066872
C13   C     C_R   0.036988 0.754013 0.686582 0.066473
C14   C     C_R   0.145774 0.684902 0.683651 -0.187855
C15   C     C_R   0.901908 0.884306 0.754357 -0.104417
C16   C     C_R   0.811930 0.888961 0.691924 -0.117320
C17   C     C_R   0.836546 0.828230 0.626582 -0.125197
C18   C     C_R   0.948432 0.761748 0.623521 -0.129335
H2    H     H_    0.350268 0.558287 0.699137 0.116063
H3    H     H_    0.507147 0.551480 0.807940 0.118276
H4    H     H_    0.483936 0.663740 0.922374 0.111625
H5    H     H_    0.302962 0.782979 0.928396 0.110044
H6    H     H_    0.879043 0.934098 0.802994 0.144787
H7    H     H_    0.724503 0.940557 0.694179 0.121672
H8    H     H_    0.965793 0.717189 0.570864 0.112458
C19   C     C_R   0.991059 0.629530 0.323377 -0.217197
C20   C     C_R   0.151537 0.634547 0.368938 -0.086389
C21   C     C_R   0.304354 0.686736 0.366870 -0.215156
C22   C     C_R   0.296957 0.734032 0.320750 0.047740
C23   C     C_R   0.137391 0.727718 0.274463 0.044854
C24   C     C_R   0.984009 0.674984 0.275681 0.101141
C25   C     C_R   0.445797 0.788250 0.321028 -0.183698
C26   C     C_R   0.439040 0.836513 0.275708 0.160256
C27   C     C_R   0.282143 0.828556 0.227032 0.071388
C28   C     C_R   0.130712 0.774203 0.227053 0.011036
C29   C     C_R   0.971218 0.766585 0.180081 0.109106
C30   C     C_R   0.820289 0.713606 0.181521 -0.170011
C31   C     C_R   0.826172 0.668537 0.229091 -0.187689
C32   C     C_R   0.271614 0.873677 0.178666 -0.212319
C33   C     C_R   0.113786 0.866001 0.131529 -0.089190
C34   C     C_R   0.963906 0.812467 0.132852 -0.235486
H9    H     H_    0.872904 0.589190 0.324119 0.123487
H10   H     H_    0.427994 0.691572 0.402106 0.126901
H11   H     H_    0.566966 0.793684 0.357505 0.131650
H12   H     H_    0.384658 0.915941 0.177758 0.136734
H13   H     H_    0.841320 0.806303 0.096899 0.125973
H14   H     H_    0.696408 0.707575 0.146236 0.126135
H15   H     H_    0.706965 0.628583 0.229435 0.126785
C35   C     C_R   0.779353 0.178404 0.863260 -0.205618
C36   C     C_R   0.618611 0.129751 0.864297 -0.133910
C37   C     C_R   0.462788 0.126695 0.815858 -0.096515
C38   C     C_R   0.467728 0.173525 0.768673 0.040898
C39   C     C_R   0.628920 0.223369 0.769879 0.042767
C40   C     C_R   0.784986 0.225494 0.817044 0.088868
C41   C     C_R   0.314862 0.172119 0.720245 -0.179780
C42   C     C_R   0.320066 0.219877 0.675236 -0.189987
C43   C     C_R   0.478046 0.270002 0.676807 0.094176
C44   C     C_R   0.634193 0.271378 0.723721 0.060637
C45   C     C_R   0.795562 0.320789 0.724493 0.086640
C46   C     C_R   0.949190 0.322663 0.771882 -0.187304
C47   C     C_R   0.943909 0.275491 0.817734 -0.182932
C48   C     C_R   0.482610 0.318374 0.631829 -0.229270
C49   C     C_R   0.643951 0.366681 0.631472 -0.086832
C50   C     C_R   0.800398 0.367383 0.677822 -0.222919
H16   H     H_    0.899028 0.180980 0.899779 0.138619
H17   H     H_    0.188579 0.134777 0.717150 0.147657
H18   H     H_    0.199365 0.217822 0.639320 0.132783
H19   H     H_    0.362220 0.317140 0.595946 0.128821
H20   H     H_    0.925051 0.404978 0.678188 0.125090
H21   H     H_    0.074077 0.360405 0.773286 0.133848
H22   H     H_    0.064868 0.277888 0.853604 0.130144
H23   H     H_    0.907032 0.138619 0.421444 0.115102
C51   C     C_R   0.508656 0.404335 0.252876 -0.144267
C52   C     C_R   0.436808 0.416497 0.190425 -0.125704
C53   C     C_R   0.425425 0.352944 0.126165 -0.119389
C54   C     C_R   0.485789 0.276747 0.123860 -0.136409
C55   C     C_R   0.557012 0.262148 0.186660 0.070326
C56   C     C_R   0.568688 0.327352 0.252617 0.071154
C57   C     C_R   0.621186 0.184758 0.184032 -0.186661
C58   C     C_R   0.699000 0.172902 0.247331 0.071509
C59   C     C_R   0.709792 0.238042 0.313363 0.069561
C60   C     C_R   0.644131 0.315253 0.316119 -0.187619
C61   C     C_R   0.764035 0.096419 0.246690 -0.146306
C62   C     C_R   0.841047 0.084904 0.308675 -0.133312
C63   C     C_R   0.849704 0.148191 0.373153 -0.117491
C64   C     C_R   0.783392 0.223731 0.375967 -0.134869
H24   H     H_    0.518412 0.456308 0.300891 0.109103
H25   H     H_    0.391421 0.475777 0.191793 0.116934
H26   H     H_    0.371204 0.362857 0.077590 0.113433
H27   H     H_    0.477866 0.229942 0.072037 0.106931
H28   H     H_    0.755624 0.044442 0.198651 0.112733
H29   H     H_    0.892585 0.026298 0.306824 0.127723
H30   H     H_    0.789964 0.270375 0.427912 0.108078
O11   O     O_R   0.775200 0.060470 0.937800 -0.534452
O12   O     O_R   0.441110 0.093720 0.087350 -0.540203
O13   O     O_R   0.266330 0.939630 0.062280 -0.545373
C65   C     C_R   0.610035 0.116547 0.115135 0.691519
O14   O     O_R   0.445750 0.069950 0.939820 -0.536996
O15   O     O_R   0.271000 0.915700 0.913700 -0.531969
C66   C     C_R   0.613721 0.083342 0.916598 0.704914
O16   O     O_R   0.770530 0.084400 0.086380 -0.537735
O17   O     O_3   0.602830 0.949510 0.991680 -0.374730
V3    V     V_3+5 0.329710 0.009370 0.001550 1.438825
O18   O     O_R   0.940990 0.906170 0.912570 -0.545673
C67   C     C_R   0.109311 0.883523 0.884691 0.726021
O19   O     O_R   0.936350 0.929940 0.060100 -0.546724
C68   C     C_R   0.104900 0.914936 0.081836 0.696580
V4    V     V_3+5 0.829160 0.990450 0.998310 1.420149
O20   O     O_3   0.105910 0.050480 0.008320 -0.362231
C69   C     C_3   0.597762 0.897154 0.281695 -0.799544
H31   H     H_    0.668611 0.886510 0.228437 0.210573
H32   H     H_    0.536040 0.958464 0.299899 0.211894
H33   H     H_    0.710407 0.893995 0.321236 0.211465
C70   C     C_1   0.298811 0.074650 0.813300 0.298558
N1    N     N_1   0.167157 0.033483 0.811278 -0.385209

loop_
_geom_bond_atom_site_label_1
_geom_bond_atom_site_label_2
_ccdc_geom_bond_type
C52   C53   A    
C58   C59   A    
O17   V4    S    
C21   C22   A    
C6    C7    A    
C31   H15   S    
C1    O6    A    
C62   C63   A    
C33   C68   S    
C69   H31   S    
C33   C34   A    
C12   C15   A    
C25   H11   S    
C13   C14   A    
C35   C36   A    
V3    O20   S    
C35   C40   A    
C59   C64   A    
C15   C16   A    
C51   C56   A    
O5    C3    A    
C17   C18   A    
C69   H32   S    
V2    O10   S    
C5    C6    A    
C46   C47   A    
O18   V4    S    
O11   C66   A    
H23   C63   S    
O13   V3    S    
C52   H25   S    
O16   V4    S    
O8    V2    S    
C19   H9    S    
C39   C44   A    
C41   C42   A    
C43   C44   A    
O1    V2    S    
C10   C14   A    
C4    C14   S    
C51   H24   S    
C23   C28   A    
C65   O16   A    
C7    H4    S    
C38   C41   A    
C41   H17   S    
C39   C40   A    
C13   C18   A    
C29   C34   A    
O9    C4    A    
C54   H27   S    
H1    C17   S    
C59   C60   A    
C34   H13   S    
O19   V4    S    
C5    C10   A    
C49   C50   A    
C6    H3    S    
C19   C20   A    
O4    C2    A    
C51   C52   A    
C48   H19   S    
C69   H33   S    
C12   C13   A    
C25   C26   A    
C22   C25   A    
C3    C20   S    
O2    C1    A    
C48   C49   A    
C21   H10   S    
C16   C17   A    
C55   C57   A    
C27   C28   A    
O19   C68   A    
C37   C70   S    
C61   C62   A    
C7    C8    A    
C30   C31   A    
O14   C66   A    
C40   C47   A    
C11   C12   A    
V4    O20   S    
C27   C32   A    
O3    C4    A    
C32   H12   S    
C24   C31   A    
C20   C21   A    
C63   C64   A    
O6    V2    S    
O9    V2    S    
C23   C24   A    
C9    C11   A    
C26   C69   S    
C5    H2    S    
C22   C23   A    
O11   V4    S    
C70   N1    T    
O2    V1    S    
O15   V3    S    
C32   C33   A    
O7    V1    S    
C64   H30   S    
C26   C27   A    
C28   C29   A    
O1    C2    A    
C35   H16   S    
C47   H22   S    
C45   C46   A    
O5    V1    S    
C45   C50   A    
C53   H26   S    
O8    C3    A    
C19   C24   A    
C8    H5    S    
C58   C61   A    
C2    C60   S    
C11   C67   S    
C18   H8    S    
O14   V3    S    
C30   H14   S    
C37   C38   A    
O12   V3    S    
C61   H28   S    
O7    V2    S    
C62   H29   S    
O4    V1    S    
O3    V1    S    
V1    O10   S    
O18   C67   A    
O15   C67   A    
C57   C65   S    
C55   C56   A    
C50   H20   S    
C57   C58   A    
O12   C65   A    
C38   C39   A    
C42   C43   A    
C1    C49   S    
C56   C60   A    
C36   C37   A    
C36   C66   S    
C44   C45   A    
C53   C54   A    
C15   H6    S    
C29   C30   A    
C16   H7    S    
C43   C48   A    
C9    C10   A    
C42   H18   S    
C54   C55   A    
C8    C9    A    
C46   H21   S    
O17   V3    S    
O13   C68   A    
