data_mof_unit_9844.cif
_audit_creation_date              2013-03-05T15:40:54-0500
_audit_creation_method            fapswitch 2.2
_symmetry_space_group_name_H-M    P1
_symmetry_Int_Tables_number       1
_space_group_crystal_system       triclinic
_cell_length_a                    17.427472
_cell_length_b                    24.369903
_cell_length_c                    14.997377
_cell_angle_alpha                 90.163019
_cell_angle_beta                  125.137269
_cell_angle_gamma                 89.793988
_cell_volume                      5208.76312066

loop_
_atom_site_label
_atom_site_type_symbol
_atom_site_description
_atom_site_fract_x
_atom_site_fract_y
_atom_site_fract_z
_atom_type_partial_charge
C1    C     C_R   0.808669 0.624567 0.906946 -0.153047
C2    C     C_R   0.188953 0.627277 0.091234 -0.149161
C3    C     C_R   0.308663 0.124358 0.907431 -0.152423
C4    C     C_R   0.687409 0.129557 0.093737 -0.148942
H1    H     H_    0.749382 0.629182 0.823298 0.104549
H2    H     H_    0.245951 0.636665 0.173709 0.098894
H3    H     H_    0.249609 0.129555 0.823806 0.103532
H4    H     H_    0.743633 0.138433 0.176815 0.097306
N1    N     N_R   0.892320 0.603520 0.941090 -0.048160
N2    N     N_R   0.107680 0.603520 0.058910 -0.046407
N3    N     N_R   0.392320 0.103520 0.941090 -0.047564
N4    N     N_R   0.607680 0.103520 0.058910 -0.046975
C5    C     C_R   0.927474 0.357045 0.092230 -0.147702
C6    C     C_R   0.068087 0.355177 0.906374 -0.138554
C7    C     C_R   0.430255 0.855882 0.092939 -0.138238
C8    C     C_R   0.565080 0.853300 0.907658 -0.158753
H5    H     H_    0.966330 0.341473 0.174646 0.096694
H6    H     H_    0.028389 0.341176 0.822684 0.098008
H7    H     H_    0.469494 0.841483 0.176265 0.097227
H8    H     H_    0.522867 0.837535 0.825243 0.097606
N5    N     N_R   0.953790 0.399020 0.058440 -0.041378
N6    N     N_R   0.046210 0.399020 0.941560 -0.043080
N7    N     N_R   0.453790 0.899020 0.058440 -0.042625
N8    N     N_R   0.546210 0.899020 0.941560 -0.040546
C9    C     C_R   0.013093 0.546392 0.280445 -0.074478
C10   C     C_R   0.948747 0.546684 0.696723 -0.090592
C11   C     C_R   0.535836 0.046742 0.295809 -0.087791
C12   C     C_R   0.508351 0.045856 0.739680 -0.082552
H9    H     H_    0.019550 0.587891 0.309151 0.115114
H10   H     H_    0.929497 0.588483 0.667834 0.101144
H11   H     H_    0.550862 0.088480 0.325858 0.106912
H12   H     H_    0.508787 0.086940 0.714266 0.124873
N9    N     N_R   0.026760 0.529450 0.205590 -0.052536
N10   N     N_R   0.973240 0.529450 0.794410 -0.046161
N11   N     N_R   0.526760 0.029450 0.205590 -0.049747
N12   N     N_R   0.473240 0.029450 0.794410 -0.052524
C13   C     C_R   0.740455 0.454904 0.705121 -0.147671
C14   C     C_R   0.266941 0.453768 0.271483 -0.122424
C15   C     C_R   0.239966 0.954017 0.708061 -0.122950
C16   C     C_R   0.767510 0.954448 0.272699 -0.145007
N13   N     N_R   0.819350 0.473090 0.793940 -0.036552
N14   N     N_R   0.180650 0.473090 0.206060 -0.039300
N15   N     N_R   0.319350 0.973090 0.793940 -0.037682
N16   N     N_R   0.680650 0.973090 0.206060 -0.038924
C17   C     C_R   0.007894 0.454738 0.274414 -0.139346
C18   C     C_R   0.948637 0.455526 0.696567 -0.103444
C19   C     C_R   0.536293 0.955106 0.295359 -0.119330
C20   C     C_R   0.512405 0.954520 0.745820 -0.126817
H13   H     H_    0.006699 0.412259 0.293736 0.093829
H14   H     H_    0.929630 0.413584 0.668969 0.081529
H15   H     H_    0.548572 0.912801 0.321731 0.086783
H16   H     H_    0.522608 0.912018 0.735408 0.093688
N17   N     N_R   0.027860 0.473090 0.206590 -0.043115
N18   N     N_R   0.972140 0.473090 0.793410 -0.043079
N19   N     N_R   0.527860 0.973090 0.206590 -0.044022
N20   N     N_R   0.472140 0.973090 0.793410 -0.045461
C21   C     C_R   0.740320 0.546624 0.701824 -0.138816
C22   C     C_R   0.269192 0.545741 0.279917 -0.144069
C23   C     C_R   0.238598 0.045854 0.702470 -0.152132
C24   C     C_R   0.768068 0.046442 0.280705 -0.126198
H17   H     H_    0.725033 0.588453 0.672594 0.089453
H18   H     H_    0.291684 0.586680 0.312198 0.096153
H19   H     H_    0.221127 0.087423 0.671820 0.100069
H20   H     H_    0.788519 0.087461 0.313104 0.087137
N21   N     N_R   0.818250 0.529450 0.792940 -0.036037
N22   N     N_R   0.181750 0.529450 0.207060 -0.036785
N23   N     N_R   0.318250 0.029450 0.792940 -0.035328
N24   N     N_R   0.681750 0.029450 0.207060 -0.037757
C25   C     C_R   0.835134 0.358298 0.909186 -0.122002
C26   C     C_R   0.158130 0.354489 0.088952 -0.123801
C27   C     C_R   0.339071 0.856052 0.910053 -0.118903
C28   C     C_R   0.656897 0.853933 0.089686 -0.122588
H21   H     H_    0.788616 0.345512 0.825029 0.104817
H22   H     H_    0.200940 0.340083 0.172222 0.101520
H23   H     H_    0.294172 0.842662 0.826135 0.102871
H24   H     H_    0.700046 0.840058 0.173326 0.100235
N25   N     N_R   0.896320 0.399020 0.944720 -0.046449
N26   N     N_R   0.103680 0.399020 0.055280 -0.045638
N27   N     N_R   0.396320 0.899020 0.944720 -0.046287
N28   N     N_R   0.603680 0.899020 0.055280 -0.044354
C29   C     C_R   0.901882 0.627932 0.088878 -0.067258
C30   C     C_R   0.097224 0.625998 0.908827 -0.070189
C31   C     C_R   0.401231 0.125746 0.089924 -0.071365
C32   C     C_R   0.594464 0.132971 0.912290 -0.068762
H25   H     H_    0.930226 0.639027 0.171630 0.128236
H26   H     H_    0.068784 0.631899 0.823927 0.144356
H27   H     H_    0.429056 0.133105 0.174181 0.139509
H28   H     H_    0.563926 0.148062 0.831193 0.114609
N29   N     N_R   0.949790 0.603520 0.054810 -0.059770
N30   N     N_R   0.050210 0.603520 0.945190 -0.061260
N31   N     N_R   0.449790 0.103520 0.054810 -0.061128
N32   N     N_R   0.550210 0.103520 0.945190 -0.057460
C33   C     C_R   0.811340 0.638102 0.998037 0.170612
C34   C     C_R   0.186340 0.639080 0.999445 0.168060
C35   C     C_R   0.310993 0.136958 0.998846 0.169877
C36   C     C_R   0.683700 0.144687 0.003507 0.175434
C37   C     C_R   0.852993 0.331685 0.000047 0.175614
C38   C     C_R   0.137727 0.326578 0.997466 0.171709
C39   C     C_R   0.358788 0.828401 0.001221 0.171398
C40   C     C_R   0.634661 0.825010 0.998692 0.176504
C41   C     C_R   0.994819 0.500357 0.318575 0.130363
C42   C     C_R   0.931109 0.501145 0.633363 0.124718
C43   C     C_R   0.541364 0.000810 0.352605 0.140625
C44   C     C_R   0.539800 0.999877 0.716155 0.127111
C45   C     C_R   0.690635 0.500560 0.648082 0.046575
C46   C     C_R   0.322876 0.498949 0.315393 0.044299
C47   C     C_R   0.189003 0.999088 0.651157 0.043790
C48   C     C_R   0.822491 0.000255 0.316815 0.047275
Ni1   Ni    Ni4+2 0.934100 0.565890 0.869590 0.217959
Ni2   Ni    Ni4+2 0.065900 0.565890 0.130410 0.221698
Ni3   Ni    Ni4+2 0.434100 0.065890 0.869590 0.222168
Ni4   Ni    Ni4+2 0.565900 0.065890 0.130410 0.219731
Ni5   Ni    Ni4+2 0.068420 0.436630 0.132700 0.218803
Ni6   Ni    Ni4+2 0.931580 0.436630 0.867300 0.214027
Ni7   Ni    Ni4+2 0.568420 0.936630 0.132700 0.214856
Ni8   Ni    Ni4+2 0.431580 0.936630 0.867300 0.217989
C49   C     C_3   0.521756 0.472484 0.561882 -0.134483
C50   C     C_3   0.481433 0.446312 0.449591 -0.164284
C51   C     C_3   0.035299 0.946273 0.505603 -0.162965
C52   C     C_3   0.995097 0.972053 0.392772 -0.137138
C53   C     C_3   0.459946 0.523719 0.508712 -0.149057
C54   C     C_3   0.557994 0.474059 0.443591 -0.143802
C55   C     C_3   0.958429 0.974098 0.510782 -0.142383
C56   C     C_3   0.057185 0.023549 0.447084 -0.143667
H29   H     H_    0.535516 0.450949 0.634944 0.126366
H30   H     H_    0.457189 0.403266 0.426466 0.124017
H31   H     H_    0.059962 0.903266 0.529051 0.123826
H32   H     H_    0.981178 0.950380 0.319632 0.127140
C57   C     C_3   0.420926 0.497712 0.397791 0.171116
C58   C     C_3   0.596362 0.500219 0.554269 0.175631
C59   C     C_3   0.920151 0.999813 0.400029 0.174289
C60   C     C_3   0.094972 0.997843 0.557729 0.171015
C61   C     C_3   0.495017 0.525420 0.389355 -0.136174
C62   C     C_3   0.535655 0.551536 0.502050 -0.168339
C63   C     C_3   0.980003 0.051331 0.452059 -0.168430
C64   C     C_3   0.019495 0.025518 0.564133 -0.139219
H33   H     H_    0.480242 0.546877 0.315779 0.126620
H34   H     H_    0.559324 0.594703 0.524588 0.111507
H35   H     H_    0.956106 0.094463 0.428832 0.111492
H36   H     H_    0.032431 0.047298 0.636753 0.124080
C65   C     C_2   0.257803 0.684681 0.916766 0.406338
C66   C     C_2   0.737588 0.681291 0.080856 0.407233
C67   C     C_2   0.756957 0.188180 0.922524 0.418936
C68   C     C_2   0.238006 0.182154 0.080776 0.404654
C69   C     C_2   0.263616 0.665745 0.004535 -0.336463
C70   C     C_2   0.732704 0.663322 0.992780 -0.333489
C71   C     C_2   0.760494 0.172038 0.010169 -0.341555
C72   C     C_2   0.232612 0.162984 0.993173 -0.332244
H37   H     H_    0.319863 0.679897 0.085261 0.124588
H38   H     H_    0.675683 0.676882 0.912000 0.125034
H39   H     H_    0.814862 0.187749 0.090467 0.125470
H40   H     H_    0.176147 0.176831 0.912306 0.124669
C73   C     C_2   0.802033 0.240101 0.928948 -0.216764
C74   C     C_2   0.191093 0.234501 0.071821 -0.216966
C75   C     C_2   0.304411 0.736856 0.925817 -0.216063
C76   C     C_2   0.689953 0.733121 0.073239 -0.216858
C77   C     C_2   0.814324 0.279658 0.998628 -0.261767
C78   C     C_2   0.171800 0.272414 0.996365 -0.254128
C79   C     C_2   0.322998 0.774903 0.001029 -0.254463
C80   C     C_2   0.668767 0.771069 0.997292 -0.255369
H41   H     H_    0.819946 0.247238 0.871494 0.167896
H42   H     H_    0.179536 0.243880 0.134079 0.168943
H43   H     H_    0.316996 0.745833 0.864351 0.167828
H44   H     H_    0.679649 0.742240 0.136610 0.169077
H45   H     H_    0.795985 0.274671 0.056033 0.140906
H46   H     H_    0.182946 0.264938 0.933336 0.141059
H47   H     H_    0.310702 0.767882 0.063170 0.141412
H48   H     H_    0.678842 0.764051 0.933305 0.139300
C81   C     C_2   0.909094 0.460843 0.384236 -0.096569
C82   C     C_2   0.890153 0.457183 0.466808 -0.130382
C83   C     C_2   0.603857 0.959706 0.529352 -0.126913
C84   C     C_2   0.601963 0.955819 0.625108 -0.143519
C85   C     C_2   0.965580 0.500344 0.390741 -0.112758
C86   C     C_2   0.891804 0.502504 0.518110 -0.179173
C87   C     C_2   0.560626 0.001622 0.459462 -0.166402
C88   C     C_2   0.590540 0.001031 0.666735 -0.095853
H49   H     H_    0.886224 0.427297 0.326404 0.122093
H50   H     H_    0.893623 0.416576 0.498314 0.120047
H51   H     H_    0.628691 0.924324 0.508651 0.124522
H52   H     H_    0.593107 0.915203 0.647252 0.122942
H53   H     H_    0.991427 0.533473 0.449774 0.151204
H54   H     H_    0.882250 0.542678 0.481687 0.167225
H55   H     H_    0.532452 0.036658 0.476465 0.155197
H56   H     H_    0.606185 0.041241 0.650145 0.182623
N33   N     N_R   0.205054 0.656482 0.813635 0.226906
O1    O     O_R   0.171217 0.683516 0.723523 -0.413152
O2    O     O_R   0.203555 0.603077 0.810716 -0.401846
N34   N     N_R   0.791592 0.652755 0.183537 0.225549
O3    O     O_R   0.823435 0.679030 0.274114 -0.420261
O4    O     O_R   0.797208 0.599433 0.185578 -0.411042
N35   N     N_R   0.708385 0.157075 0.822834 0.224599
O5    O     O_R   0.677957 0.181086 0.730665 -0.422529
O6    O     O_R   0.708206 0.103747 0.826409 -0.431294
N36   N     N_R   0.291311 0.154185 0.184083 0.226771
O7    O     O_R   0.324076 0.181277 0.274045 -0.415458
O8    O     O_R   0.295127 0.100804 0.187344 -0.403440
H57   H     H_    0.723931 0.412494 0.679819 0.101873
H58   H     H_    0.286520 0.411123 0.290597 0.096189
H59   H     H_    0.224458 0.911365 0.684536 0.093760
H60   H     H_    0.788389 0.911977 0.292738 0.105177
H61   H     H_    0.417126 0.543717 0.532865 0.124886
H62   H     H_    0.601640 0.454149 0.420552 0.124025
H63   H     H_    0.915033 0.954165 0.533879 0.122734
H64   H     H_    0.101049 0.043448 0.424655 0.129440

loop_
_geom_bond_atom_site_label_1
_geom_bond_atom_site_label_2
_geom_bond_distance
_ccdc_geom_bond_type
C22   H18   1.079366 S    
C46   C57   1.420233 S    
C31   H27   1.076152 S    
C83   C84   1.458696 S    
C61   H33   1.110216 S    
N8    N28   1.394861 A    
C30   C34   1.390032 A    
C39   C79   1.446550 S    
C26   N26   1.333149 A    
C52   C59   1.527175 S    
C81   C82   1.456636 S    
C6    H6    1.081732 S    
C25   N25   1.325270 A    
C3    N3    1.336883 A    
N13   Ni6   1.827980 S    
C68   C72   1.344570 D    
C9    C41   1.379444 A    
C86   H54   1.087110 S    
C27   N27   1.330235 A    
C63   C64   1.538128 S    
C44   C88   1.444571 S    
C2    H2    1.074590 S    
C7    H7    1.081454 S    
C18   C42   1.377690 A    
C1    C33   1.378987 A    
N19   Ni7   1.846257 S    
C56   H64   1.110074 S    
C1    H1    1.077933 S    
C87   H55   1.083975 S    
C68   C74   1.476797 S    
C74   C78   1.346510 D    
C20   H16   1.076371 S    
C59   C63   1.529741 S    
C66   C70   1.345877 D    
C73   C77   1.343629 D    
N24   Ni4   1.872889 S    
C60   C64   1.527408 S    
N33   O2    1.301932 A    
C68   N36   1.439689 S    
C20   C44   1.377942 A    
C56   C60   1.524721 S    
C9    H9    1.078581 S    
N34   O4    1.301904 A    
C50   C54   1.546164 S    
C4    H4    1.074237 S    
C49   C53   1.537029 S    
C48   C59   1.417493 S    
C23   N23   1.326187 A    
C4    C36   1.368676 A    
C41   C85   1.437307 S    
C64   H36   1.110695 S    
C10   N10   1.336922 A    
C19   H15   1.080955 S    
C38   C78   1.449377 S    
N16   Ni7   1.831769 S    
N17   Ni5   1.846257 S    
C26   H22   1.080554 S    
C32   N32   1.340685 A    
C14   H58   1.079439 S    
C25   H21   1.081247 S    
C13   H57   1.081288 S    
C53   C62   1.539145 S    
C4    N4    1.332353 A    
C24   C48   1.365398 A    
C65   C69   1.343677 D    
C16   C48   1.369573 A    
C29   N29   1.340820 A    
C84   H52   1.084354 S    
C34   C69   1.459270 S    
C7    N7    1.338486 A    
N36   O7    1.301207 A    
C85   H53   1.085380 S    
C8    N8    1.339651 A    
C70   H38   1.085622 S    
N27   Ni8   1.843147 S    
C13   N13   1.324415 A    
C83   H51   1.085188 S    
C58   C62   1.529357 S    
C76   C80   1.344751 D    
C81   H49   1.086198 S    
C22   N22   1.326272 A    
C6    C38   1.384149 A    
N1    Ni1   1.846429 S    
C19   C43   1.375989 A    
C21   C45   1.363122 A    
C75   C79   1.346337 D    
N35   O5    1.301136 A    
C32   H28   1.074136 S    
C12   H12   1.073911 S    
C1    N1    1.336932 A    
N9    N17   1.373557 A    
N6    N26   1.394861 A    
N5    Ni5   1.875536 S    
N36   O8    1.301965 A    
C77   H45   1.084288 S    
C88   H56   1.085304 S    
C65   C75   1.474594 S    
N13   N21   1.373557 A    
C16   H60   1.080364 S    
C11   N11   1.335752 A    
C30   H26   1.077805 S    
C27   C39   1.379993 A    
N29   Ni2   1.890170 S    
N11   N19   1.373557 A    
C23   C47   1.369170 A    
C73   H41   1.086742 S    
N34   O3    1.301192 A    
C22   C46   1.371688 A    
C37   C77   1.432358 S    
N31   Ni4   1.890170 S    
C14   C46   1.364156 A    
C15   C47   1.359925 A    
N35   O6    1.300940 A    
C54   C61   1.549589 S    
C13   C45   1.366424 A    
N12   N20   1.373609 A    
N3    N31   1.394861 A    
N15   Ni8   1.827980 S    
C29   C33   1.389937 A    
C12   C44   1.377055 A    
N14   Ni5   1.831769 S    
N28   Ni7   1.837656 S    
C2    C34   1.381958 A    
C8    H8    1.081298 S    
C31   C35   1.392838 A    
C18   N18   1.331677 A    
N12   Ni3   1.844010 S    
C43   C87   1.435949 S    
C17   H13   1.079302 S    
N20   Ni8   1.851733 S    
C5    N5    1.336907 A    
C33   C70   1.460089 S    
C40   C80   1.445818 S    
N22   Ni2   1.872889 S    
C21   H17   1.080911 S    
C49   C58   1.529074 S    
N2    N30   1.394862 A    
C17   C41   1.376303 A    
C57   C61   1.527752 S    
N23   Ni3   1.876667 S    
C25   C37   1.374697 A    
C82   H50   1.084228 S    
N8    Ni8   1.871608 S    
C11   H11   1.081539 S    
C61   C62   1.543528 S    
N3    Ni3   1.846429 S    
N16   N24   1.373609 A    
N26   Ni5   1.837656 S    
C65   N33   1.439254 S    
N1    N29   1.394861 A    
N25   Ni6   1.843147 S    
C2    N2    1.338017 A    
C32   C36   1.386939 A    
C67   C71   1.340073 D    
N4    Ni4   1.852051 S    
C66   N34   1.440104 S    
C78   H46   1.083781 S    
C19   N19   1.328033 A    
C28   C40   1.377334 A    
C20   N20   1.333787 A    
C36   C71   1.448269 S    
C15   H59   1.080775 S    
C67   N35   1.437998 S    
C56   C63   1.543350 S    
C55   C59   1.524508 S    
C23   H19   1.081460 S    
N4    N32   1.394862 A    
C8    C40   1.379636 A    
C35   C72   1.461410 S    
C72   H40   1.085959 S    
C53   C57   1.525249 S    
C47   C60   1.416579 S    
C51   C60   1.529735 S    
C74   H42   1.086072 S    
C62   H34   1.109792 S    
C15   N15   1.318724 A    
C51   C52   1.545065 S    
C52   H32   1.110129 S    
N32   Ni3   1.894096 S    
C14   N14   1.321008 A    
C45   C58   1.420597 S    
C82   C86   1.335128 D    
C51   C55   1.540600 S    
C42   C86   1.447513 S    
C31   N31   1.339740 A    
C18   H14   1.080737 S    
N6    Ni6   1.871608 S    
C3    H3    1.078131 S    
C30   N30   1.337181 A    
C5    H5    1.080612 S    
C55   C64   1.538421 S    
C24   H20   1.078353 S    
C63   H35   1.109781 S    
C75   H43   1.086247 S    
C6    N6    1.338228 A    
C53   H61   1.110480 S    
C28   N28   1.333695 A    
C50   C57   1.528932 S    
C49   C50   1.540005 S    
C10   C42   1.374505 A    
C76   H44   1.086211 S    
C27   H23   1.081031 S    
N10   N18   1.373609 A    
C55   H63   1.110436 S    
N33   O1    1.301195 A    
N21   Ni1   1.876667 S    
C83   C87   1.342104 D    
C28   H24   1.080774 S    
C71   H39   1.086817 S    
N18   Ni6   1.851733 S    
C11   C43   1.377670 A    
N7    Ni7   1.875536 S    
C79   H47   1.083875 S    
N2    Ni2   1.852051 S    
C80   H48   1.083410 S    
C5    C37   1.383264 A    
C52   C56   1.548732 S    
C29   H25   1.072719 S    
C67   C73   1.465183 S    
C24   N24   1.320481 A    
C17   N17   1.329239 A    
C84   C88   1.334513 D    
C54   H62   1.110080 S    
C16   N16   1.323967 A    
C66   C76   1.477069 S    
C12   N12   1.337819 A    
N15   N23   1.373557 A    
C7    C39   1.385852 A    
N5    N25   1.394861 A    
N14   N22   1.373609 A    
N10   Ni1   1.844010 S    
C81   C85   1.342018 D    
C3    C35   1.381711 A    
N9    Ni2   1.849453 S    
C50   H30   1.109816 S    
N30   Ni1   1.894096 S    
N7    N27   1.394861 A    
C49   H29   1.110616 S    
C54   C58   1.525844 S    
C69   H37   1.086084 S    
N11   Ni4   1.849453 S    
C26   C38   1.380756 A    
C9    N9    1.338641 A    
C21   N21   1.322848 A    
C10   H10   1.081946 S    
C51   H31   1.109823 S    
