data_mof_unit_8834.cif
_audit_creation_date              2012-12-10T18:09:30-0500
_audit_creation_method            fapswitch 2.2
_symmetry_space_group_name_H-M    P1
_symmetry_Int_Tables_number       1
_space_group_crystal_system       triclinic
_cell_length_a                    14.949721
_cell_length_b                    15.61148
_cell_length_c                    9.489331
_cell_angle_alpha                 89.906227
_cell_angle_beta                  89.923382
_cell_angle_gamma                 89.994106
_cell_volume                      2214.68410246

loop_
_atom_site_label
_atom_site_type_symbol
_atom_type_description
_atom_site_fract_x
_atom_site_fract_y
_atom_site_fract_z
_atom_type_partial_charge
C1    C     C_R   0.122160 0.382539 0.500238 0.801391
C2    C     C_R   0.124059 0.615386 0.499818 0.791799
C3    C     C_R   0.623686 0.884225 0.499889 0.785084
C4    C     C_R   0.621571 0.118074 0.500056 0.811114
C5    C     C_3   0.091200 0.520604 0.083378 -0.522178
C6    C     C_3   0.091588 0.519043 0.916291 -0.516361
C7    C     C_3   0.591978 0.982678 0.083403 -0.520142
C8    C     C_3   0.591805 0.981952 0.916290 -0.516498
C9    C     C_R   0.878688 0.380695 0.500064 0.803735
C10   C     C_R   0.880413 0.621043 0.499939 0.737147
C11   C     C_R   0.381146 0.878317 0.500410 0.792726
C12   C     C_R   0.378852 0.119517 0.499767 0.781143
C13   C     C_3   0.783402 0.285085 0.654149 0.403588
C14   C     C_3   0.847506 0.228937 0.430655 0.406301
C15   C     C_3   0.830375 0.756735 0.620326 0.491316
C16   C     C_3   0.815026 0.743712 0.359242 0.434265
C17   C     C_3   0.319676 0.751513 0.638792 0.418548
C18   C     C_3   0.331174 0.742663 0.378548 0.446428
C19   C     C_3   0.289423 0.219765 0.653000 0.476051
C20   C     C_3   0.345026 0.269450 0.419219 0.393624
C21   C     C_3   0.244151 0.684493 0.642147 -0.443574
C22   C     C_3   0.263050 0.668212 0.380914 -0.466741
C23   C     C_3   0.222275 0.294105 0.652810 -0.413227
C24   C     C_3   0.272236 0.339464 0.410141 -0.459104
C25   C     C_3   0.710566 0.215978 0.653007 -0.407482
C26   C     C_3   0.777050 0.156355 0.429064 -0.472156
C27   C     C_3   0.762822 0.831501 0.616458 -0.457208
C28   C     C_3   0.741829 0.812759 0.356258 -0.451354
C29   C     C_3   0.718593 0.340670 0.420639 0.268680
C30   C     C_3   0.711949 0.654020 0.520648 0.258091
C31   C     C_3   0.213421 0.844941 0.490779 0.268070
C32   C     C_3   0.215534 0.157621 0.433259 0.244496
C33   C     C_3   0.807967 0.311754 0.499836 -0.136933
C34   C     C_3   0.810332 0.690877 0.499866 -0.160562
C35   C     C_3   0.312208 0.807547 0.501754 -0.145996
C36   C     C_3   0.308397 0.188751 0.498727 -0.153391
C37   C     C_3   0.193440 0.682874 0.499392 -0.050496
C38   C     C_3   0.190215 0.313752 0.500610 -0.106788
C39   C     C_3   0.689441 0.187067 0.499888 -0.090694
C40   C     C_3   0.692397 0.816165 0.499645 -0.068020
C41   C     C_3   0.146397 0.769360 0.472950 -0.397968
C42   C     C_3   0.147403 0.232615 0.437860 -0.295241
C43   C     C_3   0.652349 0.263634 0.415135 -0.377443
C44   C     C_3   0.644710 0.730149 0.526460 -0.331953
C45   C     C_3   0.938425 0.564605 0.083501 1.030470
C46   C     C_3   0.939617 0.565727 0.916817 1.040075
C47   C     C_3   0.976859 0.414535 0.083134 1.031503
C48   C     C_3   0.975159 0.415084 0.916974 0.979310
C49   C     C_3   0.473473 0.084443 0.083051 1.032121
C50   C     C_3   0.474123 0.084648 0.916862 0.982883
C51   C     C_3   0.441052 0.933062 0.083650 1.027654
C52   C     C_3   0.440423 0.933663 0.916920 1.042239
Cu1   Cu    Cu3+1 0.000100 0.500000 0.642410 1.086557
Cu2   Cu    Cu3+1 0.000100 0.500000 0.357590 1.096859
Cu3   Cu    Cu3+1 0.500100 0.000000 0.642410 1.088986
Cu4   Cu    Cu3+1 0.500100 0.000000 0.357590 1.091949
H1    H     H_    0.843751 0.258747 0.707603 0.153995
H2    H     H_    0.906102 0.206958 0.493387 0.060649
H3    H     H_    0.899224 0.782767 0.607137 0.054744
H4    H     H_    0.881662 0.775237 0.351189 0.095508
H5    H     H_    0.385423 0.717978 0.639895 0.089974
H6    H     H_    0.399626 0.715617 0.391250 0.072079
H7    H     H_    0.352652 0.242102 0.702826 0.129211
H8    H     H_    0.402964 0.295652 0.478886 0.062532
H9    H     H_    0.273085 0.620254 0.665080 0.144279
H10   H     H_    0.298560 0.606449 0.398630 0.131505
H11   H     H_    0.254184 0.352053 0.699007 0.142779
H12   H     H_    0.300015 0.401524 0.447628 0.135028
H13   H     H_    0.733682 0.160378 0.717004 0.171518
H14   H     H_    0.803634 0.099430 0.486080 0.131543
H15   H     H_    0.798778 0.892762 0.596287 0.122676
H16   H     H_    0.772453 0.876118 0.332021 0.146057
H17   H     H_    0.196713 0.699672 0.729094 0.243697
H18   H     H_    0.229418 0.663660 0.276655 0.240997
H19   H     H_    0.164226 0.277160 0.720917 0.291279
H20   H     H_    0.251662 0.348654 0.298435 0.246595
H21   H     H_    0.648694 0.241190 0.703523 0.269837
H22   H     H_    0.763697 0.136188 0.318609 0.235960
H23   H     H_    0.729708 0.837529 0.721070 0.244882
H24   H     H_    0.693415 0.798310 0.270430 0.251990
H25   H     H_    0.088106 0.776482 0.545300 0.166371
H26   H     H_    0.116933 0.768881 0.365202 0.191991
H27   H     H_    0.087475 0.215266 0.501858 0.173208
H28   H     H_    0.121583 0.246709 0.330227 0.242500
H29   H     H_    0.585090 0.281464 0.456365 0.173696
H30   H     H_    0.640047 0.243393 0.304453 0.237314
H31   H     H_    0.611058 0.733031 0.631289 0.209550
H32   H     H_    0.589485 0.721694 0.449003 0.151921
H33   H     H_    0.113470 0.584898 0.118959 0.257842
H34   H     H_    0.116202 0.581900 0.877511 0.257583
H35   H     H_    0.142109 0.474983 0.124224 0.251310
H36   H     H_    0.141157 0.471142 0.878525 0.250058
H37   H     H_    0.640665 0.031164 0.121715 0.249569
H38   H     H_    0.641127 0.029409 0.876124 0.249914
H39   H     H_    0.617676 0.920067 0.121495 0.259180
H40   H     H_    0.616379 0.918616 0.879782 0.258594
N1    N     N_3   0.001260 0.500000 0.143650 -0.376469
N2    N     N_3   0.001260 0.500000 0.856350 -0.367140
N3    N     N_3   0.501260 1.000000 0.143650 -0.376099
N4    N     N_3   0.501260 0.000000 0.856350 -0.366833
O1    O     O_R   0.091250 0.408820 0.620260 -0.557931
O2    O     O_R   0.091250 0.408820 0.379740 -0.550492
O3    O     O_R   0.091250 0.591180 0.620260 -0.583875
O4    O     O_R   0.091250 0.591180 0.379740 -0.586284
O5    O     O_R   0.591250 0.908820 0.620260 -0.585009
O6    O     O_R   0.591250 0.908820 0.379740 -0.583937
O7    O     O_R   0.591250 0.091180 0.620260 -0.561259
O8    O     O_R   0.591250 0.091180 0.379740 -0.549848
O9    O     O_R   0.908940 0.408800 0.620260 -0.498448
O10   O     O_R   0.908940 0.408800 0.379740 -0.449072
O11   O     O_R   0.908940 0.591200 0.620260 -0.474560
O12   O     O_R   0.908940 0.591200 0.379740 -0.474611
O13   O     O_R   0.408940 0.908800 0.620260 -0.483523
O14   O     O_R   0.408940 0.908800 0.379740 -0.460556
O15   O     O_R   0.408940 0.091200 0.620260 -0.487569
O16   O     O_R   0.408940 0.091200 0.379740 -0.478958
F1    F     F_    0.754179 0.353790 0.734084 -0.573024
F2    F     F_    0.878952 0.243634 0.295471 -0.573302
F3    F     F_    0.826277 0.718655 0.752001 -0.514706
F4    F     F_    0.805368 0.693063 0.240972 -0.541292
F5    F     F_    0.315394 0.798915 0.761354 -0.546478
F6    F     F_    0.329287 0.781062 0.247340 -0.544715
F7    F     F_    0.255415 0.154313 0.736130 -0.520224
F8    F     F_    0.376821 0.250615 0.285779 -0.569689
N5    N     N_3   0.674439 0.411902 0.494265 -0.555517
H41   H     H_    0.636709 0.391083 0.580572 0.270928
H42   H     H_    0.723360 0.452466 0.532925 0.233167
N6    N     N_3   0.738355 0.369985 0.276591 -0.397178
H43   H     H_    0.681370 0.399393 0.234602 0.265822
H44   H     H_    0.751991 0.318010 0.210801 0.318371
N7    N     N_3   0.703982 0.607814 0.655330 -0.421055
H45   H     H_    0.751493 0.559454 0.662573 0.292537
H46   H     H_    0.641226 0.578246 0.660662 0.237495
N8    N     N_3   0.686144 0.595955 0.404853 -0.569402
H47   H     H_    0.739938 0.557584 0.374669 0.283769
H48   H     H_    0.667031 0.630204 0.315088 0.299764
N9    N     N_3   0.188436 0.893125 0.618942 -0.536207
H49   H     H_    0.168964 0.852499 0.701065 0.289813
H50   H     H_    0.242125 0.929079 0.656283 0.315167
N10   N     N_3   0.205364 0.903519 0.369743 -0.530461
H51   H     H_    0.141112 0.930009 0.370523 0.219313
H52   H     H_    0.209313 0.870365 0.274670 0.326554
N11   N     N_3   0.179019 0.087546 0.518258 -0.466661
H53   H     H_    0.225223 0.037954 0.515547 0.237595
H54   H     H_    0.119966 0.065184 0.472091 0.233926
N12   N     N_3   0.222715 0.127979 0.286516 -0.512198
H55   H     H_    0.260927 0.072244 0.279807 0.317833
H56   H     H_    0.248645 0.175403 0.220682 0.344268
F9    F     F_    0.961524 0.645395 0.132279 -0.578646
F10   F     F_    0.965942 0.646302 0.870770 -0.571224
F11   F     F_    0.036249 0.352550 0.130105 -0.595575
F12   F     F_    0.031257 0.351574 0.866079 -0.622865
F13   F     F_    0.529009 0.148773 0.132617 -0.593220
F14   F     F_    0.530732 0.148521 0.868152 -0.631050
F15   F     F_    0.468879 0.853114 0.130350 -0.566291
F16   F     F_    0.466376 0.853561 0.868545 -0.574166
F17   F     F_    0.852168 0.547327 0.129471 -0.539954
F18   F     F_    0.853385 0.552101 0.868695 -0.536261
F19   F     F_    0.893039 0.390041 0.128170 -0.545386
F20   F     F_    0.889663 0.393906 0.875578 -0.539482
F21   F     F_    0.387869 0.104628 0.125768 -0.571061
F22   F     F_    0.389124 0.105899 0.873331 -0.534858
F23   F     F_    0.354371 0.945338 0.131789 -0.561354
F24   F     F_    0.353710 0.948117 0.871029 -0.532952

loop_
_geom_bond_atom_site_label_1
_geom_bond_atom_site_label_2
_ccdc_geom_bond_type
C16   C28   S    
Cu3   Cu4   S    
C29   N5    S    
C50   F22   S    
C25   H13   S    
C8    H40   S    
C13   C25   S    
N6    H43   S    
C14   C33   S    
C11   O13   A    
C7    C8    S    
C47   F19   S    
Cu1   Cu2   S    
C3    O5    A    
C48   F20   S    
C19   F7    S    
C26   H22   S    
C7    N3    S    
Cu3   O5    S    
C25   H21   S    
C6    N2    S    
C49   F13   S    
N10   H52   S    
C38   C42   S    
C27   H23   S    
C19   C36   S    
C16   F4    S    
C5    C6    S    
C26   C39   S    
C32   N12   S    
C28   C40   S    
N11   H53   S    
C46   F18   S    
C21   H17   S    
Cu2   O10   S    
C21   C37   S    
C16   H4    S    
C23   H11   S    
C11   O14   A    
Cu4   O8    S    
C32   N11   S    
C16   C34   S    
C22   H10   S    
C20   C24   S    
C29   C33   S    
Cu1   O1    S    
C14   F2    S    
Cu3   N4    S    
C24   C38   S    
Cu2   N1    S    
C10   O12   A    
C12   C36   S    
C44   H31   S    
C18   C35   S    
C15   C34   S    
C49   F21   S    
C12   O15   A    
C17   H5    S    
Cu1   O11   S    
C46   N2    S    
C29   C43   S    
C9    C33   S    
C30   C44   S    
C28   H16   S    
C14   H2    S    
N12   H56   S    
C3    O6    A    
C51   N3    S    
C7    H37   S    
C4    O7    A    
C30   C34   S    
C51   C52   S    
C43   H29   S    
C51   F15   S    
C42   H28   S    
N10   H51   S    
C19   H7    S    
C24   H20   S    
N8    H48   S    
Cu3   O13   S    
C30   N8    S    
C45   C46   S    
C22   C37   S    
C52   N4    S    
C17   C21   S    
Cu3   O7    S    
C9    O9    A    
C20   H8    S    
C19   C23   S    
C13   C33   S    
C49   N3    S    
C4    O8    A    
C15   C27   S    
C47   C48   S    
C4    C39   S    
C2    O4    A    
C27   C40   S    
C41   H25   S    
Cu4   O16   S    
Cu2   O12   S    
C10   O11   A    
C10   C34   S    
C14   C26   S    
C51   F23   S    
N9    H50   S    
Cu4   O6    S    
C5    H35   S    
C1    C38   S    
C18   F6    S    
C17   F5    S    
C46   F10   S    
C52   F24   S    
C3    C40   S    
C1    O1    A    
C48   F12   S    
N5    H41   S    
C26   H14   S    
C31   C35   S    
C45   F17   S    
C23   H19   S    
C31   N9    S    
C22   H18   S    
N7    H45   S    
C8    H38   S    
C32   C36   S    
C27   H15   S    
N12   H55   S    
Cu1   O9    S    
C9    O10   A    
N11   H54   S    
C32   C42   S    
C31   C41   S    
C21   H9    S    
C18   C22   S    
C43   H30   S    
C15   H3    S    
Cu2   O2    S    
C18   H6    S    
C42   H27   S    
C47   F11   S    
N7    H46   S    
N6    H44   S    
C13   F1    S    
N8    H47   S    
Cu1   N2    S    
C52   F16   S    
C23   C38   S    
C7    H39   S    
N9    H49   S    
Cu2   O4    S    
C50   N4    S    
C47   N1    S    
C11   C35   S    
C8    N4    S    
C6    H34   S    
C25   C39   S    
C2    C37   S    
Cu3   O15   S    
C2    O3    A    
C50   F14   S    
C6    H36   S    
C41   H26   S    
C15   F3    S    
C5    N1    S    
C45   F9    S    
C48   N2    S    
C37   C41   S    
C28   H24   S    
C20   F8    S    
C24   H12   S    
C20   C36   S    
C40   C44   S    
C13   H1    S    
C39   C43   S    
C49   C50   S    
C29   N6    S    
N5    H42   S    
Cu4   O14   S    
Cu1   O3    S    
C45   N1    S    
C17   C35   S    
Cu4   N3    S    
C31   N10   S    
C44   H32   S    
C1    O2    A    
C5    H33   S    
C30   N7    S    
C12   O16   A    
