data_mof_unit_41372.cif
_audit_creation_date              2012-12-10T19:45:38-0500
_audit_creation_method            fapswitch 2.2
_symmetry_space_group_name_H-M    P1
_symmetry_Int_Tables_number       1
_space_group_crystal_system       triclinic
_cell_length_a                    10.833875
_cell_length_b                    14.687235
_cell_length_c                    14.707632
_cell_angle_alpha                 65.224356
_cell_angle_beta                  103.479361
_cell_angle_gamma                 102.948791
_cell_volume                      2045.0504622

loop_
_atom_site_label
_atom_site_type_symbol
_atom_type_description
_atom_site_fract_x
_atom_site_fract_y
_atom_site_fract_z
_atom_type_partial_charge
C1    C     C_R   0.477421 0.119633 0.312215 0.798643
C2    C     C_R   0.521077 0.880328 0.687772 0.800839
C3    C     C_R   0.870611 0.001551 0.495307 -0.115066
C4    C     C_R   0.129337 0.999294 0.503798 -0.114924
C5    C     C_R   0.906448 0.954939 0.440475 0.041660
C6    C     C_R   0.093439 0.046713 0.557891 0.041514
C7    C     C_R   0.458338 0.187093 0.204628 -0.055330
C8    C     C_R   0.526124 0.812661 0.795152 -0.053060
C9    C     C_R   0.398810 0.215243 0.026918 -0.200577
C10   C     C_R   0.544908 0.783929 0.971774 -0.197653
C11   C     C_R   0.417321 0.148916 0.128181 -0.173486
C12   C     C_R   0.548323 0.850490 0.871305 -0.177712
C13   C     C_R   0.478803 0.291772 0.178922 -0.247568
C14   C     C_R   0.502724 0.707977 0.820611 -0.242947
C15   C     C_R   0.455729 0.360110 0.077845 0.091271
C16   C     C_R   0.494037 0.639284 0.920642 0.089691
C17   C     C_R   0.418698 0.320312 0.001176 0.163797
C18   C     C_R   0.517938 0.678905 0.997009 0.164409
C19   C     C_R   0.471917 0.466710 0.050989 0.066921
C20   C     C_R   0.464630 0.532627 0.946899 0.065105
C21   C     C_R   0.425847 0.489730 0.872658 -0.213910
C22   C     C_R   0.492654 0.509436 0.124568 -0.211314
C23   C     C_R   0.262803 0.999204 0.502269 0.802076
C24   C     C_R   0.737164 0.000977 0.497524 0.802041
C25   C     C_R   0.402202 0.385618 0.899655 -0.221354
C26   C     C_R   0.514578 0.613493 0.097699 -0.220073
C27   C     C_R   0.712611 0.284966 0.669329 -0.366249
C28   C     C_R   0.288333 0.715528 0.329919 -0.368132
C29   C     C_R   0.680003 0.203352 0.639512 0.810917
C30   C     C_R   0.320343 0.796829 0.360215 0.810852
C31   C     C_R   0.519050 0.285386 0.508548 -0.092053
C32   C     C_R   0.481118 0.714702 0.491278 -0.093214
C33   C     C_R   0.548544 0.371668 0.534589 -0.018825
C34   C     C_R   0.452280 0.628758 0.464710 -0.020297
C35   C     C_R   0.647028 0.368973 0.617674 0.062234
C36   C     C_R   0.354138 0.631630 0.381374 0.061162
C37   C     C_R   0.483539 0.459077 0.482719 0.074773
C38   C     C_R   0.517622 0.541523 0.516313 0.073100
C39   C     C_R   0.615684 0.533890 0.600292 -0.184945
C40   C     C_R   0.385963 0.466949 0.398393 -0.189742
C41   C     C_R   0.679101 0.449590 0.649352 -0.138498
C42   C     C_R   0.322676 0.551322 0.349237 -0.143243
C43   C     C_R   0.349311 0.077866 0.771834 -0.112271
C44   C     C_R   0.643684 0.928490 0.228507 -0.107323
C45   C     C_R   0.261087 0.033480 0.710775 -0.186701
C46   C     C_R   0.735954 0.971370 0.288785 -0.185265
C47   C     C_R   0.186824 0.093685 0.622902 0.007475
C48   C     C_R   0.812509 0.909942 0.374063 0.005178
C49   C     C_R   0.201120 0.198706 0.597772 0.640327
C50   C     C_R   0.797376 0.805369 0.396654 0.638989
C51   C     C_R   0.289439 0.242533 0.659298 -0.201061
C52   C     C_R   0.705373 0.763090 0.335632 -0.196316
C53   C     C_R   0.363866 0.182295 0.745894 -0.229598
C54   C     C_R   0.627925 0.824406 0.252265 -0.223967
C55   C     C_R   0.964151 0.047414 0.552505 -0.140620
C56   C     C_R   0.035746 0.953696 0.446286 -0.138436
Cu1   Cu    Cu3+1 0.466270 0.918260 0.475690 1.004866
Cu2   Cu    Cu3+1 0.533730 0.081740 0.524310 1.006093
H1    H     H_    0.432829 0.216562 0.792880 0.149885
H2    H     H_    0.555269 0.791188 0.206374 0.143123
H3    H     H_    0.368874 0.184394 0.968659 0.139691
H4    H     H_    0.562863 0.814640 0.029721 0.134141
H5    H     H_    0.408935 0.534354 0.792470 0.148214
H6    H     H_    0.488843 0.464570 0.203795 0.141414
H7    H     H_    0.753999 0.447331 0.713366 0.151989
H8    H     H_    0.248268 0.553825 0.284874 0.154019
H9    H     H_    0.556490 0.720438 0.551624 0.156017
H10   H     H_    0.443305 0.279487 0.448473 0.156691
H11   H     H_    0.788385 0.282234 0.732884 0.169254
H12   H     H_    0.212877 0.718434 0.266129 0.169960
H13   H     H_    0.646070 0.592005 0.630528 0.146960
H14   H     H_    0.356063 0.409049 0.367849 0.146533
H15   H     H_    0.406213 0.031323 0.839458 0.135289
H16   H     H_    0.584006 0.975878 0.163611 0.135597
H17   H     H_    0.250911 0.952457 0.731602 0.138222
H18   H     H_    0.746512 0.052051 0.270056 0.135717
H19   H     H_    0.300934 0.323409 0.639497 0.163538
H20   H     H_    0.692805 0.682470 0.353728 0.164576
H21   H     H_    0.936533 0.081916 0.595727 0.202542
H22   H     H_    0.063361 0.919308 0.402966 0.204240
H23   H     H_    0.372271 0.356083 0.840365 0.145171
H24   H     H_    0.530135 0.642831 0.156542 0.141842
H25   H     H_    0.493654 0.681816 0.760849 0.150099
H26   H     H_    0.515968 0.318433 0.239246 0.154610
H27   H     H_    0.568061 0.931231 0.853269 0.172059
H28   H     H_    0.400145 0.068097 0.146511 0.177671
N1    N     N_R   0.584450 0.204570 0.560790 -0.226486
N2    N     N_R   0.415550 0.795430 0.439210 -0.225654
O1    O     O_R   0.455540 0.022090 0.338120 -0.538074
O2    O     O_R   0.544460 0.977910 0.661880 -0.536312
O3    O     O_R   0.512510 0.160150 0.379180 -0.602173
O4    O     O_R   0.487490 0.839850 0.620820 -0.603031
O5    O     O_R   0.291160 0.930970 0.479480 -0.537054
O6    O     O_R   0.708840 0.069030 0.520520 -0.537320
O7    O     O_R   0.348130 0.069020 0.520540 -0.587446
O8    O     O_R   0.651870 0.930980 0.479460 -0.587014
F1    F     F_    0.256787 0.878033 0.309572 -0.671352
F2    F     F_    0.743432 0.122086 0.690262 -0.669394
F3    F     F_    0.131194 0.258688 0.513016 -0.675067
F4    F     F_    0.869222 0.744165 0.478997 -0.674888

loop_
_geom_bond_atom_site_label_1
_geom_bond_atom_site_label_2
_ccdc_geom_bond_type
C43   H15   S    
C1    O1    A    
Cu1   O4    S    
C27   C29   A    
C5    C56   A    
C36   C42   A    
C19   C20   A    
C18   C26   A    
C6    C55   A    
Cu2   N1    S    
C46   H18   S    
C53   H1    S    
C39   C41   A    
C54   H2    S    
C29   N1    A    
C15   C19   A    
C30   F1    S    
Cu1   O1    S    
C12   H27   S    
C9    H3    S    
C37   C40   A    
C24   O8    A    
C38   C39   A    
C11   H28   S    
C32   N2    A    
C2    O2    A    
C3    C55   A    
C43   C53   A    
C52   C54   A    
C49   C51   A    
Cu1   O8    S    
C50   C52   A    
C31   C33   A    
Cu2   O3    S    
C27   H11   S    
C8    C12   A    
C9    C11   A    
C48   C50   A    
C26   H24   S    
C1    C7    S    
C4    C56   A    
C25   H23   S    
C3    C24   S    
C10   H4    S    
C14   H25   S    
C52   H20   S    
C44   C46   A    
C7    C11   A    
C45   C47   A    
C31   H10   S    
C5    C48   S    
C46   C48   A    
C31   N1    A    
C6    C47   S    
C19   C22   A    
C4    C6    A    
C4    C23   S    
C41   H7    S    
C27   C35   A    
C33   C37   A    
C23   O5    A    
C51   C53   A    
C32   C34   A    
C44   H16   S    
Cu2   O7    S    
C51   H19   S    
C37   C38   A    
C24   O6    A    
C49   F3    S    
C55   H21   S    
C13   H26   S    
C16   C20   A    
C16   C18   A    
C2    O4    A    
C43   C45   A    
C10   C12   A    
Cu2   O2    S    
C32   H9    S    
C29   F2    S    
C9    C17   A    
C13   C15   A    
C14   C16   A    
C30   N2    A    
C15   C17   A    
C21   C25   A    
C8    C14   A    
C40   H14   S    
C34   C38   A    
C28   H12   S    
C3    C5    A    
C47   C49   A    
C50   F4    S    
C56   H22   S    
Cu1   N2    S    
C45   H17   S    
C17   C25   A    
C28   C30   A    
Cu2   O6    S    
Cu1   Cu2   S    
C10   C18   A    
C40   C42   A    
C33   C35   A    
C23   O7    A    
C34   C36   A    
C35   C41   A    
C21   H5    S    
C22   H6    S    
C44   C54   A    
C7    C13   A    
C20   C21   A    
C28   C36   A    
C1    O3    A    
C22   C26   A    
C2    C8    S    
C42   H8    S    
C39   H13   S    
Cu1   O5    S    
