data_mof_unit_8980.cif
_audit_creation_date              2012-12-10T21:00:43-0500
_audit_creation_method            fapswitch 2.2
_symmetry_space_group_name_H-M    P1
_symmetry_Int_Tables_number       1
_space_group_crystal_system       triclinic
_cell_length_a                    18.093555
_cell_length_b                    18.17132
_cell_length_c                    18.330849
_cell_angle_alpha                 119.923579
_cell_angle_beta                  90.049435
_cell_angle_gamma                 119.836193
_cell_volume                      4275.25475968

loop_
_atom_site_label
_atom_site_type_symbol
_atom_type_description
_atom_site_fract_x
_atom_site_fract_y
_atom_site_fract_z
_atom_type_partial_charge
C1    C     C_R   0.110433 0.220053 0.609875 0.787159
C2    C     C_R   0.889567 0.779946 0.390124 0.787163
C3    C     C_3   0.927294 0.401228 0.439792 -0.221048
C4    C     C_3   0.072715 0.598773 0.560202 -0.221057
C5    C     C_3   0.439915 0.965807 0.928440 -0.160390
C6    C     C_3   0.560085 0.034193 0.071560 -0.160386
C7    C     C_3   0.543859 0.037749 0.955111 -0.189958
C8    C     C_3   0.456140 0.962251 0.044889 -0.189961
C9    C     C_3   0.549408 0.102433 0.052498 0.058290
C10   C     C_3   0.450592 0.897566 0.947502 0.058287
C11   C     C_3   0.446120 0.031908 0.026540 -0.143237
C12   C     C_3   0.553880 0.968092 0.973460 -0.143233
C13   C     C_3   0.449328 0.528946 0.485755 -0.193444
C14   C     C_3   0.550672 0.471049 0.514244 -0.193436
C15   C     C_3   0.446287 0.432738 0.414309 -0.130301
C16   C     C_3   0.553714 0.567257 0.585691 -0.130254
C17   C     C_3   0.549950 0.499624 0.448592 0.070863
C18   C     C_3   0.450051 0.500371 0.551408 0.070840
C19   C     C_3   0.553767 0.595730 0.519047 -0.185135
C20   C     C_3   0.446234 0.404266 0.480953 -0.185158
C21   C     C_R   0.116921 0.172737 0.836625 -0.126700
C22   C     C_R   0.883080 0.827262 0.163375 -0.126706
C23   C     C_R   0.392952 0.781259 0.888338 0.757179
C24   C     C_R   0.607048 0.218741 0.111661 0.757179
C25   C     C_R   0.104806 0.127831 0.745688 -0.091327
C26   C     C_R   0.895196 0.872168 0.254312 -0.091322
C27   C     C_R   0.028682 0.098225 0.688857 0.153044
C28   C     C_R   0.971320 0.901775 0.311143 0.153042
C29   C     C_R   0.964105 0.112180 0.723603 -0.151887
C30   C     C_R   0.035897 0.887819 0.276397 -0.151891
C31   C     C_R   0.976087 0.156276 0.814438 -0.137912
C32   C     C_R   0.023915 0.843724 0.185562 -0.137903
C33   C     C_R   0.052618 0.186942 0.870970 -0.116681
C34   C     C_R   0.947384 0.813057 0.129030 -0.116686
C35   C     C_R   0.962088 0.943646 0.536389 -0.259092
C36   C     C_R   0.037914 0.056354 0.463612 -0.259091
C37   C     C_R   0.946056 0.892283 0.444522 -0.052603
C38   C     C_R   0.053944 0.107717 0.555478 -0.052601
C39   C     C_R   0.984319 0.949353 0.407404 -0.016664
C40   C     C_R   0.015682 0.050647 0.592596 -0.016665
C41   C     C_R   0.549283 0.448894 0.706347 -0.197863
C42   C     C_R   0.450629 0.551048 0.293611 -0.197825
C43   C     C_R   0.513469 0.444968 0.772781 -0.121687
C44   C     C_R   0.486459 0.555027 0.227198 -0.121859
C45   C     C_R   0.111993 0.501987 0.890798 0.787591
C46   C     C_R   0.888007 0.498013 0.109201 0.787591
C47   C     C_R   0.566504 0.522225 0.863162 0.123180
C48   C     C_R   0.433480 0.477723 0.136809 0.123204
C49   C     C_R   0.655820 0.603631 0.885782 -0.240442
C50   C     C_R   0.344208 0.396215 0.114153 -0.240304
C51   C     C_R   0.692161 0.608188 0.819273 0.286955
C52   C     C_R   0.307861 0.391592 0.180639 0.286918
C53   C     C_R   0.638449 0.529136 0.729318 -0.134981
C54   C     C_R   0.361507 0.470692 0.270605 -0.135006
C55   C     C_R   0.582609 0.516189 0.992971 -0.259648
C56   C     C_R   0.417384 0.483795 0.007022 -0.259654
C57   C     C_R   0.551180 0.502311 0.057697 -0.042182
C58   C     C_R   0.448817 0.497682 0.942300 -0.042181
C59   C     C_R   0.467947 0.486342 0.065876 0.008614
C60   C     C_R   0.532047 0.513641 0.934114 0.008661
C61   C     C_R   0.200057 0.833634 0.015395 -0.120997
C62   C     C_R   0.799926 0.166356 0.984582 -0.121011
C63   C     C_R   0.166002 0.748424 0.019696 -0.114463
C64   C     C_R   0.833989 0.251569 0.980286 -0.114491
C65   C     C_R   0.073893 0.666426 0.977009 0.154286
C66   C     C_R   0.926096 0.333567 0.022982 0.154305
C67   C     C_R   0.392567 0.499950 0.607907 0.767418
C68   C     C_R   0.607433 0.500048 0.392093 0.767432
C69   C     C_R   0.016273 0.671795 0.931461 -0.167527
C70   C     C_R   0.983710 0.328196 0.068535 -0.167536
C71   C     C_R   0.050608 0.757366 0.927713 -0.158944
C72   C     C_R   0.949367 0.242622 0.072279 -0.158932
C73   C     C_R   0.142502 0.838018 0.969309 -0.105984
C74   C     C_R   0.857474 0.161969 0.030674 -0.105953
C75   C     C_R   0.978862 0.572216 0.035778 -0.267903
C76   C     C_R   0.021136 0.427783 0.964221 -0.267901
C77   C     C_R   0.943087 0.495271 0.051337 -0.052008
C78   C     C_R   0.056911 0.504728 0.948662 -0.052007
C79   C     C_R   0.963782 0.421075 0.014224 -0.009036
C80   C     C_R   0.036215 0.578923 0.985773 -0.009034
C81   C     C_R   0.393750 0.498397 0.887123 0.789441
C82   C     C_R   0.606249 0.501606 0.112880 0.789478
C83   C     C_R   0.109477 0.500529 0.607781 0.789397
C84   C     C_R   0.890526 0.499473 0.392219 0.789392
C85   C     C_3   0.027028 0.442997 0.449420 0.308537
C86   C     C_3   0.972982 0.557006 0.550575 0.308538
C87   C     C_3   0.047465 0.539820 0.456920 -0.269966
C88   C     C_3   0.952543 0.460182 0.543075 -0.269961
C89   C     C_3   0.947871 0.499423 0.449124 -0.041453
C90   C     C_3   0.052137 0.500580 0.550872 -0.041457
H1    H     H_    0.085115 0.570435 0.419959 0.143301
H2    H     H_    0.914893 0.429567 0.580036 0.143310
H3    H     H_    0.062041 0.221519 0.941313 0.123214
H4    H     H_    0.937961 0.778480 0.058687 0.123198
H5    H     H_    0.176059 0.196360 0.880431 0.115676
H6    H     H_    0.823943 0.803638 0.119569 0.115694
H7    H     H_    0.154890 0.116953 0.719638 0.110151
H8    H     H_    0.845112 0.883047 0.280361 0.110152
H9    H     H_    0.904767 0.089004 0.680405 0.117548
H10   H     H_    0.095235 0.910996 0.319596 0.117548
H11   H     H_    0.926157 0.166890 0.841050 0.136715
H12   H     H_    0.073845 0.833109 0.158951 0.136713
H13   H     H_    0.932585 0.900450 0.565199 0.177165
H14   H     H_    0.067416 0.099550 0.434801 0.177166
H15   H     H_    0.666102 0.528603 0.676983 0.128102
H16   H     H_    0.333833 0.471161 0.322916 0.128118
H17   H     H_    0.508410 0.388406 0.636810 0.133731
H18   H     H_    0.491454 0.611574 0.363156 0.133732
H19   H     H_    0.445202 0.380369 0.753695 0.101474
H20   H     H_    0.554691 0.619696 0.246306 0.101523
H21   H     H_    0.697390 0.663125 0.955342 0.118609
H22   H     H_    0.302680 0.336684 0.044585 0.118608
H23   H     H_    0.645745 0.525422 0.986248 0.161880
H24   H     H_    0.354242 0.474548 0.013742 0.161891
H25   H     H_    0.168984 0.904318 0.966489 0.120258
H26   H     H_    0.830986 0.095666 0.033490 0.120262
H27   H     H_    0.270831 0.896854 0.048605 0.118383
H28   H     H_    0.729153 0.103135 0.951363 0.118381
H29   H     H_    0.211018 0.746523 0.056617 0.099833
H30   H     H_    0.788978 0.253473 0.943360 0.099838
H31   H     H_    0.944766 0.610202 0.899634 0.128472
H32   H     H_    0.055216 0.389790 0.100371 0.128436
H33   H     H_    0.005809 0.761589 0.893283 0.140932
H34   H     H_    0.994161 0.238396 0.106714 0.140903
H35   H     H_    0.963726 0.629535 0.064395 0.177411
H36   H     H_    0.036272 0.370463 0.935603 0.177410
H37   H     H_    0.868103 0.320642 0.389503 0.141793
H38   H     H_    0.131908 0.679359 0.610489 0.141787
H39   H     H_    0.579691 0.069752 0.918280 0.117561
H40   H     H_    0.420307 0.930247 0.081719 0.117561
H41   H     H_    0.389990 0.936714 0.868961 0.127844
H42   H     H_    0.610009 0.063286 0.131039 0.127846
H43   H     H_    0.401958 0.058761 0.048706 0.134617
H44   H     H_    0.598042 0.941239 0.951294 0.134625
H45   H     H_    0.403093 0.377155 0.343109 0.151716
H46   H     H_    0.596912 0.622834 0.656889 0.151735
H47   H     H_    0.407117 0.553673 0.476540 0.118969
H48   H     H_    0.592883 0.446319 0.523451 0.118955
H49   H     H_    0.598752 0.674102 0.533395 0.126894
H50   H     H_    0.401249 0.325894 0.466605 0.126891
O1    O     O_3   0.251620 0.500000 0.748430 -0.480215
O2    O     O_3   0.748380 0.500000 0.251570 -0.480216
O3    O     O_R   0.134680 0.560740 0.864590 -0.634076
O4    O     O_R   0.865320 0.439260 0.135410 -0.634075
O5    O     O_R   0.306670 0.439270 0.571150 -0.647637
O6    O     O_R   0.693330 0.560730 0.428850 -0.647645
O7    O     O_R   0.135450 0.268370 0.694460 -0.636712
O8    O     O_R   0.864550 0.731630 0.305540 -0.636712
O9    O     O_R   0.429670 0.731610 0.863510 -0.642942
O10   O     O_R   0.570330 0.268390 0.136490 -0.642946
O11   O     O_R   0.134680 0.268390 0.572240 -0.645856
O12   O     O_R   0.865320 0.731610 0.427760 -0.645856
O13   O     O_R   0.306670 0.731630 0.863510 -0.636844
O14   O     O_R   0.693330 0.268370 0.136490 -0.636838
O15   O     O_R   0.135450 0.439270 0.865360 -0.642224
O16   O     O_R   0.864550 0.560730 0.134640 -0.642225
O17   O     O_R   0.429670 0.560710 0.692610 -0.640626
O18   O     O_R   0.570330 0.439290 0.307390 -0.640617
O19   O     O_R   0.308540 0.439240 0.865360 -0.651445
O20   O     O_R   0.691460 0.560760 0.134640 -0.651447
O21   O     O_R   0.133580 0.439310 0.571150 -0.643454
O22   O     O_R   0.866420 0.560690 0.428850 -0.643460
O23   O     O_R   0.430770 0.560690 0.864590 -0.632574
O24   O     O_R   0.569230 0.439310 0.135410 -0.632564
O25   O     O_R   0.133580 0.560760 0.692610 -0.636290
O26   O     O_R   0.866420 0.439240 0.307390 -0.636291
Zn1   Zn    Zn3+2 0.207400 0.586780 0.791530 0.971447
Zn2   Zn    Zn3+2 0.792600 0.413220 0.208470 0.971450
Zn3   Zn    Zn3+2 0.208510 0.413230 0.792630 0.963013
Zn4   Zn    Zn3+2 0.791490 0.586770 0.207370 0.963018
Zn5   Zn    Zn3+2 0.383150 0.586740 0.791530 0.964918
Zn6   Zn    Zn3+2 0.616850 0.413260 0.208470 0.964932
Zn7   Zn    Zn3+2 0.207400 0.413250 0.618010 0.956610
Zn8   Zn    Zn3+2 0.792600 0.586750 0.381990 0.956605
N1    N     N_2   0.058844 0.381591 0.395343 -0.287005
H51   H     H_    0.128178 0.421993 0.417497 0.230602
C91   C     C_3   0.021908 0.328235 0.300343 -0.784800
H52   H     H_    0.047187 0.279990 0.264725 0.239916
H53   H     H_    0.043015 0.385123 0.283515 0.240683
H54   H     H_    0.947043 0.276318 0.277302 0.249640
N2    N     N_2   0.941177 0.618421 0.604662 -0.287024
H55   H     H_    0.871844 0.578029 0.582517 0.230590
C92   C     C_3   0.978125 0.671774 0.699660 -0.784766
H56   H     H_    0.952888 0.720062 0.735288 0.239876
H57   H     H_    0.052992 0.723651 0.722687 0.249635
H58   H     H_    0.956986 0.614883 0.716488 0.240727
N3    N     N_2   0.783956 0.688824 0.843181 -0.321462
H59   H     H_    0.821118 0.734317 0.909797 0.211363
C93   C     C_3   0.798818 0.749095 0.808079 -0.823350
H60   H     H_    0.872129 0.810521 0.832360 0.236828
H61   H     H_    0.762395 0.786549 0.830946 0.243803
H62   H     H_    0.776057 0.699611 0.734099 0.245836
N4    N     N_2   0.216123 0.310818 0.156702 -0.321493
H63   H     H_    0.178945 0.265352 0.090094 0.211371
C94   C     C_3   0.201457 0.250478 0.191684 -0.823247
H64   H     H_    0.128172 0.188998 0.167461 0.236925
H65   H     H_    0.224312 0.299897 0.265670 0.245796
H66   H     H_    0.237922 0.213092 0.168664 0.243760

loop_
_geom_bond_atom_site_label_1
_geom_bond_atom_site_label_2
_ccdc_geom_bond_type
O1    Zn7   S    
C63   C65   A    
C81   O19   A    
C87   H1    S    
C27   C29   A    
C76   H36   S    
C76   C79   A    
C6    C9    S    
C84   O22   A    
C46   O16   A    
O2    Zn8   S    
C4    C87   S    
N2    H55   S    
C66   C79   S    
C83   O25   A    
C82   O24   A    
C13   C18   S    
O4    Zn2   S    
O11   Zn7   S    
C31   H11   S    
C71   H33   S    
C35   C37   A    
C76   C78   A    
C5    C11   S    
C35   H13   S    
C11   H43   S    
C6    C12   S    
N3    C93   S    
C3    H37   S    
C57   C59   A    
C15   H45   S    
C58   C60   A    
C53   H15   S    
C30   H10   S    
O1    Zn5   S    
O21   Zn7   S    
N1    C91   S    
C61   C63   A    
O16   Zn4   S    
C69   C71   A    
C1    O7    A    
C70   H32   S    
C62   C64   A    
C5    C10   S    
C47   C60   S    
O10   Zn6   S    
C73   H25   S    
C88   H2    S    
C52   C54   A    
C91   H53   S    
C67   O5    A    
C86   N2    S    
O8    Zn4   S    
C31   C33   A    
C45   C78   S    
C45   O15   A    
C21   C33   A    
O23   Zn5   S    
C75   C80   A    
C41   C43   A    
C18   C20   S    
N4    H63   S    
O2    Zn4   S    
C94   H66   S    
O12   Zn8   S    
C48   C50   A    
C23   O9    A    
O25   Zn1   S    
C65   C80   S    
C12   H44   S    
C55   C60   A    
O13   Zn1   S    
O26   Zn2   S    
C81   O23   A    
C14   C17   S    
O14   Zn2   S    
C15   C20   S    
C42   C44   A    
C68   O18   A    
O1    Zn3   S    
C24   O14   A    
C4    C90   S    
C85   C87   S    
C2    O12   A    
C7    C12   S    
C22   C34   A    
O1    Zn1   S    
C7    H39   S    
C42   H18   S    
C4    H38   S    
C61   H27   S    
C14   H48   S    
C51   N3    S    
C72   C74   A    
C92   H58   S    
C5    C7    S    
C29   H9    S    
C17   C19   S    
C13   C19   S    
C6    C8    S    
C55   H23   S    
C28   C39   S    
C49   C51   A    
C18   C67   S    
C70   C72   A    
C51   C53   A    
C32   C34   A    
C93   H62   S    
C38   C40   A    
C92   H56   S    
C14   C20   S    
C37   C39   A    
C82   O20   A    
O15   Zn3   S    
C50   C52   A    
N1    H51   S    
C13   C15   S    
C69   H31   S    
C27   C40   S    
C24   O10   A    
C91   H54   S    
C74   H26   S    
C50   H22   S    
C77   C79   A    
C67   O17   A    
C55   C57   A    
C54   H16   S    
C9    C11   S    
O3    Zn1   S    
C10   C12   S    
C1    C38   S    
C26   H8    S    
C6    H42   S    
C13   H47   S    
O5    Zn7   S    
C43   H19   S    
C91   H52   S    
C23   O13   A    
C8    H40   S    
C72   H34   S    
C14   C16   S    
C3    C85   S    
O24   Zn6   S    
C84   C89   S    
C16   H46   S    
C78   C80   A    
C68   O6    A    
C48   C59   S    
O2    Zn6   S    
C25   H7    S    
C7    C9    S    
C83   C90   S    
C21   C25   A    
C58   C81   S    
C17   C68   S    
C56   H24   S    
O19   Zn3   S    
C3    C88   S    
O9    Zn5   S    
C22   H6    S    
C36   C39   A    
C52   N4    S    
C34   H4    S    
C88   C90   S    
C86   C89   S    
C33   H3    S    
C46   C77   S    
C46   O4    A    
C85   C90   S    
C9    C24   S    
C15   C17   S    
O22   Zn8   S    
C32   H12   S    
C10   C23   S    
C25   C27   A    
C21   H5    S    
C26   C28   A    
C64   H30   S    
C56   C59   A    
C49   H21   S    
C3    C89   S    
C61   C73   A    
C16   C18   S    
C20   H50   S    
C92   H57   S    
C35   C40   A    
C28   C30   A    
C29   C31   A    
C44   C48   A    
C44   H20   S    
C47   C49   A    
C42   C54   A    
C30   C32   A    
C2    C37   S    
O18   Zn6   S    
C36   H14   S    
C66   C70   A    
C43   C47   A    
C8    C11   S    
C65   C69   A    
O6    Zn8   S    
C36   C38   A    
C85   N1    S    
C56   C58   A    
C1    O11   A    
C86   C88   S    
C83   O21   A    
C93   H60   S    
C62   H28   S    
C84   O26   A    
O2    Zn2   S    
C94   H64   S    
C41   C53   A    
C41   H17   S    
C5    H41   S    
C4    C86   S    
C8    C10   S    
C63   H29   S    
C22   C26   A    
C75   C77   A    
C71   C73   A    
C45   O3    A    
C87   C89   S    
O20   Zn4   S    
C57   C82   S    
C62   C74   A    
N3    H59   S    
N4    C94   S    
C75   H35   S    
C2    O8    A    
C19   H49   S    
O17   Zn5   S    
O7    Zn3   S    
N2    C92   S    
C64   C66   A    
C93   H61   S    
C94   H65   S    
C16   C19   S    
