data_mof_unit_10983.cif
_audit_creation_date              2013-03-05T15:44:18-0500
_audit_creation_method            fapswitch 2.2
_symmetry_space_group_name_H-M    P1
_symmetry_Int_Tables_number       1
_space_group_crystal_system       triclinic
_cell_length_a                    20.74462
_cell_length_b                    7.081651
_cell_length_c                    16.69644
_cell_angle_alpha                 90.435824
_cell_angle_beta                  93.00945
_cell_angle_gamma                 90.162728
_cell_volume                      2449.34342256

loop_
_atom_site_label
_atom_site_type_symbol
_atom_site_description
_atom_site_fract_x
_atom_site_fract_y
_atom_site_fract_z
_atom_type_partial_charge
O1    O     O_R   0.564840 0.505290 0.579830 -0.558024
O2    O     O_R   0.435160 0.005290 0.420170 -0.554073
O3    O     O_R   0.556720 0.179930 0.409350 -0.564678
O4    O     O_R   0.443280 0.679930 0.590650 -0.564635
C1    C     C_R   0.570922 0.344910 0.382484 0.833942
C2    C     C_R   0.429131 0.845798 0.617645 0.834983
O5    O     O_R   0.572280 0.175810 0.578530 -0.562224
O6    O     O_R   0.427720 0.675810 0.421470 -0.566008
O7    O     O_R   0.450830 0.001920 0.590540 -0.550790
O8    O     O_R   0.549170 0.501920 0.409460 -0.549795
C3    C     C_R   0.590199 0.347031 0.604822 0.840342
C4    C     C_R   0.409937 0.845299 0.394969 0.841956
O9    O     O_3   0.460130 0.338030 0.503750 -0.273822
O10   O     O_3   0.539870 0.838030 0.496250 -0.272296
V1    V     V_3+5 0.507400 0.064560 0.499310 1.167251
V2    V     V_3+5 0.492600 0.564560 0.500690 1.164826
C5    C     C_R   0.139950 0.899911 0.172656 -0.112925
C6    C     C_R   0.860165 0.392898 0.827874 -0.095210
C7    C     C_R   0.356672 0.869494 0.332217 -0.144520
C8    C     C_R   0.644734 0.376723 0.665653 -0.156476
C9    C     C_R   0.305470 0.084593 0.231211 0.451972
C10   C     C_R   0.703614 0.603709 0.755067 0.412002
C11   C     C_R   0.359089 0.027634 0.281714 -0.158822
C12   C     C_R   0.649240 0.552532 0.706349 -0.122042
C13   C     C_R   0.300855 0.757806 0.328750 -0.112137
C14   C     C_R   0.695864 0.248950 0.676553 -0.110913
C15   C     C_R   0.247299 0.807662 0.277697 0.015479
C16   C     C_R   0.750991 0.298405 0.725684 0.031286
C17   C     C_R   0.248900 0.972652 0.229814 0.040014
C18   C     C_R   0.755381 0.477496 0.764584 0.047628
C19   C     C_R   0.194013 0.020295 0.179702 0.000133
C20   C     C_R   0.810646 0.524902 0.814000 -0.023177
C21   C     C_R   0.139301 0.738929 0.221744 -0.082277
C22   C     C_R   0.855941 0.218480 0.786164 -0.074626
C23   C     C_R   0.191756 0.694619 0.274009 -0.020002
C24   C     C_R   0.802335 0.172159 0.735809 -0.011647
H1    H     H_    0.194394 0.146046 0.143515 0.182452
H2    H     H_    0.813709 0.660172 0.844631 0.153061
H3    H     H_    0.098222 0.643822 0.218535 0.076321
H4    H     H_    0.893750 0.114026 0.794045 0.080405
H5    H     H_    0.189454 0.568502 0.310132 0.088770
H6    H     H_    0.800536 0.035522 0.706073 0.106180
H7    H     H_    0.403531 0.107771 0.284197 0.062596
H8    H     H_    0.611046 0.655856 0.698559 0.097519
H9    H     H_    0.298312 0.636035 0.367427 0.108083
H10   H     H_    0.693700 0.114307 0.645185 0.120373
C25   C     C_R   0.387580 0.962288 0.826469 -0.012255
C26   C     C_R   0.610981 0.420135 0.170290 -0.011483
H11   H     H_    0.474742 0.933012 0.764942 0.053540
H12   H     H_    0.524178 0.392382 0.232761 0.043516
H13   H     H_    0.414661 0.998053 0.881649 0.126341
H14   H     H_    0.583442 0.435695 0.113939 0.131679
C27   C     C_R   0.391048 0.862391 0.688829 -0.087250
C28   C     C_R   0.608841 0.357073 0.311231 -0.083853
C29   C     C_R   0.080301 0.870260 0.738634 -0.168243
C30   C     C_R   0.919202 0.396343 0.261441 -0.167819
C31   C     C_R   0.112462 0.874363 0.667994 -0.065045
C32   C     C_R   0.886654 0.411752 0.331518 -0.064821
C33   C     C_R   0.179050 0.905842 0.668566 0.371269
C34   C     C_R   0.819659 0.433798 0.329597 0.370935
C35   C     C_R   0.216228 0.912486 0.743048 -0.063009
C36   C     C_R   0.782742 0.417176 0.255141 -0.062037
C37   C     C_R   0.182177 0.926892 0.815758 -0.138793
C38   C     C_R   0.816826 0.419201 0.182249 -0.140258
C39   C     C_R   0.285770 0.907671 0.747958 0.025264
C40   C     C_R   0.713386 0.401743 0.250455 0.021707
C41   C     C_R   0.319524 0.957353 0.821435 -0.069000
C42   C     C_R   0.679075 0.427283 0.175409 -0.068540
C43   C     C_R   0.285416 0.994329 0.889952 0.312388
C44   C     C_R   0.712747 0.452606 0.105761 0.321189
C45   C     C_R   0.218494 0.965842 0.888375 0.300769
C46   C     C_R   0.780190 0.435877 0.108380 0.297290
C47   C     C_R   0.323368 0.848648 0.683361 -0.014157
C48   C     C_R   0.676609 0.354497 0.317126 -0.010925
C49   C     C_R   0.422592 0.920461 0.760328 -0.106220
C50   C     C_R   0.576483 0.390804 0.237851 -0.107520
C51   C     C_R   0.112952 0.905166 0.812478 -0.071936
C52   C     C_R   0.886358 0.409321 0.186622 -0.071130
H15   H     H_    0.301479 0.791283 0.628408 0.110847
H16   H     H_    0.699210 0.313359 0.373933 0.110050
H17   H     H_    0.028362 0.850738 0.735111 0.071185
H18   H     H_    0.971422 0.386403 0.265774 0.070680
H19   H     H_    0.084305 0.864364 0.611625 0.123567
H20   H     H_    0.914667 0.419297 0.388053 0.123298
O11   O     O_R   0.950790 0.256670 0.090520 -0.554899
O12   O     O_R   0.049210 0.756670 0.909480 -0.557237
O13   O     O_R   0.927720 0.590370 0.921470 -0.544036
O14   O     O_R   0.072280 0.090370 0.078530 -0.541164
C53   C     C_R   0.912550 0.419626 0.891902 0.901528
C54   C     C_R   0.087667 0.921316 0.108050 0.901212
O15   O     O_R   0.943270 0.586180 0.090640 -0.551845
O16   O     O_R   0.056730 0.086180 0.909360 -0.547541
O17   O     O_R   0.064850 0.759970 0.079840 -0.545913
O18   O     O_R   0.935150 0.259970 0.920160 -0.547352
C55   C     C_R   0.928131 0.417487 0.116759 0.885187
C56   C     C_R   0.071441 0.916799 0.882712 0.882557
O19   O     O_3   0.039850 0.428050 0.996240 -0.267012
O20   O     O_3   0.960150 0.928050 0.003760 -0.270356
V3    V     V_3+5 0.992610 0.701540 0.000700 1.222858
V4    V     V_3+5 0.007390 0.201540 0.999300 1.228232
N1    N     N_R   0.205510 0.958375 0.594075 0.063731
O21   O     O_R   0.240783 0.110136 0.590634 -0.365196
O22   O     O_R   0.185961 0.874138 0.527581 -0.373684
N2    N     N_R   0.792130 0.501109 0.401614 0.064153
O23   O     O_R   0.754737 0.648486 0.399051 -0.364158
O24   O     O_R   0.812556 0.436202 0.471095 -0.371692
N3    N     N_R   0.188432 0.978068 0.962495 0.067339
O25   O     O_R   0.181521 0.143624 0.995070 -0.340479
O26   O     O_R   0.187475 0.827533 0.006480 -0.373302
N4    N     N_R   0.810491 0.441062 0.034212 0.065618
O27   O     O_R   0.813034 0.601310 0.997030 -0.368254
O28   O     O_R   0.815357 0.283858 0.994274 -0.361276
O29   O     O_3   0.304867 0.245257 0.182388 -0.627049
C57   C     C_3   0.361972 0.354819 0.189270 0.284138
H21   H     H_    0.403332 0.271323 0.168166 0.065836
H22   H     H_    0.371465 0.403863 0.252383 0.019658
C58   C     C_3   0.354328 0.529823 0.136704 -0.112220
H23   H     H_    0.342271 0.486828 0.073610 0.209820
H24   H     H_    0.314146 0.617812 0.157371 0.141129
C59   C     C_3   0.416433 0.646730 0.140208 -0.481209
H25   H     H_    0.429989 0.689540 0.202992 0.118657
H26   H     H_    0.409494 0.775950 0.103740 0.203596
H27   H     H_    0.456440 0.563686 0.115882 0.142533
O30   O     O_3   0.708830 0.785133 0.786346 -0.681485
C60   C     C_3   0.666219 0.809990 0.849038 0.287101
H28   H     H_    0.695704 0.816746 0.906472 0.171487
H29   H     H_    0.629970 0.694085 0.854049 0.073836
C61   C     C_3   0.630401 0.996911 0.837398 -0.222867
H30   H     H_    0.665883 0.114807 0.838385 0.177090
H31   H     H_    0.603328 0.995583 0.778142 0.106731
C62   C     C_3   0.583229 0.030412 0.903162 -0.390238
H32   H     H_    0.546485 0.915930 0.902540 0.129024
H33   H     H_    0.558162 0.167125 0.892888 0.151602
H34   H     H_    0.609434 0.035514 0.962898 0.194929
N5    N     N_R   0.318888 0.057571 0.962947 0.104050
O31   O     O_R   0.349986 0.217441 0.964645 -0.387257
O32   O     O_R   0.316334 0.960020 0.028385 -0.336172
N6    N     N_R   0.678356 0.494361 0.030943 0.088928
O33   O     O_R   0.642668 0.644871 0.024770 -0.423472
O34   O     O_R   0.682866 0.383803 0.968929 -0.362880

loop_
_geom_bond_atom_site_label_1
_geom_bond_atom_site_label_2
_geom_bond_distance
_ccdc_geom_bond_type
C40   C42   1.421213 A    
N1    O21   1.301776 A    
C45   N3    1.416887 S    
C15   C17   1.422047 A    
C26   C50   1.383906 A    
C24   H6    1.083839 S    
O1    C3    1.301657 A    
C62   H34   1.110856 S    
O2    C4    1.304132 A    
C61   H30   1.110915 S    
C2    O7    1.286848 A    
N2    O24   1.301610 A    
C57   H21   1.114170 S    
C39   C47   1.424633 A    
N5    O31   1.300841 A    
O5    C3    1.331657 A    
C21   H3    1.083544 S    
C22   H4    1.083318 S    
C32   H20   1.083068 S    
C58   H24   1.109985 S    
C29   C51   1.395265 A    
C31   C33   1.398119 A    
C32   C34   1.397681 A    
C40   C48   1.423570 A    
O16   C56   1.318375 A    
C30   C52   1.394959 A    
C34   C36   1.429366 A    
C53   O18   1.307139 A    
C43   C45   1.401141 A    
N4    O27   1.299931 A    
C36   C38   1.439405 A    
C28   C48   1.404272 A    
C8    C12   1.414316 A    
C39   C41   1.421598 A    
C60   C61   1.528534 S    
N3    O25   1.300138 A    
C31   H19   1.083055 S    
C20   H2    1.082597 S    
C29   H17   1.084363 S    
O17   V3    1.985753 S    
C59   H27   1.110905 S    
O3    C1    1.293409 A    
O5    V1    1.993206 S    
C43   N5    1.438454 S    
O6    V2    2.004150 S    
C48   H16   1.078237 S    
N3    O26   1.299799 A    
C27   C49   1.389750 A    
C5    C21   1.409554 A    
C7    C13   1.398820 A    
C25   C41   1.410208 A    
N2    O23   1.301763 A    
O19   V3    2.175590 S    
C59   H26   1.108538 S    
O13   V3    1.993222 S    
C46   N4    1.418542 S    
C3    C8    1.493457 S    
C33   C35   1.428886 A    
C36   C40   1.440574 A    
C33   N1    1.436715 S    
C1    C28   1.463197 S    
C9    O29   1.404379 S    
C58   C59   1.527729 S    
C25   H13   1.081610 S    
C6    C53   1.494447 S    
C15   C23   1.399566 A    
C9    C17   1.413393 A    
C19   H1    1.080182 S    
C41   C43   1.399782 A    
O4    V2    2.029230 S    
C7    C11   1.409327 A    
O2    V1    1.986957 S    
H12   C50   1.084020 S    
O18   V4    1.991707 S    
C52   C55   1.490576 S    
O6    C4    1.328891 A    
H11   C49   1.083881 S    
C47   H15   1.078243 S    
O1    V2    1.992994 S    
C26   C42   1.411418 A    
C30   H18   1.084432 S    
O12   V3    2.011202 S    
C6    C22   1.413581 A    
O14   V4    2.004161 S    
O12   C56   1.313285 A    
C28   C50   1.388425 A    
O4    C2    1.294925 A    
C37   C45   1.418278 A    
C44   N6    1.438797 S    
O20   V4    2.171639 S    
C9    C11   1.421327 A    
C60   H28   1.110637 S    
C5    C19   1.406266 A    
C10   C12   1.400763 A    
C6    C20   1.402334 A    
C2    C27   1.465423 S    
C62   H32   1.110825 S    
C61   C62   1.526346 S    
C13   H9    1.084069 S    
O19   V4    1.740054 S    
O3    V1    2.036076 S    
C59   H25   1.110666 S    
O16   V4    2.029170 S    
C54   O17   1.310248 A    
O29   C57   1.413388 S    
C37   C51   1.441966 A    
N5    O32   1.300430 A    
C10   C18   1.402515 A    
C11   H7    1.079992 S    
C38   C52   1.442344 A    
C35   C37   1.439339 A    
C27   C47   1.405231 A    
C5    C54   1.497829 S    
O14   C54   1.331423 A    
C62   H33   1.110479 S    
C61   H31   1.111676 S    
C57   H22   1.114486 S    
C10   O30   1.384988 S    
N6    O34   1.300795 A    
C13   C15   1.411728 A    
C51   C56   1.492786 S    
C14   C16   1.413582 A    
N1    O22   1.301604 A    
C29   C31   1.385658 A    
O7    V1    2.022162 S    
C25   C49   1.383922 A    
C1    O8    1.288163 A    
C17   C19   1.420138 A    
O11   V4    2.007996 S    
O8    V2    2.018534 S    
C58   H23   1.109976 S    
C18   C20   1.414941 A    
O11   C55   1.314121 A    
C8    C14   1.401641 A    
C12   H8    1.083517 S    
C4    C7    1.493427 S    
C16   C18   1.420994 A    
C21   C23   1.396585 A    
C30   C32   1.385000 A    
C22   C24   1.395231 A    
C38   C46   1.420217 A    
C23   H5    1.083816 S    
N4    O28   1.300230 A    
C57   C58   1.527870 S    
N6    O33   1.301115 A    
C14   H10   1.084051 S    
O15   C55   1.317614 A    
C35   C39   1.441172 A    
C26   H14   1.081304 S    
C16   C24   1.396826 A    
C42   C44   1.400045 A    
O20   V3    1.742861 S    
O9    V2    1.740265 S    
C60   H29   1.118178 S    
O13   C53   1.333133 A    
O10   V1    1.743073 S    
C44   C46   1.402838 A    
O15   V3    2.036015 S    
C34   N2    1.436699 S    
O30   C60   1.415346 S    
