data_mof_unit_67701.cif
_audit_creation_date              2012-12-10T19:48:31-0500
_audit_creation_method            fapswitch 2.2
_symmetry_space_group_name_H-M    P1
_symmetry_Int_Tables_number       1
_space_group_crystal_system       triclinic
_cell_length_a                    10.851739
_cell_length_b                    10.65714
_cell_length_c                    9.44987
_cell_angle_alpha                 90.152953
_cell_angle_beta                  91.558325
_cell_angle_gamma                 88.539596
_cell_volume                      1092.10213039

loop_
_atom_site_label
_atom_site_type_symbol
_atom_type_description
_atom_site_fract_x
_atom_site_fract_y
_atom_site_fract_z
_atom_type_partial_charge
C1    C     C_R   0.502749 0.259341 0.499974 0.782339
C2    C     C_R   0.499303 0.740588 0.500027 0.774941
C3    C     C_R   0.871732 0.500581 0.504078 -0.083568
C4    C     C_R   0.128838 0.506517 0.496161 -0.075852
C5    C     C_R   0.944908 0.428839 0.600581 0.025032
C6    C     C_R   0.056321 0.580200 0.400681 0.035359
C7    C     C_3   0.532221 0.040073 0.630850 -0.148492
C8    C     C_3   0.472970 0.959500 0.368755 -0.151669
C9    C     C_3   0.614316 0.953403 0.539400 -0.167151
C10   C     C_3   0.390714 0.046125 0.460144 -0.166022
C11   C     C_3   0.500351 0.877652 0.499743 0.048284
C12   C     C_3   0.504463 0.122069 0.499997 0.033181
C13   C     C_3   0.418111 0.962104 0.591044 -0.160169
C14   C     C_3   0.586888 0.037688 0.408562 -0.181052
C15   C     C_3   0.440015 0.597784 0.049839 -0.226341
C16   C     C_3   0.559027 0.401120 0.950358 -0.224384
C17   C     C_3   0.388080 0.499176 0.945904 -0.143793
C18   C     C_3   0.611562 0.500369 0.054287 -0.164320
C19   C     C_3   0.551109 0.596909 0.953788 0.608313
C20   C     C_3   0.447960 0.402562 0.047452 0.630217
C21   C     C_R   0.262634 0.504861 0.498252 0.784203
C22   C     C_R   0.737639 0.498231 0.501684 0.786741
C23   C     C_R   0.163575 0.873019 0.219888 -0.142514
C24   C     C_R   0.871386 0.135922 0.799635 -0.159633
C25   C     C_R   0.131454 0.790646 0.327837 0.186583
C26   C     C_R   0.889872 0.215848 0.685231 0.176337
C27   C     C_R   0.109122 0.663669 0.294478 0.095854
C28   C     C_R   0.894533 0.346883 0.708925 0.104076
C29   C     C_R   0.121452 0.620458 0.154169 0.187132
C30   C     C_R   0.877813 0.395718 0.846354 0.190331
C31   C     C_R   0.149597 0.705607 0.047481 -0.158858
C32   C     C_R   0.858493 0.313261 0.958434 -0.163299
C33   C     C_R   0.171259 0.830788 0.080508 -0.257695
C34   C     C_R   0.856079 0.184615 0.935274 -0.240731
C35   C     C_R   0.928203 0.575544 0.404796 -0.253218
C36   C     C_R   0.072451 0.432541 0.595529 -0.239652
Cu1   Cu    Cu3+1 0.500030 0.499990 0.643150 0.964926
Cu2   Cu    Cu3+1 0.499970 0.500010 0.356850 0.965469
H1    H     H_    0.195172 0.894843 0.997634 0.154314
H2    H     H_    0.843737 0.123238 0.024079 0.161483
H3    H     H_    0.295441 0.495343 0.894453 0.138680
H4    H     H_    0.703639 0.506752 0.106373 0.140869
H5    H     H_    0.393398 0.680506 0.097805 0.148217
H6    H     H_    0.607024 0.319063 0.902326 0.147266
H7    H     H_    0.180635 0.970701 0.242859 0.135183
H8    H     H_    0.872469 0.035424 0.783701 0.146753
H9    H     H_    0.157527 0.674928 0.938795 0.138131
H10   H     H_    0.846784 0.347626 0.064982 0.135227
H11   H     H_    0.872303 0.631880 0.330771 0.148555
H12   H     H_    0.128225 0.375773 0.669315 0.152225
H13   H     H_    0.705407 0.911609 0.572071 0.120054
H14   H     H_    0.300015 0.088782 0.427651 0.121724
H15   H     H_    0.559122 0.075357 0.737580 0.123105
H16   H     H_    0.448444 0.923117 0.261742 0.116551
H17   H     H_    0.349097 0.928251 0.665647 0.127825
H18   H     H_    0.655611 0.071324 0.333400 0.127917
N1    N     N_3   0.500090 0.499970 0.858290 -0.194217
N2    N     N_3   0.499910 0.500030 0.141710 -0.198132
O1    O     O_R   0.500060 0.316850 0.620870 -0.602315
O2    O     O_R   0.499940 0.683150 0.379130 -0.598161
O3    O     O_R   0.500000 0.316860 0.379090 -0.546953
O4    O     O_R   0.500000 0.683140 0.620910 -0.543403
O5    O     O_R   0.319670 0.500010 0.620890 -0.598583
O6    O     O_R   0.680330 0.499990 0.379110 -0.596904
O7    O     O_R   0.319620 0.500010 0.379110 -0.556754
O8    O     O_R   0.680380 0.499990 0.620890 -0.562179
O9    O     O_3   0.613532 0.699242 0.897998 -0.584744
C37   C     C_3   0.594456 0.807065 0.982789 0.030468
H19   H     H_    0.589758 0.785676 0.098091 0.142820
H20   H     H_    0.506547 0.854821 0.947797 0.106038
C38   C     C_3   0.699880 0.896581 0.963313 -0.348336
H21   H     H_    0.723566 0.898125 0.849830 0.229858
H22   H     H_    0.668996 0.992611 0.994579 0.157339
C39   C     C_3   0.813566 0.857641 0.053654 -0.818222
H23   H     H_    0.796567 0.875827 0.167387 0.232975
H24   H     H_    0.894687 0.911077 0.022094 0.240335
H25   H     H_    0.836011 0.756820 0.039596 0.272484
O10   O     O_3   0.378673 0.307105 0.108418 -0.582545
C40   C     C_3   0.413660 0.186946 0.058487 0.063347
H26   H     H_    0.515481 0.173355 0.053886 0.076487
H27   H     H_    0.383284 0.117466 0.136568 0.161490
C41   C     C_3   0.350793 0.156755 0.915495 -0.433614
H28   H     H_    0.386330 0.217868 0.831942 0.235114
H29   H     H_    0.374017 0.057752 0.888128 0.169339
C42   C     C_3   0.210656 0.172894 0.918269 -0.748725
H30   H     H_    0.173068 0.122533 0.009599 0.242667
H31   H     H_    0.169064 0.134920 0.818884 0.226132
H32   H     H_    0.184355 0.273675 0.925529 0.260132
C43   C     C_3   0.119002 0.838858 0.476799 -0.916883
H33   H     H_    0.022800 0.828347 0.511234 0.241649
H34   H     H_    0.182685 0.784962 0.549264 0.225630
H35   H     H_    0.141861 0.939381 0.485207 0.224398
C44   C     C_3   0.912079 0.157598 0.542379 -0.924888
H36   H     H_    0.002535 0.106839 0.545379 0.235888
H37   H     H_    0.838894 0.090117 0.516209 0.232735
H38   H     H_    0.911650 0.227685 0.455856 0.239743
C45   C     C_3   0.105666 0.483912 0.119073 -0.863267
H39   H     H_    0.177762 0.426243 0.174966 0.289279
H40   H     H_    0.014809 0.453033 0.153808 0.227034
H41   H     H_    0.112107 0.465962 0.004276 0.221781
C46   C     C_3   0.886251 0.534450 0.874811 -0.858487
H42   H     H_    0.812189 0.586854 0.816023 0.291280
H43   H     H_    0.877928 0.555492 0.988711 0.219764
H44   H     H_    0.976056 0.569210 0.840523 0.226126

loop_
_geom_bond_atom_site_label_1
_geom_bond_atom_site_label_2
_ccdc_geom_bond_type
C14   H18   S    
C4    C36   A    
C44   H36   S    
C23   H7    S    
C27   C29   A    
C9    H13   S    
C10   H14   S    
Cu1   O4    S    
C42   H30   S    
C19   N1    S    
C15   C19   S    
C33   H1    S    
C39   H24   S    
C34   H2    S    
C24   C26   A    
C18   H4    S    
C2    O2    A    
C5    C36   A    
C17   C20   S    
C6    C35   A    
C15   C17   S    
C18   C19   S    
C22   O8    A    
Cu1   O5    S    
Cu2   N2    S    
C18   N2    S    
C37   H19   S    
C23   C33   A    
C39   H25   S    
C35   H11   S    
C31   C33   A    
C19   O9    S    
C43   H34   S    
C16   H6    S    
Cu2   O3    S    
C26   C44   S    
C44   H37   S    
C31   H9    S    
C32   H10   S    
C1    C12   S    
C2    C11   S    
C45   H40   S    
C45   H39   S    
Cu2   O6    S    
C42   H31   S    
C7    C12   S    
C39   H23   S    
C8    C11   S    
O9    C37   S    
C46   H42   S    
C4    C6    A    
C8    H16   S    
C40   H27   S    
O10   C40   S    
C24   C34   A    
C32   C34   A    
C9    C14   S    
Cu1   Cu2   S    
C40   C41   S    
C5    C28   S    
C6    C27   S    
Cu2   O7    S    
C3    C35   A    
C16   C20   S    
Cu1   O8    S    
C43   H35   S    
C9    C11   S    
Cu1   O1    S    
C10   C12   S    
Cu2   O2    S    
C16   C18   S    
C12   C14   S    
C44   H38   S    
C41   H29   S    
C15   N2    S    
C25   C27   A    
C7    H15   S    
C20   N2    S    
C45   H41   S    
C36   H12   S    
C38   H22   S    
C46   H43   S    
C42   H32   S    
C7    C9    S    
C8    C14   S    
C21   O7    A    
C25   C43   S    
C3    C5    A    
C10   C13   S    
C1    O3    A    
C38   C39   S    
C29   C45   S    
C46   H44   S    
C41   C42   S    
C26   C28   A    
C20   O10   S    
C24   H8    S    
C1    O1    A    
C15   H5    S    
C38   H21   S    
C29   C31   A    
C30   C32   A    
C4    C21   S    
C11   C13   S    
C37   C38   S    
C30   C46   S    
C28   C30   A    
C16   N1    S    
C23   C25   A    
C17   H3    S    
C21   O5    A    
C22   O6    A    
C40   H26   S    
C7    C13   S    
C8    C10   S    
C41   H28   S    
C37   H20   S    
C3    C22   S    
C43   H33   S    
Cu1   N1    S    
C2    O4    A    
C17   N1    S    
C13   H17   S    
