data_mof_unit_44687.cif
_audit_creation_date              2013-03-05T16:40:15-0500
_audit_creation_method            fapswitch 2.2
_symmetry_space_group_name_H-M    P1
_symmetry_Int_Tables_number       1
_space_group_crystal_system       triclinic
_cell_length_a                    18.607955
_cell_length_b                    18.726508
_cell_length_c                    8.89295
_cell_angle_alpha                 90.020151
_cell_angle_beta                  91.599704
_cell_angle_gamma                 91.483689
_cell_volume                      3096.60723607

loop_
_atom_site_label
_atom_site_type_symbol
_atom_site_description
_atom_site_fract_x
_atom_site_fract_y
_atom_site_fract_z
_atom_type_partial_charge
O1    O     O_R   0.398180 0.560840 0.499960 -0.602886
O2    O     O_R   0.601820 0.439160 0.500040 -0.561552
O3    O     O_R   0.601820 0.560840 0.500040 -0.592276
O4    O     O_R   0.398180 0.439160 0.499960 -0.576012
C1    C     C_R   0.364223 0.498905 0.504294 0.933230
C2    C     C_R   0.635072 0.501062 0.493429 1.069196
O5    O     O_R   0.500000 0.560800 0.285330 -0.546414
O6    O     O_R   0.500000 0.439200 0.714670 -0.628809
O7    O     O_R   0.500000 0.560800 0.714670 -0.581361
O8    O     O_R   0.500000 0.439200 0.285330 -0.632822
C3    C     C_R   0.499721 0.499980 0.218896 0.979314
C4    C     C_R   0.500231 0.500013 0.781103 0.924655
Zn1   Zn    Zn3+2 0.500000 0.581210 0.500000 1.061294
Zn2   Zn    Zn3+2 0.500000 0.418790 0.500000 1.034125
C5    C     C_1   0.499933 0.499953 0.065474 -0.126579
C6    C     C_1   0.500121 0.499985 0.934544 -0.141817
C7    C     C_R   0.763116 0.466969 0.517995 0.254365
C8    C     C_R   0.246903 0.556177 0.553577 0.252207
C9    C     C_R   0.245060 0.436997 0.446769 0.282040
C10   C     C_R   0.723403 0.544285 0.311500 0.201997
C11   C     C_R   0.834647 0.474188 0.468890 0.308988
C12   C     C_R   0.174166 0.563049 0.508285 0.450393
C13   C     C_R   0.172766 0.444852 0.400579 0.437186
C14   C     C_R   0.794540 0.550823 0.261564 0.366139
C15   C     C_R   0.849162 0.515357 0.340130 0.089643
C16   C     C_R   0.142258 0.513622 0.403166 -0.057913
C17   C     C_R   0.709069 0.504998 0.443204 -0.226248
C18   C     C_R   0.284824 0.496766 0.503737 -0.372654
C19   C     C_R   0.960102 0.591981 0.326338 0.268560
C20   C     C_R   0.036657 0.475932 0.228244 0.331683
C21   C     C_R   0.036375 0.593886 0.331953 0.344535
C22   C     C_R   0.961043 0.469946 0.234028 0.297629
C23   C     C_R   0.072402 0.528673 0.317976 0.025699
C24   C     C_R   0.924163 0.526322 0.297162 0.073339
C25   C     C_R   0.562513 0.728430 0.529724 0.039186
C26   C     C_R   0.484170 0.272183 0.370553 0.027379
C27   C     C_R   0.438036 0.725940 0.468679 0.032065
C28   C     C_R   0.516203 0.273417 0.629733 0.017110
C29   C     C_R   0.565617 0.803472 0.505779 -0.190756
C30   C     C_R   0.495210 0.197417 0.364659 -0.182937
C31   C     C_R   0.435288 0.800493 0.496657 -0.197040
C32   C     C_R   0.505173 0.198132 0.636772 -0.183842
C33   C     C_R   0.500550 0.841586 0.501929 0.112706
C34   C     C_R   0.500206 0.158230 0.500998 0.111108
N1    N     N_R   0.500000 0.689440 0.500000 -0.089801
N2    N     N_R   0.500000 0.310560 0.500000 -0.100403
C35   C     C_R   0.456260 0.961460 0.398404 0.463753
C36   C     C_R   0.552042 0.038560 0.588649 0.467802
C37   C     C_R   0.544845 0.963967 0.605028 0.468792
C38   C     C_R   0.448716 0.035621 0.414636 0.466973
C39   C     C_R   0.500311 0.076703 0.501509 -0.236880
C40   C     C_R   0.500607 0.923105 0.501800 -0.235142
O9    O     O_3   0.744434 0.424067 0.637780 -0.689812
H1    H     H_    0.778372 0.384287 0.645428 0.370165
O10   O     O_3   0.278429 0.606799 0.649411 -0.762177
H2    H     H_    0.318364 0.584768 0.707279 0.350883
O11   O     O_3   0.275171 0.370916 0.434233 -0.682412
H3    H     H_    0.299331 0.360636 0.532327 0.358491
O12   O     O_3   0.666381 0.573145 0.231463 -0.755584
H4    H     H_    0.677642 0.574134 0.123286 0.362957
O13   O     O_3   0.891927 0.444862 0.547178 -0.725840
H5    H     H_    0.879876 0.440468 0.654561 0.363999
O14   O     O_3   0.131308 0.611317 0.578979 -0.698779
H6    H     H_    0.159834 0.640386 0.653185 0.398188
O15   O     O_3   0.129088 0.385466 0.369077 -0.679558
H7    H     H_    0.156411 0.341012 0.378888 0.396651
O16   O     O_3   0.812809 0.592435 0.139394 -0.708526
H8    H     H_    0.778533 0.631846 0.129408 0.365027
O17   O     O_3   0.919937 0.650913 0.356659 -0.717167
H9    H     H_    0.942230 0.692734 0.306351 0.358415
O18   O     O_3   0.075748 0.435362 0.131464 -0.677808
H10   H     H_    0.042940 0.415150 0.051829 0.354870
O19   O     O_3   0.076300 0.657008 0.342472 -0.686817
H11   H     H_    0.048285 0.693453 0.393787 0.371738
O20   O     O_3   0.922566 0.409809 0.185352 -0.710638
H12   H     H_    0.955599 0.369267 0.180842 0.371183
C41   C     C_2   0.626434 0.693578 0.593129 0.475892
H13   H     H_    0.677324 0.697406 0.536635 0.046560
O21   O     O_2   0.623185 0.662148 0.713064 -0.528393
C42   C     C_2   0.452535 0.307169 0.237224 0.490829
H14   H     H_    0.477605 0.303253 0.129025 -0.017688
O22   O     O_2   0.396141 0.338492 0.246201 -0.482453
C43   C     C_2   0.375978 0.690154 0.391379 0.480986
H15   H     H_    0.322063 0.695448 0.432208 0.082480
O23   O     O_2   0.384413 0.656477 0.275978 -0.523399
C44   C     C_2   0.549220 0.310301 0.761426 0.491216
H16   H     H_    0.524860 0.306014 0.870504 -0.014388
O24   O     O_2   0.605966 0.343722 0.750002 -0.484329
C45   C     C_2   0.636560 0.840421 0.485271 0.489860
H17   H     H_    0.684726 0.821503 0.541994 0.068506
O25   O     O_2   0.642331 0.891241 0.400079 -0.502430
C46   C     C_2   0.500389 0.161477 0.216127 0.474314
H18   H     H_    0.467948 0.178549 0.120337 0.063011
O26   O     O_2   0.542475 0.113410 0.198597 -0.497991
C47   C     C_2   0.364648 0.834106 0.519007 0.503285
H19   H     H_    0.316279 0.814143 0.460956 0.069780
O27   O     O_2   0.359422 0.883640 0.607031 -0.501217
C48   C     C_2   0.500052 0.162483 0.785862 0.471587
H20   H     H_    0.532134 0.181874 0.881624 0.060883
O28   O     O_2   0.458343 0.111997 0.803930 -0.499020
O29   O     O_3   0.417136 0.928330 0.282736 -0.660653
H21   H     H_    0.441116 0.883733 0.255587 0.340923
O30   O     O_3   0.609258 0.072180 0.664294 -0.658717
H22   H     H_    0.620517 0.117983 0.613493 0.340168
O31   O     O_3   0.584214 0.933069 0.720556 -0.658960
H23   H     H_    0.560712 0.886950 0.747268 0.341147
O32   O     O_3   0.391352 0.065986 0.338935 -0.658648
H24   H     H_    0.379931 0.111226 0.389565 0.340463

loop_
_geom_bond_atom_site_label_1
_geom_bond_atom_site_label_2
_geom_bond_distance
_ccdc_geom_bond_type
Zn1   N1    2.026768 S    
O10   H2    0.990914 S    
O29   H21   0.989975 S    
C35   O29   1.381064 S    
O19   H11   0.988575 S    
C25   C29   1.421336 A    
C47   H19   1.082981 S    
O3    C2    1.295110 A    
C22   O20   1.381601 S    
C20   O18   1.382083 S    
Zn2   N2    2.026768 S    
C41   H13   1.085059 S    
C9    O11   1.377320 S    
O5    C3    1.282699 A    
C28   C44   1.470842 S    
C43   H15   1.083330 S    
O1    C1    1.307429 A    
C28   C32   1.421089 A    
C32   C48   1.488960 S    
C44   O24   1.220172 D    
C33   C40   1.526546 S    
C21   O19   1.381502 S    
C5    C6    1.164456 T    
C13   C16   1.421218 A    
O7    Zn1   1.947066 S    
C14   O16   1.382272 S    
C12   O14   1.383182 S    
C3    C5    1.364496 S    
C36   C39   1.425370 A    
C4    C6    1.364598 S    
O32   H24   0.989961 S    
C21   C23   1.415334 A    
C26   N2    1.377660 A    
C45   O25   1.221047 D    
C11   O13   1.382579 S    
O13   H5    0.989970 S    
O3    Zn1   1.942330 S    
C15   C24   1.466596 S    
O12   H4    0.990343 S    
C27   C31   1.420501 A    
C31   C33   1.420393 A    
O2    C2    1.301926 A    
C32   C34   1.419266 A    
C35   C38   1.407245 A    
C19   O17   1.379484 S    
C41   O21   1.220600 D    
O16   H8    0.990256 S    
C7    C17   1.400362 A    
C10   C14   1.410288 A    
C26   C30   1.421518 A    
C8    C18   1.410653 A    
C14   C15   1.399273 A    
C42   O22   1.219895 D    
C26   C42   1.470769 S    
C44   H16   1.084239 S    
O4    C1    1.300170 A    
C29   C33   1.420907 A    
O9    H1    0.990147 S    
C36   O30   1.381095 S    
C19   C24   1.404947 A    
C25   C41   1.470256 S    
C7    C11   1.415578 A    
C22   C24   1.399772 A    
C9    C13   1.406945 A    
O20   H12   0.990642 S    
C1    C18   1.476823 S    
C16   C23   1.518954 S    
C2    C17   1.459441 S    
C30   C34   1.419533 A    
O6    C4    1.282600 A    
C37   C40   1.424991 A    
C46   O26   1.221085 D    
C38   C39   1.424907 A    
C30   C46   1.488906 S    
C10   O12   1.382869 S    
C9    C18   1.411619 A    
C8    O10   1.382710 S    
C34   C39   1.526787 S    
C36   C37   1.407803 A    
C43   O23   1.220339 D    
C48   H20   1.083359 S    
C48   O28   1.221081 D    
O8    Zn2   1.947067 S    
C38   O32   1.381139 S    
O1    Zn1   1.922964 S    
C27   N1    1.377405 A    
C25   N1    1.376531 A    
C7    O9    1.381255 S    
C11   C15   1.409106 A    
O6    Zn2   1.946803 S    
C20   C23   1.410823 A    
C8    C12   1.410423 A    
C42   H14   1.084258 S    
C37   O31   1.381066 S    
C47   O27   1.221092 D    
C35   C40   1.425167 A    
C10   C17   1.411413 A    
O31   H23   0.989926 S    
C13   O15   1.384208 S    
O18   H10   0.990542 S    
C19   C21   1.418289 A    
C20   C22   1.410961 A    
O11   H3    0.991387 S    
C31   C47   1.490262 S    
C46   H18   1.083399 S    
O4    Zn2   1.942330 S    
O17   H9    0.989626 S    
O2    Zn2   1.922964 S    
O7    C4    1.282746 A    
C28   N2    1.377585 A    
O8    C3    1.282633 A    
O14   H6    0.989343 S    
O5    Zn1   1.946804 S    
O15   H7    0.989254 S    
C12   C16   1.422353 A    
O30   H22   0.989929 S    
C27   C43   1.473250 S    
C45   H17   1.083786 S    
C29   C45   1.490280 S    
