data_mof_unit_42370.cif
_audit_creation_date              2013-03-05T16:44:41-0500
_audit_creation_method            fapswitch 2.2
_symmetry_space_group_name_H-M    P1
_symmetry_Int_Tables_number       1
_space_group_crystal_system       triclinic
_cell_length_a                    27.042504
_cell_length_b                    10.678654
_cell_length_c                    9.849587
_cell_angle_alpha                 90.205371
_cell_angle_beta                  89.497013
_cell_angle_gamma                 90.254736
_cell_volume                      2844.18394926

loop_
_atom_site_label
_atom_site_type_symbol
_atom_site_description
_atom_site_fract_x
_atom_site_fract_y
_atom_site_fract_z
_atom_type_partial_charge
O1    O     O_R   0.500010 0.316790 0.614690 -0.613058
O2    O     O_R   0.500000 0.316760 0.385350 -0.621825
C1    C     C_R   0.499080 0.259897 0.499931 0.871347
O3    O     O_R   0.428760 0.500040 0.614660 -0.610161
O4    O     O_R   0.428750 0.500000 0.385310 -0.623733
C2    C     C_R   0.405584 0.499420 0.500707 0.863881
Zn1   Zn    Zn3+2 0.500000 0.500020 0.653130 0.944879
Zn2   Zn    Zn3+2 0.500000 0.499980 0.346870 0.937802
O5    O     O_R   0.500000 0.683240 0.614650 -0.616654
O6    O     O_R   0.499990 0.683210 0.385310 -0.628660
O7    O     O_R   0.571250 0.500000 0.614690 -0.603174
O8    O     O_R   0.571240 0.499960 0.385340 -0.605617
C3    C     C_R   0.498735 0.740021 0.500164 0.869462
C4    C     C_R   0.594297 0.498903 0.499542 0.874157
C5    C     C_R   0.179637 0.304684 0.435808 0.500065
O9    O     O_2   0.207966 0.253963 0.336768 -0.532294
N1    N     N_R   0.200996 0.384204 0.527189 -0.352552
C6    C     C_R   0.175246 0.432956 0.634349 0.508374
C7    C     C_R   0.267916 0.519397 0.436555 0.233719
C8    C     C_R   0.318814 0.549884 0.430005 0.151982
C9    C     C_R   0.335932 0.374177 0.580284 -0.258195
C10   C     C_R   0.286284 0.343094 0.584214 -0.125347
C11   C     C_R   0.252272 0.414574 0.513171 0.217178
C12   C     C_R   0.101127 0.328525 0.554707 -0.095835
C13   C     C_R   0.128623 0.276506 0.445396 -0.066198
C14   C     C_R   0.104262 0.198623 0.350486 0.242770
C15   C     C_R   0.124947 0.406365 0.650159 -0.005617
C16   C     C_R   0.352506 0.476601 0.503962 -0.145367
H1    H     H_    0.361766 0.316738 0.635690 0.159354
H2    H     H_    0.273938 0.263767 0.643980 0.153564
C17   C     C_R   0.646159 0.465776 0.499841 -0.110862
C18   C     C_R   0.972327 0.236570 0.463632 0.078406
C19   C     C_R   0.971266 0.332570 0.691726 -0.000507
C20   C     C_R   0.945941 0.287207 0.576145 0.032373
C21   C     C_R   0.945132 0.194029 0.350298 -0.220041
C22   C     C_R   0.894319 0.210855 0.343349 -0.142958
C23   C     C_R   0.868531 0.265551 0.451573 -0.022928
C24   C     C_R   0.893867 0.297418 0.570985 -0.058908
C25   C     C_R   0.867301 0.344439 0.683189 -0.054685
C26   C     C_R   0.816528 0.366493 0.670966 0.507407
N2    N     N_R   0.793436 0.345121 0.549971 -0.340923
C27   C     C_R   0.818120 0.293296 0.441783 0.549401
C28   C     C_R   0.705591 0.296324 0.506802 0.284981
C29   C     C_R   0.657468 0.338483 0.486982 -0.310389
C30   C     C_R   0.683243 0.553871 0.530236 0.174033
C31   C     C_R   0.731822 0.512170 0.544919 -0.161842
C32   C     C_R   0.743152 0.384195 0.534484 0.226480
O10   O     O_2   0.794332 0.272228 0.323928 -0.551762
C33   C     C_R   0.024812 0.237215 0.464808 0.016784
C34   C     C_R   0.049580 0.305612 0.567299 0.065197
C35   C     C_R   0.022824 0.355725 0.679673 0.050415
C36   C     C_R   0.053308 0.178817 0.362240 -0.298345
H3    H     H_    0.628244 0.271005 0.467487 0.144350
H4    H     H_    0.875458 0.182630 0.251503 0.187956
H5    H     H_    0.962233 0.153170 0.261885 0.140439
H6    H     H_    0.036913 0.117299 0.288054 0.142429
O11   O     O_2   0.198437 0.507319 0.725135 -0.573203
C37   C     C_R   0.097871 0.460055 0.756517 -0.169801
H7    H     H_    0.115128 0.523360 0.828302 0.188253
C38   C     C_R   0.943283 0.357886 0.812143 0.190839
C39   C     C_R   0.891864 0.367973 0.804821 -0.206612
O12   O     O_2   0.790503 0.410749 0.778284 -0.558612
C40   C     C_R   0.047655 0.436955 0.769721 -0.190591
H8    H     H_    0.871142 0.393702 0.895297 0.193135
H9    H     H_    0.761050 0.579306 0.564827 0.163598
H10   H     H_    0.028487 0.490310 0.846752 0.179816
C41   C     C_R   0.489934 0.064257 0.622945 0.127200
C42   C     C_R   0.492358 0.128301 0.500165 -0.105348
C43   C     C_R   0.486219 0.063872 0.377416 -0.235755
H11   H     H_    0.485768 0.112183 0.281277 0.182081
C44   C     C_R   0.485343 0.934790 0.377519 -0.232183
H12   H     H_    0.483543 0.885831 0.281132 0.172696
C45   C     C_R   0.491586 0.871321 0.500475 -0.102727
C46   C     C_R   0.489670 0.936417 0.623116 0.141702
C47   C     C_3   0.523013 0.929740 0.743186 -0.493114
C48   C     C_3   0.523324 0.071690 0.742965 -0.470901
H13   H     H_    0.504037 0.889177 0.833564 0.205106
H14   H     H_    0.559649 0.888179 0.718192 0.201410
H15   H     H_    0.504537 0.113284 0.833121 0.202071
H16   H     H_    0.560141 0.112791 0.717792 0.205583
C49   C     C_R   0.472820 0.412779 0.071607 0.161837
N3    N     N_R   0.499670 0.499140 0.142800 -0.122402
C50   C     C_R   0.530263 0.577837 0.071591 -0.123993
H17   H     H_    0.553897 0.642561 0.125754 0.150347
C51   C     C_R   0.530387 0.577548 0.927530 -0.118171
H18   H     H_    0.554163 0.641955 0.872723 0.141842
N4    N     N_R   0.499670 0.499180 0.857150 -0.102859
C52   C     C_R   0.472220 0.414634 0.928621 0.162500
C53   C     C_3   0.417413 0.401024 0.922370 -0.485355
C54   C     C_3   0.417753 0.396798 0.077193 -0.009310
H19   H     H_    0.399457 0.486823 0.882863 0.196474
H20   H     H_    0.406192 0.314454 0.868526 0.203060
H21   H     H_    0.398914 0.478031 0.124920 0.154709
N5    N     N_2   0.232764 0.594446 0.367338 -0.300711
H22   H     H_    0.202047 0.546523 0.333525 0.227325
C55   C     C_3   0.220056 0.710329 0.435444 -0.727339
H23   H     H_    0.200409 0.690661 0.532543 0.256599
H24   H     H_    0.195359 0.765973 0.369663 0.232774
H25   H     H_    0.253665 0.767119 0.456064 0.262760
N6    N     N_2   0.965676 0.365626 0.942396 -0.318655
H26   H     H_    0.944920 0.411229 0.015611 0.231123
C56   C     C_3   0.986000 0.249270 0.991009 -0.800554
H27   H     H_    0.005184 0.266785 0.088353 0.236998
H28   H     H_    0.013375 0.210650 0.917563 0.255168
H29   H     H_    0.955910 0.179665 0.007724 0.240505
N7    N     N_2   0.672463 0.683858 0.543830 -0.307775
H30   H     H_    0.641480 0.713225 0.492813 0.210078
C57   C     C_3   0.674249 0.731041 0.681525 -0.767484
H31   H     H_    0.666636 0.833141 0.681904 0.227662
H32   H     H_    0.711444 0.716089 0.725437 0.262165
H33   H     H_    0.645813 0.683420 0.745383 0.240893
N8    N     N_2   0.402016 0.278579 0.138385 -0.259766
H34   H     H_    0.404930 0.279417 0.242730 0.250522
C58   C     C_3   0.416802 0.160284 0.077596 -0.766104
H35   H     H_    0.408514 0.082692 0.149196 0.232313
H36   H     H_    0.457005 0.159809 0.053938 0.219150
H37   H     H_    0.395239 0.141166 0.984567 0.245449
N9    N     N_2   0.130223 0.140906 0.240716 -0.255085
H38   H     H_    0.119696 0.049204 0.223777 0.213315
C59   C     C_3   0.130671 0.213262 0.116705 -0.672925
H39   H     H_    0.155461 0.167852 0.040963 0.241235
H40   H     H_    0.144557 0.309793 0.135799 0.257569
H41   H     H_    0.092909 0.217924 0.073893 0.206135
N10   N     N_2   0.716040 0.165926 0.499176 -0.276408
H42   H     H_    0.692778 0.116725 0.435649 0.233566
C60   C     C_3   0.721079 0.105496 0.629478 -0.768792
H43   H     H_    0.731606 0.006082 0.613763 0.245686
H44   H     H_    0.685428 0.108742 0.686438 0.230559
H45   H     H_    0.750393 0.151504 0.690306 0.264667
N11   N     N_2   0.335205 0.658420 0.357809 -0.306607
H46   H     H_    0.367839 0.699545 0.388508 0.216458
C61   C     C_3   0.326845 0.661265 0.212717 -0.701174
H47   H     H_    0.301410 0.739302 0.189065 0.258294
H48   H     H_    0.310529 0.572068 0.174878 0.248423
H49   H     H_    0.362348 0.677979 0.158065 0.207921

loop_
_geom_bond_atom_site_label_1
_geom_bond_atom_site_label_2
_geom_bond_distance
_ccdc_geom_bond_type
N4    C52   1.360567 A    
C60   H43   1.110296 S    
N2    C27   1.368923 A    
N11   C61   1.449278 S    
C21   C22   1.388918 A    
C12   C15   1.410694 A    
C54   N8    1.460909 S    
C4    C17   1.447953 S    
C47   C48   1.515833 S    
N8    C58   1.452246 S    
C58   H35   1.110803 S    
C30   C31   1.397882 A    
C59   H39   1.110242 S    
Zn1   O7    1.960363 S    
N1    C11   1.428263 S    
Zn2   N3    2.010091 S    
C22   C23   1.396369 A    
C1    C42   1.416189 S    
C43   H11   1.080155 S    
C24   C25   1.405327 A    
O7    C4    1.289362 A    
C5    C13   1.413090 A    
N7    H30   1.031346 S    
C5    O9    1.348565 S    
C55   H25   1.110196 S    
C26   O12   1.349923 S    
C57   H31   1.110444 S    
C56   H29   1.111243 S    
N1    C6    1.362482 A    
C45   C46   1.392216 A    
C23   C27   1.400587 A    
C43   C44   1.378529 A    
O5    C3    1.283023 A    
N9    H38   1.031991 S    
C29   H3    1.085027 S    
Zn1   N4    2.009506 S    
C7    C8    1.413947 A    
C57   H32   1.110795 S    
C61   H47   1.109554 S    
C55   H24   1.110318 S    
C48   H15   1.111404 S    
C53   H19   1.111984 S    
C59   H41   1.109618 S    
N5    C55   1.446799 S    
C40   H10   1.077777 S    
O1    Zn1   1.991614 S    
C9    C10   1.381842 A    
N5    H22   1.030853 S    
O3    Zn1   1.966680 S    
N8    H34   1.031464 S    
C59   H40   1.111469 S    
C49   N3    1.366653 A    
C51   N4    1.367720 A    
C12   C34   1.418633 A    
C25   C39   1.396400 A    
C2    C16   1.454902 S    
C17   C29   1.399686 A    
C21   H5    1.074501 S    
C41   C42   1.392349 A    
C49   C52   1.408806 A    
C18   C21   1.414613 A    
C14   N9    1.423890 S    
C35   C40   1.410584 A    
C12   C13   1.416335 A    
C31   H9    1.083428 S    
O3    C2    1.290298 A    
C46   C47   1.495530 S    
C25   C26   1.400413 A    
C44   C45   1.401797 A    
C42   C43   1.399715 A    
C8    C16   1.412547 A    
C60   H45   1.109735 S    
C13   C14   1.414205 A    
C51   H18   1.081893 S    
C9    H1    1.083970 S    
O6    C3    1.282010 A    
C38   C39   1.397674 A    
O1    C1    1.281720 A    
C18   C20   1.419472 A    
C39   H8    1.083747 S    
C7    C11   1.413392 A    
C28   C29   1.394489 A    
C23   C24   1.406336 A    
C14   C36   1.396991 A    
C6    O11   1.350491 S    
C50   H17   1.081751 S    
O8    C4    1.290983 A    
Zn2   O8    1.966680 S    
C33   C36   1.410463 A    
C55   H23   1.110224 S    
N6    C56   1.445749 S    
C34   C35   1.421314 A    
N2    C32   1.433718 S    
C41   C46   1.365159 A    
C27   O10   1.349773 S    
C53   H20   1.106693 S    
C56   H28   1.110225 S    
C47   H13   1.111826 S    
C7    N5    1.425757 S    
C49   C54   1.498703 S    
Zn2   O6    1.991613 S    
C26   N2    1.368281 A    
C50   C51   1.418910 A    
C9    C16   1.399260 A    
C3    C45   1.416218 S    
N3    C50   1.367650 A    
C19   C38   1.426964 A    
C30   N7    1.425227 S    
C54   H21   1.108971 S    
N10   C60   1.446359 S    
C37   C40   1.384175 A    
C5    N1    1.365329 A    
C31   C32   1.405062 A    
C60   H44   1.111795 S    
C10   H2    1.083138 S    
C20   C24   1.414267 A    
O2    Zn2   1.994248 S    
C6    C15   1.395777 A    
C48   H16   1.112606 S    
C8    N11   1.428727 S    
C38   N6    1.425438 S    
C15   C37   1.395794 A    
O4    Zn2   1.960365 S    
C58   H36   1.109908 S    
C19   C35   1.418944 A    
C57   H33   1.111705 S    
O2    C1    1.283474 A    
C37   H7    1.083633 S    
C44   H12   1.083528 S    
O4    C2    1.293029 A    
N7    C57   1.446238 S    
C61   H49   1.110623 S    
N6    H26   1.032015 S    
C19   C20   1.416510 A    
N11   H46   1.031191 S    
C56   H27   1.109050 S    
C47   H14   1.112654 S    
N9    C59   1.447597 S    
C18   C33   1.419477 A    
C58   H37   1.108285 S    
C22   H4    1.083584 S    
Zn1   O5    1.994247 S    
C52   C53   1.490354 S    
C61   H48   1.112404 S    
C33   C34   1.415410 A    
C17   C30   1.405410 A    
C10   C11   1.392707 A    
C41   C48   1.495500 S    
C53   C54   1.525881 S    
C28   C32   1.407526 A    
C28   N10   1.423679 S    
C36   H6    1.077821 S    
N10   H42   1.031933 S    
