data_mof_unit_20652.cif
_audit_creation_date              2012-12-11T16:45:54-0500
_audit_creation_method            fapswitch 2.2
_symmetry_space_group_name_H-M    P1
_symmetry_Int_Tables_number       1
_space_group_crystal_system       triclinic
_cell_length_a                    19.69339
_cell_length_b                    17.217717
_cell_length_c                    15.324922
_cell_angle_alpha                 89.999459
_cell_angle_beta                  52.656594
_cell_angle_gamma                 89.999695
_cell_volume                      4131.13310932

loop_
_atom_site_label
_atom_site_type_symbol
_atom_type_description
_atom_site_fract_x
_atom_site_fract_y
_atom_site_fract_z
_atom_type_partial_charge
C1    C     C_R   0.839547 0.672612 0.047865 -0.110893
C2    C     C_R   0.152245 0.311939 0.068975 0.152779
C3    C     C_R   0.347752 0.811941 0.931028 0.152775
C4    C     C_R   0.652245 0.811940 0.068977 0.152775
C5    C     C_R   0.900591 0.688979 0.294391 0.015574
C6    C     C_R   0.099414 0.688980 0.705604 0.015585
C7    C     C_R   0.400591 0.188980 0.294392 0.015570
C8    C     C_R   0.599415 0.188980 0.705602 0.015643
C9    C     C_R   0.880842 0.736131 0.463858 0.127613
C10   C     C_R   0.119154 0.736136 0.536141 0.127610
C11   C     C_R   0.380841 0.236129 0.463862 0.127599
C12   C     C_R   0.160452 0.672614 0.952139 -0.110900
C13   C     C_R   0.619154 0.236134 0.536139 0.127580
C14   C     C_R   0.881177 0.749084 0.373312 0.075779
C15   C     C_R   0.118823 0.749087 0.626683 0.075775
C16   C     C_R   0.381180 0.249085 0.373313 0.075786
C17   C     C_R   0.618819 0.249087 0.626685 0.075785
C18   C     C_R   0.341228 0.316523 0.373939 -0.222148
C19   C     C_R   0.658765 0.316528 0.626060 -0.222142
C20   C     C_R   0.841219 0.816517 0.373943 -0.222154
C21   C     C_R   0.158776 0.816524 0.626054 -0.222151
C22   C     C_R   0.282236 0.353934 0.472113 -0.187635
C23   C     C_R   0.339547 0.172613 0.047862 -0.110893
C24   C     C_R   0.717754 0.353943 0.527887 -0.187633
C25   C     C_R   0.782224 0.853924 0.472118 -0.187575
C26   C     C_R   0.217762 0.853941 0.527881 -0.187632
C27   C     C_R   0.269131 0.331310 0.569908 -0.016880
C28   C     C_R   0.730863 0.331315 0.430090 -0.016861
C29   C     C_R   0.769129 0.831306 0.569909 -0.016980
C30   C     C_R   0.230863 0.831318 0.430090 -0.016865
C31   C     C_R   0.827026 0.777772 0.560044 0.115466
C32   C     C_R   0.172972 0.777776 0.439954 0.115454
C33   C     C_R   0.327020 0.277768 0.560049 0.115461
C34   C     C_R   0.660452 0.172614 0.952138 -0.110909
C35   C     C_R   0.672975 0.277773 0.439951 0.115454
C36   C     C_3   0.818788 0.711825 0.629200 0.513296
C37   C     C_3   0.181210 0.711832 0.370798 0.513293
C38   C     C_3   0.318773 0.211819 0.629207 0.513290
C39   C     C_3   0.681216 0.211827 0.370793 0.513307
C40   C     C_R   0.850618 0.327118 0.220966 -0.230146
C41   C     C_R   0.149382 0.327120 0.779034 -0.230141
C42   C     C_R   0.350616 0.827121 0.220966 -0.230143
C43   C     C_R   0.649386 0.827123 0.779035 -0.230115
C44   C     C_3   0.875808 0.665278 0.523540 -0.704074
C45   C     C_R   0.806876 0.360187 0.324873 -0.080233
C46   C     C_3   0.124180 0.665288 0.476461 -0.704093
C47   C     C_3   0.375804 0.165276 0.523545 -0.704106
C48   C     C_3   0.624182 0.165285 0.476457 -0.704104
C49   C     C_2   0.786977 0.184077 0.952990 -0.198363
C50   C     C_2   0.213016 0.184073 0.047022 -0.198360
C51   C     C_2   0.286978 0.684076 0.952988 -0.198373
C52   C     C_2   0.713010 0.684071 0.047037 -0.198389
C53   C     C_2   0.308724 0.754370 0.904960 -0.200377
C54   C     C_2   0.691274 0.754370 0.095048 -0.200364
C55   C     C_2   0.808724 0.254370 0.904959 -0.200380
C56   C     C_R   0.193123 0.360189 0.675126 -0.080240
C57   C     C_2   0.191271 0.254367 0.095049 -0.200374
C58   C     C_R   0.865522 0.388665 0.896513 -0.167265
C59   C     C_R   0.134476 0.388664 0.103489 -0.167269
C60   C     C_R   0.365522 0.888665 0.896512 -0.167249
C61   C     C_R   0.634476 0.888664 0.103490 -0.167260
C62   C     C_R   0.919615 0.612275 0.294369 -0.013308
C63   C     C_R   0.080388 0.612276 0.705628 -0.013363
C64   C     C_R   0.419615 0.112276 0.294370 -0.013315
C65   C     C_R   0.580390 0.112276 0.705626 -0.013414
C66   C     C_R   0.875813 0.299478 0.992727 -0.089299
C67   C     C_R   0.306873 0.860191 0.324871 -0.080224
C68   C     C_R   0.124187 0.299478 0.007274 -0.089304
C69   C     C_R   0.375812 0.799479 0.992728 -0.089307
C70   C     C_R   0.624187 0.799478 0.007275 -0.089326
C71   C     C_R   0.902841 0.699065 0.203702 -0.155519
C72   C     C_R   0.097162 0.699065 0.796294 -0.155514
C73   C     C_R   0.402841 0.199065 0.203703 -0.155515
C74   C     C_R   0.597163 0.199065 0.796294 -0.155549
C75   C     C_R   0.854587 0.424184 0.314090 0.592819
C76   C     C_R   0.145412 0.424186 0.685910 0.592868
C77   C     C_R   0.354585 0.924187 0.314089 0.592815
C78   C     C_R   0.693130 0.860194 0.675129 -0.080250
C79   C     C_R   0.645419 0.924192 0.685914 0.592900
C80   C     C_R   0.828480 0.580107 0.953591 -0.191648
C81   C     C_R   0.171517 0.580108 0.046414 -0.191645
C82   C     C_R   0.328481 0.080107 0.953589 -0.191648
C83   C     C_R   0.671517 0.080108 0.046414 -0.191647
C84   C     C_R   0.787273 0.643767 0.023691 0.154171
C85   C     C_R   0.212723 0.643769 0.976318 0.154152
C86   C     C_R   0.287275 0.143767 0.023687 0.154146
C87   C     C_R   0.712723 0.143768 0.976317 0.154154
C88   C     C_3   0.851670 0.668843 0.741748 -0.210757
C89   C     C_R   0.847752 0.311941 0.931029 0.152781
C90   C     C_3   0.148299 0.668842 0.258283 -0.210627
C91   C     C_3   0.351669 0.168817 0.741734 -0.210629
C92   C     C_3   0.648293 0.168832 0.258290 -0.210658
C93   C     C_3   0.753986 0.519786 0.408739 -0.277630
C94   C     C_3   0.246000 0.519787 0.591215 -0.277716
C95   C     C_3   0.253988 0.019787 0.408733 -0.277593
C96   C     C_3   0.745981 0.019798 0.591172 -0.277699
H1    H     H_    0.830270 0.722753 0.096107 0.088101
H2    H     H_    0.247039 0.687966 0.313945 -0.011311
H3    H     H_    0.252941 0.187956 0.686056 -0.011301
H4    H     H_    0.747045 0.187960 0.313943 -0.011321
H5    H     H_    0.938903 0.649451 0.502135 0.226250
H6    H     H_    0.061083 0.649473 0.497866 0.226274
H7    H     H_    0.438897 0.149453 0.502147 0.226234
H8    H     H_    0.561085 0.149470 0.497860 0.226254
H9    H     H_    0.840037 0.616790 0.520535 0.188938
H10   H     H_    0.159941 0.616792 0.479469 0.188928
H11   H     H_    0.340041 0.116786 0.520531 0.188947
H12   H     H_    0.169727 0.722758 0.903901 0.088102
H13   H     H_    0.659941 0.116789 0.479468 0.188917
H14   H     H_    0.812860 0.162107 0.993485 0.118306
H15   H     H_    0.187127 0.162100 0.006535 0.118293
H16   H     H_    0.312865 0.662104 0.993477 0.118301
H17   H     H_    0.687105 0.662092 0.006572 0.118284
H18   H     H_    0.285785 0.775330 0.860495 0.123857
H19   H     H_    0.714225 0.775337 0.139496 0.123854
H20   H     H_    0.785788 0.275329 0.860490 0.123855
H21   H     H_    0.214209 0.275327 0.139517 0.123852
H22   H     H_    0.831493 0.278282 0.196932 0.138333
H23   H     H_    0.330272 0.222757 0.096100 0.088102
H24   H     H_    0.168508 0.278283 0.803068 0.138331
H25   H     H_    0.331491 0.778284 0.196932 0.138326
H26   H     H_    0.668509 0.778283 0.803069 0.138309
H27   H     H_    0.860999 0.415024 0.836131 0.092313
H28   H     H_    0.138999 0.415022 0.163872 0.092312
H29   H     H_    0.360999 0.915024 0.836130 0.092313
H30   H     H_    0.639000 0.915024 0.163871 0.092311
H31   H     H_    0.938475 0.586611 0.340931 0.125530
H32   H     H_    0.061525 0.586614 0.659069 0.125571
H33   H     H_    0.438476 0.086611 0.340930 0.125528
H34   H     H_    0.669727 0.222758 0.903900 0.088105
H35   H     H_    0.561525 0.086614 0.659069 0.125601
H36   H     H_    0.883407 0.244546 0.019911 0.074020
H37   H     H_    0.116594 0.244546 0.980090 0.074016
H38   H     H_    0.383405 0.744546 0.019912 0.074019
H39   H     H_    0.616597 0.744545 0.980089 0.074010
H40   H     H_    0.906298 0.753620 0.166418 0.095018
H41   H     H_    0.093709 0.753620 0.833574 0.095017
H42   H     H_    0.406296 0.253620 0.166420 0.095017
H43   H     H_    0.593707 0.253619 0.833575 0.095026
H44   H     H_    0.806551 0.545828 0.916016 0.100811
H45   H     H_    0.241070 0.394209 0.470780 0.190003
H46   H     H_    0.193444 0.545828 0.083993 0.100810
H47   H     H_    0.306553 0.045827 0.916013 0.100809
H48   H     H_    0.693444 0.045829 0.083993 0.100809
H49   H     H_    0.342377 0.333020 0.305057 0.125620
H50   H     H_    0.657616 0.333025 0.694943 0.125618
H51   H     H_    0.842363 0.833011 0.305063 0.125618
H52   H     H_    0.157633 0.833016 0.694931 0.125624
H53   H     H_    0.884069 0.615806 0.691596 0.124489
H54   H     H_    0.783497 0.656313 0.809344 0.111804
H55   H     H_    0.883439 0.685458 0.778908 0.180114
H56   H     H_    0.758916 0.394222 0.529220 0.189987
H57   H     H_    0.115772 0.615856 0.308510 0.124504
H58   H     H_    0.216468 0.656204 0.190758 0.111701
H59   H     H_    0.116621 0.685504 0.221015 0.180107
H60   H     H_    0.384174 0.115821 0.691511 0.124502
H61   H     H_    0.283494 0.156198 0.809273 0.111705
H62   H     H_    0.383364 0.185466 0.778986 0.180111
H63   H     H_    0.615739 0.115865 0.308535 0.124525
H64   H     H_    0.716454 0.156166 0.190787 0.111697
H65   H     H_    0.616637 0.185497 0.220998 0.180107
H66   H     H_    0.695321 0.484533 0.462000 0.163465
H67   H     H_    0.741053 0.894192 0.470788 0.190031
H68   H     H_    0.763612 0.533757 0.330931 0.151401
H69   H     H_    0.742382 0.575353 0.452461 0.169516
H70   H     H_    0.304667 0.484507 0.538013 0.163450
H71   H     H_    0.236355 0.533827 0.669019 0.151455
H72   H     H_    0.257627 0.575316 0.547400 0.169533
H73   H     H_    0.195311 0.984532 0.462007 0.163454
H74   H     H_    0.263621 0.033754 0.330917 0.151403
H75   H     H_    0.242391 0.075357 0.452452 0.169522
H76   H     H_    0.804635 0.984428 0.538185 0.163406
H77   H     H_    0.736241 0.034031 0.669005 0.151540
H78   H     H_    0.258928 0.894216 0.529208 0.189987
H79   H     H_    0.757714 0.075236 0.547089 0.169507
H80   H     H_    0.752957 0.687962 0.686062 -0.011309
N1    N     N_R   0.908660 0.628630 0.995840 -0.044862
N2    N     N_R   0.096530 0.421430 0.063580 -0.040312
N3    N     N_R   0.403470 0.921430 0.936420 -0.040310
N4    N     N_R   0.596530 0.921430 0.063580 -0.040311
N5    N     N_R   0.927500 0.575670 0.211370 -0.040431
N6    N     N_R   0.072500 0.575670 0.788630 -0.040452
N7    N     N_R   0.427500 0.075670 0.211370 -0.040434
N8    N     N_R   0.572500 0.075670 0.788630 -0.040506
N9    N     N_R   0.908660 0.365680 0.995820 -0.040203
N10   N     N_R   0.091340 0.365680 0.004180 -0.040201
N11   N     N_R   0.408660 0.865680 0.995820 -0.040202
N12   N     N_R   0.091340 0.628630 0.004160 -0.044862
N13   N     N_R   0.591340 0.865680 0.004180 -0.040198
N14   N     N_R   0.922310 0.631420 0.151980 -0.047642
N15   N     N_R   0.077690 0.631420 0.848020 -0.047646
N16   N     N_R   0.422310 0.131420 0.151980 -0.047642
N17   N     N_R   0.577690 0.131420 0.848020 -0.047665
N18   N     N_R   0.927500 0.426330 0.211360 -0.098856
N19   N     N_R   0.072500 0.426330 0.788640 -0.098855
N20   N     N_R   0.427500 0.926330 0.211360 -0.098857
N21   N     N_R   0.572500 0.926330 0.788640 -0.098854
N22   N     N_R   0.903470 0.570760 0.936440 -0.043543
N23   N     N_R   0.408660 0.128630 0.995840 -0.044855
N24   N     N_R   0.096530 0.570760 0.063560 -0.043545
N25   N     N_R   0.403470 0.070760 0.936440 -0.043534
N26   N     N_R   0.596530 0.070760 0.063560 -0.043544
N27   N     N_R   0.591340 0.128630 0.004160 -0.044860
N28   N     N_R   0.922310 0.368460 0.151950 -0.067943
N29   N     N_R   0.077690 0.368460 0.848050 -0.067946
N30   N     N_R   0.422310 0.868460 0.151950 -0.067941
N31   N     N_R   0.577690 0.868460 0.848050 -0.067950
N32   N     N_R   0.903470 0.421430 0.936420 -0.040312
Ni1   Ni    Ni4+2 0.000000 0.630300 0.000000 0.194456
Ni2   Ni    Ni4+2 0.500000 0.130300 0.000000 0.194449
Ni3   Ni    Ni4+2 0.000000 0.369700 0.000000 0.196814
Ni4   Ni    Ni4+2 0.500000 0.869700 0.000000 0.196813
Ni5   Ni    Ni4+2 0.988090 0.497570 0.863760 0.209446
Ni6   Ni    Ni4+2 0.011910 0.497570 0.136240 0.209437
Ni7   Ni    Ni4+2 0.488090 0.997570 0.863760 0.209446
Ni8   Ni    Ni4+2 0.511910 0.997570 0.136240 0.209434
O1    O     O_3   0.859525 0.731123 0.676734 -0.584264
O2    O     O_3   0.140489 0.731139 0.323245 -0.584279
O3    O     O_3   0.359492 0.231118 0.676766 -0.584280
O4    O     O_3   0.640501 0.231135 0.323232 -0.584277
O5    O     O_3   0.826552 0.483342 0.389774 -0.664833
O6    O     O_3   0.173429 0.483332 0.610214 -0.664843
O7    O     O_3   0.326551 0.983344 0.389773 -0.664845
O8    O     O_3   0.673414 0.983318 0.610198 -0.664860

loop_
_geom_bond_atom_site_label_1
_geom_bond_atom_site_label_2
_ccdc_geom_bond_type
C92   H65   S    
C40   H22   S    
C21   C26   A    
N32   Ni5   S    
C79   N21   A    
C96   H79   S    
C88   H53   S    
C49   C87   S    
C11   C47   S    
C67   C77   A    
C69   H38   S    
C80   C84   A    
C18   H49   S    
N7    N16   A    
C51   C85   S    
C81   N24   A    
C4    C70   A    
N17   Ni2   S    
C2    C57   S    
C79   O8    S    
C7    C73   A    
N20   N30   A    
C44   H9    S    
C27   C33   A    
C60   N3    A    
C6    C72   A    
C46   H6    S    
C58   H27   S    
C51   H16   S    
C12   C85   A    
C92   H63   S    
C56   C76   A    
C68   H37   S    
C3    C69   A    
C77   N20   A    
C13   C35   A    
C2    C68   A    
N4    N13   A    
C23   H23   S    
C83   H48   S    
N20   Ni8   S    
N3    N11   A    
C55   H20   S    
N29   Ni3   S    
N8    N17   A    
C12   N12   A    
C23   N23   A    
C80   N22   A    
N7    Ni8   S    
C42   H25   S    
C88   O1    S    
C22   H45   S    
C52   C84   S    
N5    N14   A    
N1    Ni1   S    
C92   O4    S    
N25   Ni7   S    
C91   H62   S    
C24   H56   S    
C6    C15   S    
C58   C89   A    
C64   N7    A    
C1    N1    A    
C77   O7    S    
C29   C78   S    
C40   N28   A    
C28   C35   A    
C96   O8    S    
C23   C86   A    
C10   C46   S    
N6    Ni5   S    
N24   Ni6   S    
N9    Ni3   S    
N27   Ni2   S    
C61   H30   S    
C45   C75   A    
C80   H44   S    
C90   H58   S    
N12   Ni1   S    
C24   C28   A    
C75   O5    S    
C69   N11   A    
C72   N15   A    
C30   C67   S    
N21   Ni7   S    
N12   N24   A    
C73   H42   S    
C3    C60   A    
C48   H13   S    
C72   H41   S    
C74   N17   A    
C93   H69   S    
C8    C65   A    
C41   H24   S    
C63   N6    A    
C18   C22   A    
N10   Ni3   S    
C91   O3    S    
N9    N32   A    
C94   H70   S    
C37   O2    S    
C83   N26   A    
C37   H2    S    
C65   H35   S    
C52   C54   D    
C66   C89   A    
C66   H36   S    
C25   C29   A    
C40   C45   A    
C28   C45   S    
C19   H50   S    
C47   H7    S    
C96   H77   S    
N2    Ni6   S    
C43   N31   A    
C21   H52   S    
C14   C20   A    
C39   O4    S    
N4    Ni8   S    
N26   N27   A    
C1    H1    S    
C71   H40   S    
C12   H12   S    
C9    C31   A    
C78   C79   A    
C38   H3    S    
N8    Ni7   S    
C93   H68   S    
C76   O6    S    
C82   C86   A    
C4    C61   A    
C95   O7    S    
C43   C78   A    
C6    C63   A    
C36   O1    S    
C35   C39   S    
C9    C14   A    
C41   C56   A    
C76   N19   A    
N30   Ni4   S    
C82   N25   A    
C11   C16   A    
N19   N29   A    
C58   N32   A    
C34   N27   A    
C83   C87   A    
N18   N28   A    
C54   H19   S    
C8    C74   A    
C38   C47   S    
C20   H51   S    
C32   C37   S    
C27   C56   S    
C90   H57   S    
C95   H73   S    
C43   H26   S    
N16   Ni2   S    
C5    C14   S    
N5    Ni6   S    
C66   N9    A    
N15   Ni1   S    
C16   C18   A    
C81   H46   S    
C36   H80   S    
C47   H11   S    
N1    N22   A    
C96   H76   S    
C42   C67   A    
C88   H55   S    
C36   C44   S    
C1    C84   A    
N6    N15   A    
C94   H72   S    
C53   H18   S    
C57   H21   S    
C59   H28   S    
C60   H29   S    
C9    C44   S    
C4    C54   S    
C10   C15   A    
C2    C59   A    
C50   C57   D    
C88   H54   S    
C38   O3    S    
N14   Ni1   S    
C59   N2    A    
C7    C16   S    
C63   H32   S    
C82   H47   S    
N13   Ni4   S    
C94   H71   S    
N18   Ni6   S    
C13   C48   S    
C44   H5    S    
C26   C30   A    
C11   C33   A    
C64   H33   S    
N19   Ni5   S    
C74   H43   S    
C22   C27   A    
C8    C17   S    
C90   O2    S    
C13   C17   A    
C92   H64   S    
N23   Ni2   S    
N26   Ni8   S    
C19   C24   A    
C90   H59   S    
C91   H60   S    
C29   C31   A    
C49   C55   D    
C62   N5    A    
C30   C32   A    
C3    C53   S    
C39   H4    S    
N31   Ni4   S    
C93   H66   S    
C25   H67   S    
C52   H17   S    
C46   H10   S    
N28   Ni3   S    
C50   H15   S    
C17   C19   A    
C5    C62   A    
C42   N30   A    
C34   C87   A    
C71   N14   A    
C41   N29   A    
C55   C89   S    
C95   H74   S    
N23   N25   A    
C7    C64   A    
C91   H61   S    
C73   N16   A    
N21   N31   A    
C50   C86   S    
C68   N10   A    
N2    N10   A    
C75   N18   A    
C10   C32   A    
C62   H31   S    
C15   C21   A    
N11   Ni4   S    
C34   H34   S    
C61   N4    A    
C5    C71   A    
C20   C25   A    
C70   H39   S    
N3    Ni7   S    
C94   O6    S    
C26   H78   S    
C31   C36   S    
C39   C48   S    
C33   C38   S    
C93   O5    S    
C51   C53   D    
C37   C46   S    
N22   Ni5   S    
C95   H75   S    
C81   C85   A    
C70   N13   A    
C49   H14   S    
C65   N8    A    
C48   H8    S    
