data_mof_unit_46458.cif
_audit_creation_date              2012-12-11T16:08:30-0500
_audit_creation_method            fapswitch 2.2
_symmetry_space_group_name_H-M    P1
_symmetry_Int_Tables_number       1
_space_group_crystal_system       triclinic
_cell_length_a                    7.230447
_cell_length_b                    21.263931
_cell_length_c                    23.546011
_cell_angle_alpha                 89.999922
_cell_angle_beta                  90.005999
_cell_angle_gamma                 89.998905
_cell_volume                      3620.14562964

loop_
_atom_site_label
_atom_site_type_symbol
_atom_type_description
_atom_site_fract_x
_atom_site_fract_y
_atom_site_fract_z
_atom_type_partial_charge
O1    O     O_R   0.365470 0.806380 0.442440 -0.528131
O2    O     O_R   0.134530 0.193620 0.942440 -0.528166
O3    O     O_R   0.865470 0.693620 0.557560 -0.528165
O4    O     O_R   0.634530 0.306380 0.057560 -0.528133
O5    O     O_R   0.035730 0.813790 0.557160 -0.533444
O6    O     O_R   0.464270 0.186210 0.057160 -0.533439
O7    O     O_R   0.535730 0.686210 0.442840 -0.533441
O8    O     O_R   0.964270 0.313790 0.942840 -0.533442
C1    C     C_R   0.204152 0.828676 0.575932 0.716425
C2    C     C_R   0.295861 0.171318 0.075929 0.716451
C3    C     C_R   0.704141 0.671326 0.424065 0.716474
C4    C     C_R   0.795847 0.328676 0.924068 0.716421
O9    O     O_R   0.035760 0.813790 0.442850 -0.542930
O10   O     O_R   0.464240 0.186210 0.942850 -0.542936
O11   O     O_R   0.535760 0.686210 0.557150 -0.542932
O12   O     O_R   0.964240 0.313790 0.057150 -0.542926
O13   O     O_R   0.865450 0.693620 0.442430 -0.533937
O14   O     O_R   0.634550 0.306380 0.942430 -0.533949
O15   O     O_R   0.365450 0.806380 0.557570 -0.533948
O16   O     O_R   0.134550 0.193620 0.057570 -0.533933
C5    C     C_R   0.204121 0.828670 0.424100 0.713026
C6    C     C_R   0.295869 0.171336 0.924095 0.713005
C7    C     C_R   0.704131 0.671337 0.575905 0.713011
C8    C     C_R   0.795878 0.328670 0.075899 0.713026
O17   O     O_3   0.198970 0.710570 0.500000 -0.374045
O18   O     O_3   0.301030 0.289430 0.000000 -0.374024
O19   O     O_3   0.698970 0.789430 0.500000 -0.374025
O20   O     O_3   0.801030 0.210570 0.000000 -0.374044
V1    V     V_3+5 0.924120 0.757310 0.500000 1.399099
V2    V     V_3+5 0.575880 0.242690 0.000000 1.399100
V3    V     V_3+5 0.424120 0.742690 0.500000 1.399109
V4    V     V_3+5 0.075880 0.257310 0.000000 1.399094
C9    C     C_3   0.947381 0.528515 0.722922 -0.088125
C10   C     C_3   0.552617 0.471425 0.222951 -0.088131
C11   C     C_3   0.447417 0.971348 0.276998 -0.088117
C12   C     C_3   0.052604 0.028508 0.777082 -0.088131
C13   C     C_3   0.636192 0.565926 0.761793 -0.326287
C14   C     C_3   0.864180 0.434179 0.261719 -0.326257
C15   C     C_3   0.135706 0.934168 0.238284 -0.326256
C16   C     C_3   0.363782 0.065926 0.738209 -0.326275
C17   C     C_3   0.655358 0.518157 0.811523 -0.339810
C18   C     C_3   0.845025 0.481938 0.311455 -0.339819
C19   C     C_3   0.154849 0.981922 0.188543 -0.339810
C20   C     C_3   0.344624 0.018158 0.688477 -0.339819
H1    H     H_    0.037415 0.500853 0.810359 0.136326
H2    H     H_    0.462946 0.498957 0.310445 0.136355
H3    H     H_    0.536891 0.998797 0.189460 0.136365
H4    H     H_    0.962541 0.000836 0.689651 0.136316
H5    H     H_    0.487039 0.572034 0.751828 0.166808
H6    H     H_    0.013317 0.428155 0.251697 0.166668
H7    H     H_    0.986576 0.928179 0.248332 0.166652
H8    H     H_    0.512934 0.072036 0.748174 0.166802
H9    H     H_    0.687474 0.612935 0.774867 0.145919
H10   H     H_    0.813201 0.387140 0.274812 0.145908
H11   H     H_    0.186570 0.887117 0.225184 0.145894
H12   H     H_    0.312484 0.112934 0.725137 0.145924
H13   H     H_    0.725274 0.541103 0.848131 0.133021
H14   H     H_    0.775419 0.458950 0.348092 0.133040
H15   H     H_    0.224357 0.958910 0.151898 0.133055
H16   H     H_    0.274701 0.041103 0.651870 0.133027
H17   H     H_    0.515120 0.503928 0.826203 0.144004
H18   H     H_    0.985265 0.496255 0.326073 0.144010
H19   H     H_    0.014609 0.996273 0.173951 0.144026
H20   H     H_    0.484868 0.003933 0.673797 0.143999
C21   C     C_1   0.787020 0.374570 0.878451 -0.183996
C22   C     C_1   0.712945 0.625440 0.378441 -0.184002
C23   C     C_1   0.287068 0.125412 0.121540 -0.184015
C24   C     C_1   0.212983 0.874570 0.621549 -0.183995
C25   C     C_3   0.739603 0.542137 0.708111 0.250838
C26   C     C_3   0.760396 0.457907 0.208074 0.250833
C27   C     C_3   0.239635 0.957877 0.291909 0.250826
C28   C     C_3   0.260379 0.042134 0.791892 0.250838
C29   C     C_3   0.961514 0.480830 0.773553 -0.357596
C30   C     C_3   0.538484 0.519068 0.273612 -0.357642
C31   C     C_3   0.461556 0.018959 0.226310 -0.357673
C32   C     C_3   0.038483 0.980821 0.726453 -0.357585
C33   C     C_3   0.765966 0.459168 0.792717 0.277268
C34   C     C_3   0.734009 0.540858 0.292693 0.277267
C35   C     C_3   0.266039 0.040813 0.207277 0.277237
C36   C     C_3   0.234038 0.959167 0.707284 0.277277
C37   C     C_3   0.665981 0.429930 0.740655 -0.332098
C38   C     C_3   0.833585 0.570158 0.240590 -0.332080
C39   C     C_3   0.166697 0.070150 0.259405 -0.332063
C40   C     C_3   0.334061 0.929932 0.759342 -0.332103
C41   C     C_3   0.649221 0.478462 0.691391 -0.366173
C42   C     C_3   0.850398 0.521631 0.191322 -0.366212
C43   C     C_3   0.149774 0.021623 0.308668 -0.366226
C44   C     C_3   0.350782 0.978461 0.808610 -0.366180
C45   C     C_1   0.778384 0.412684 0.840017 -0.092525
C46   C     C_1   0.721580 0.587335 0.340000 -0.092513
C47   C     C_1   0.278453 0.087292 0.159970 -0.092508
C48   C     C_1   0.221625 0.912683 0.659983 -0.092520
C49   C     C_1   0.722592 0.588027 0.660387 -0.081201
C50   C     C_1   0.777419 0.412014 0.160353 -0.081211
C51   C     C_1   0.222600 0.911997 0.339637 -0.081219
C52   C     C_1   0.277391 0.088024 0.839616 -0.081195
C53   C     C_1   0.712854 0.625729 0.621690 -0.187431
C54   C     C_1   0.787166 0.374298 0.121668 -0.187389
C55   C     C_1   0.212838 0.874290 0.378327 -0.187407
C56   C     C_1   0.287140 0.125727 0.878312 -0.187417
H21   H     H_    0.716702 0.459227 0.652629 0.135277
H22   H     H_    0.782670 0.540825 0.152579 0.135277
H23   H     H_    0.217538 0.040796 0.347413 0.135273
H24   H     H_    0.283290 0.959221 0.847368 0.135282
H25   H     H_    0.500584 0.485727 0.680890 0.147137
H26   H     H_    0.999026 0.514451 0.180776 0.147073
H27   H     H_    0.001129 0.014483 0.319213 0.147068
H28   H     H_    0.499411 0.985730 0.819117 0.147136
H29   H     H_    0.743438 0.387897 0.725567 0.136939
H30   H     H_    0.755826 0.612139 0.225528 0.136934
H31   H     H_    0.244703 0.112084 0.274457 0.136943
H32   H     H_    0.256654 0.887890 0.774428 0.136944
H33   H     H_    0.006655 0.503644 0.685414 0.092484
H34   H     H_    0.493125 0.496299 0.185473 0.092515
H35   H     H_    0.506989 0.996239 0.314455 0.092543
H36   H     H_    0.993330 0.003637 0.814591 0.092476
H37   H     H_    0.043126 0.439123 0.759786 0.127308
H38   H     H_    0.456521 0.560723 0.259908 0.127320
H39   H     H_    0.543704 0.060589 0.239970 0.127318
H40   H     H_    0.956901 0.939111 0.740226 0.127306
H41   H     H_    0.525379 0.413770 0.753205 0.141218
H42   H     H_    0.974152 0.586411 0.253087 0.141186
H43   H     H_    0.026178 0.086484 0.246941 0.141174
H44   H     H_    0.474679 0.913791 0.746787 0.141221
C57   C     C_R   0.062456 0.588175 0.731270 0.106171
C58   C     C_R   0.168346 0.611448 0.685608 -0.143344
C59   C     C_R   0.268058 0.667460 0.690988 -0.110472
C60   C     C_R   0.265765 0.700622 0.742098 -0.119130
C61   C     C_R   0.162712 0.678034 0.787866 -0.132926
C62   C     C_R   0.060956 0.622427 0.782564 -0.131924
H45   H     H_    0.171531 0.586780 0.645383 0.102223
H46   H     H_    0.346814 0.685295 0.655459 0.127682
H47   H     H_    0.343397 0.743917 0.746178 0.102643
H48   H     H_    0.160685 0.703866 0.827468 0.103217
H49   H     H_    0.981390 0.606617 0.818659 0.100557
C63   C     C_R   0.437770 0.411716 0.231294 0.106153
C64   C     C_R   0.331545 0.388491 0.185677 -0.143417
C65   C     C_R   0.232059 0.332432 0.191047 -0.110450
C66   C     C_R   0.234943 0.299168 0.242101 -0.118995
C67   C     C_R   0.338310 0.321711 0.287826 -0.132805
C68   C     C_R   0.439799 0.377376 0.282538 -0.131818
H50   H     H_    0.327912 0.413236 0.145494 0.102193
H51   H     H_    0.153037 0.314635 0.155552 0.127618
H52   H     H_    0.157522 0.255828 0.246168 0.102593
H53   H     H_    0.340782 0.295801 0.327385 0.103163
H54   H     H_    0.519572 0.393165 0.318603 0.100521
C69   C     C_R   0.562210 0.911620 0.268681 0.106126
C70   C     C_R   0.668495 0.888426 0.314300 -0.143434
C71   C     C_R   0.768080 0.832384 0.308938 -0.110465
C72   C     C_R   0.765235 0.799107 0.257892 -0.119002
C73   C     C_R   0.661762 0.821608 0.212171 -0.132773
C74   C     C_R   0.560150 0.877251 0.217453 -0.131756
H55   H     H_    0.672126 0.913186 0.354476 0.102204
H56   H     H_    0.847168 0.814612 0.344430 0.127624
H57   H     H_    0.842762 0.755788 0.253828 0.102591
H58   H     H_    0.659316 0.795683 0.172620 0.103150
H59   H     H_    0.480285 0.893007 0.181394 0.100486
C75   C     C_R   0.937516 0.088166 0.768735 0.106160
C76   C     C_R   0.831647 0.111442 0.814401 -0.143339
C77   C     C_R   0.731968 0.167463 0.809027 -0.110462
C78   C     C_R   0.734268 0.200631 0.757920 -0.119128
C79   C     C_R   0.837285 0.178037 0.712147 -0.132925
C80   C     C_R   0.939007 0.122420 0.717441 -0.131929
H60   H     H_    0.828465 0.086771 0.854624 0.102219
H61   H     H_    0.653241 0.185302 0.844562 0.127687
H62   H     H_    0.656670 0.243934 0.753847 0.102642
H63   H     H_    0.839315 0.203873 0.672547 0.103217
H64   H     H_    0.018551 0.106605 0.681343 0.100563

loop_
_geom_bond_atom_site_label_1
_geom_bond_atom_site_label_2
_ccdc_geom_bond_type
O17   V3    S    
C15   H7    S    
C64   H50   S    
C14   C26   S    
O1    C5    A    
C58   C59   A    
C13   C25   S    
O12   V4    S    
O19   V1    S    
O13   V1    S    
H4    C32   S    
O3    C7    A    
C69   C70   A    
C17   H17   S    
C36   C40   S    
O15   V3    S    
C60   C61   A    
C18   H14   S    
C78   C79   A    
C19   H19   S    
C22   C46   T    
C2    C23   S    
C20   H20   S    
O7    C3    A    
C11   C31   S    
C32   H40   S    
C8    C54   S    
C38   H30   S    
H1    C29   S    
C26   C50   S    
O7    V3    S    
C14   C18   S    
C25   C49   S    
C65   H51   S    
C17   C33   S    
O4    C8    A    
C51   C55   T    
C27   C51   S    
C50   C54   T    
C19   C35   S    
O1    V3    S    
O2    V4    S    
O3    V1    S    
C59   H46   S    
C41   H21   S    
C12   C32   S    
C28   C44   S    
C57   C62   A    
C1    O15   A    
C15   H11   S    
C62   H49   S    
C2    O16   A    
C16   H12   S    
O2    C6    A    
C73   C74   A    
C11   H35   S    
O14   V2    S    
C10   C63   S    
C10   C26   S    
C35   C47   S    
C78   H62   S    
C3    C22   S    
C19   H15   S    
C13   H9    S    
O11   C7    A    
C11   C27   S    
O12   C8    A    
C42   H26   S    
O10   V2    S    
C41   H25   S    
C23   C47   T    
C9    C25   S    
C44   H24   S    
O5    V1    S    
C30   H38   S    
C29   H37   S    
O8    V4    S    
C32   C36   S    
C20   C36   S    
C31   H39   S    
C67   C68   A    
O18   V4    S    
C15   C19   S    
C38   C42   S    
C34   C46   S    
C79   H63   S    
C37   H41   S    
C36   C48   S    
C21   C45   T    
C71   H56   S    
O5    C1    A    
C63   C68   A    
C13   H5    S    
C66   H52   S    
C34   C38   S    
C4    C21   S    
C76   C77   A    
C14   H10   S    
C33   C37   S    
O8    C4    A    
C33   C45   S    
C9    C57   S    
O9    C5    A    
C11   C69   S    
C73   H58   S    
C70   C71   A    
C68   H54   S    
C10   C30   S    
C26   C42   S    
C43   H23   S    
C75   C80   A    
C9    C29   S    
O6    V2    S    
C37   H29   S    
C18   C34   S    
C72   H57   S    
C57   C58   A    
C27   C43   S    
C10   H34   S    
C70   H55   S    
C59   C60   A    
C12   H36   S    
C49   C53   T    
H2    C30   S    
C25   C41   S    
C79   C80   A    
O16   V4    S    
O9    V1    S    
C18   H18   S    
C74   H59   S    
C3    O13   A    
C15   C27   S    
C16   C28   S    
C7    C53   S    
C72   C73   A    
C40   C44   S    
C63   C64   A    
C39   C43   S    
O6    C2    A    
C66   C67   A    
O11   V3    S    
C14   H6    S    
C12   C75   S    
C40   H44   S    
C64   C65   A    
C67   H53   S    
C9    H33   S    
C77   C78   A    
O10   C6    A    
C77   H61   S    
C69   C74   A    
C61   C62   A    
C1    C24   S    
C17   H13   S    
C16   H8    S    
C60   H47   S    
C35   C39   S    
C75   C76   A    
C58   H45   S    
C20   H16   S    
C5    C55   S    
C52   C56   T    
O20   V2    S    
C24   C48   T    
C80   H64   S    
C39   H31   S    
C13   C17   S    
O4    V2    S    
C6    C56   S    
C65   C66   A    
H3    C31   S    
C61   H48   S    
C28   C52   S    
C44   H28   S    
C16   C20   S    
C43   H27   S    
C30   C34   S    
C4    O14   A    
C29   C33   S    
C76   H60   S    
C40   H32   S    
C39   H43   S    
C71   C72   A    
C31   C35   S    
C38   H42   S    
C37   C41   S    
C12   C28   S    
C42   H22   S    
