data_mof_unit_54732.cif
_audit_creation_date              2013-03-05T15:49:57-0500
_audit_creation_method            fapswitch 2.2
_symmetry_space_group_name_H-M    P1
_symmetry_Int_Tables_number       1
_space_group_crystal_system       triclinic
_cell_length_a                    13.570336
_cell_length_b                    13.582494
_cell_length_c                    27.653838
_cell_angle_alpha                 90.331926
_cell_angle_beta                  90.413035
_cell_angle_gamma                 120.021842
_cell_volume                      4412.89566775

loop_
_atom_site_label
_atom_site_type_symbol
_atom_site_description
_atom_site_fract_x
_atom_site_fract_y
_atom_site_fract_z
_atom_type_partial_charge
O1    O     O_R   0.302900 0.805360 0.446400 -0.488123
O2    O     O_R   0.522090 0.841370 0.450730 -0.495746
C1    C     C_R   0.619435 0.898136 0.431329 0.546860
O3    O     O_R   0.693280 0.995650 0.447220 -0.491984
O4    O     O_R   0.657260 0.178740 0.451050 -0.490433
C2    C     C_R   0.599708 0.218685 0.431334 0.548554
O5    O     O_R   0.502640 0.195380 0.446850 -0.501354
O6    O     O_R   0.319630 0.976590 0.450330 -0.490024
C3    C     C_R   0.278915 0.878530 0.430674 0.556891
O7    O     O_R   0.303680 0.807790 0.552740 -0.486262
O8    O     O_R   0.522820 0.843620 0.549310 -0.485992
C4    C     C_R   0.620697 0.901512 0.569098 0.542928
O9    O     O_R   0.694060 0.998080 0.553560 -0.506481
O10   O     O_R   0.657980 0.180990 0.549630 -0.499626
C5    C     C_R   0.601021 0.221569 0.568760 0.573225
O11   O     O_R   0.503420 0.197810 0.553190 -0.501537
O12   O     O_R   0.320350 0.978840 0.548910 -0.467477
C6    C     C_R   0.282908 0.882602 0.569165 0.603833
Cr1   Cr    Cr6+3 0.417720 0.831920 0.499820 1.053444
Cr2   Cr    Cr6+3 0.668190 0.085770 0.500360 1.053189
Cr3   Cr    Cr6+3 0.414060 0.082260 0.499840 1.092598
O13   O     O_3   0.499990 0.999990 0.500010 -0.279352
C7    C     C_1   0.630788 0.264775 0.383729 -0.000344
C8    C     C_R   0.764774 0.394361 0.271300 -0.101998
C9    C     C_R   0.775870 0.410059 0.221239 -0.090851
C10   C     C_R   0.583083 0.253802 0.209252 -0.080105
C11   C     C_R   0.571766 0.238550 0.259255 -0.089635
C12   C     C_R   0.662149 0.309306 0.290436 0.026792
C13   C     C_R   0.685025 0.339791 0.190117 0.034345
C14   C     C_1   0.693457 0.362568 0.139105 -0.032067
C15   C     C_1   0.648891 0.290421 0.341735 -0.050024
C16   C     C_1   0.701569 0.389690 0.097266 0.014958
H1    H     H_    0.835782 0.448565 0.294920 0.144032
H2    H     H_    0.854618 0.477828 0.206842 0.154250
H3    H     H_    0.511923 0.199771 0.185627 0.141232
H4    H     H_    0.492327 0.171779 0.273636 0.127001
C17   C     C_1   0.229379 0.860655 0.383215 0.034328
C18   C     C_R   0.164106 0.916213 0.265220 -0.148520
C19   C     C_R   0.152724 0.910684 0.214966 -0.152283
C20   C     C_R   0.161054 0.735616 0.213610 0.239537
C21   C     C_R   0.173529 0.741812 0.264589 0.217858
C22   C     C_R   0.174394 0.832523 0.290208 -0.025831
C23   C     C_R   0.151640 0.821482 0.188961 0.002876
C24   C     C_1   0.127219 0.811395 0.137732 0.019241
C25   C     C_1   0.199568 0.847570 0.341380 0.002315
C26   C     C_1   0.098280 0.794364 0.095783 0.038501
H5    H     H_    0.166538 0.986960 0.284619 0.149299
H6    H     H_    0.143372 0.975569 0.196342 0.140926
C27   C     C_1   0.634381 0.864825 0.383847 0.017502
C28   C     C_R   0.724368 0.797928 0.271849 0.277410
C29   C     C_R   0.731166 0.788990 0.221619 -0.135566
C30   C     C_R   0.575615 0.827945 0.209197 0.231253
C31   C     C_R   0.571053 0.838716 0.259701 -0.113202
C32   C     C_R   0.645220 0.824977 0.290823 0.005282
C33   C     C_R   0.657993 0.803775 0.190173 -0.022107
C34   C     C_1   0.673488 0.796508 0.138927 0.025489
C35   C     C_1   0.641378 0.843745 0.342006 0.008628
C36   C     C_1   0.692405 0.787373 0.097068 0.041240
H7    H     H_    0.795258 0.771961 0.207108 0.123771
H8    H     H_    0.509735 0.858696 0.275018 0.170141
C37   C     C_R   0.625802 0.253885 0.618997 0.062765
C38   C     C_R   0.734403 0.337880 0.635065 0.263161
C39   C     C_R   0.753952 0.357205 0.685083 -0.084597
C40   C     C_R   0.668729 0.287271 0.717368 0.001420
C41   C     C_R   0.565952 0.196689 0.700691 -0.094878
C42   C     C_R   0.543245 0.182112 0.651811 -0.137815
C43   C     C_R   0.599434 0.350799 0.786447 0.232467
C44   C     C_R   0.602076 0.371824 0.835653 -0.090547
C45   C     C_R   0.761470 0.339882 0.846809 -0.092454
C46   C     C_R   0.755726 0.312114 0.798033 -0.147521
C47   C     C_R   0.676548 0.319407 0.767801 0.006041
C48   C     C_R   0.686182 0.372338 0.865492 -0.017258
H9    H     H_    0.544576 0.398106 0.849689 0.202660
H10   H     H_    0.832195 0.428851 0.698725 0.116949
H11   H     H_    0.813756 0.286606 0.783658 0.128650
H12   H     H_    0.826385 0.339321 0.869569 0.161961
H13   H     H_    0.501155 0.141320 0.725734 0.176837
H14   H     H_    0.461925 0.112400 0.639471 0.141535
C49   C     C_R   0.244796 0.870948 0.619328 -0.005283
C50   C     C_R   0.178528 0.918113 0.636042 0.153140
C51   C     C_R   0.161275 0.920428 0.685978 -0.055711
C52   C     C_R   0.213284 0.881819 0.718742 -0.019740
C53   C     C_R   0.282877 0.841139 0.701979 -0.135567
C54   C     C_R   0.292196 0.827537 0.652976 0.200718
C55   C     C_R   0.132905 0.745504 0.783544 -0.147419
C56   C     C_R   0.098298 0.712480 0.830561 0.253322
C57   C     C_R   0.141648 0.905798 0.849118 -0.154503
C58   C     C_R   0.182666 0.940776 0.802226 0.202558
C59   C     C_R   0.177022 0.858382 0.769128 -0.027656
C60   C     C_R   0.098804 0.792448 0.863367 -0.014539
H15   H     H_    0.123191 0.681059 0.757536 0.117465
H16   H     H_    0.103970 0.948027 0.699226 0.187365
H17   H     H_    0.142790 0.967098 0.874686 0.174788
H18   H     H_    0.322570 0.810269 0.727221 0.129610
C61   C     C_R   0.630718 0.880272 0.619697 0.073582
C62   C     C_R   0.629626 0.782157 0.635283 -0.116792
C63   C     C_R   0.629695 0.762424 0.684814 -0.098816
C64   C     C_R   0.627931 0.839459 0.718704 0.037777
C65   C     C_R   0.626377 0.936128 0.702371 -0.101401
C66   C     C_R   0.629441 0.956994 0.653331 -0.071947
C67   C     C_R   0.701293 0.915730 0.801314 -0.113398
C68   C     C_R   0.716758 0.900330 0.850065 0.171576
C69   C     C_R   0.588524 0.696051 0.839032 0.219154
C70   C     C_R   0.573443 0.713703 0.790558 -0.109757
C71   C     C_R   0.633440 0.822542 0.770964 -0.064799
C72   C     C_R   0.668524 0.788326 0.868077 0.000960
H19   H     H_    0.628626 0.721545 0.609378 0.120661
H20   H     H_    0.744964 0.000915 0.786870 0.156933
H21   H     H_    0.632136 0.687770 0.696582 0.151870
H22   H     H_    0.516729 0.641435 0.768023 0.161969
H23   H     H_    0.622112 0.995426 0.727429 0.101649
H24   H     H_    0.627509 0.031768 0.641396 0.107738
O14   O     O_R   0.819150 0.845650 0.033320 -0.490744
O15   O     O_R   0.006060 0.815720 0.028680 -0.506900
C73   C     C_R   0.049542 0.761201 0.048211 0.542968
O16   O     O_R   0.028100 0.664460 0.032550 -0.484217
O17   O     O_R   0.811290 0.477490 0.029660 -0.488413
C74   C     C_R   0.714425 0.435777 0.049726 0.549272
O18   O     O_R   0.638120 0.455970 0.034270 -0.507062
O19   O     O_R   0.667540 0.672320 0.030160 -0.498057
C75   C     C_R   0.723564 0.770851 0.049502 0.553979
O20   O     O_R   0.814460 0.840990 0.926980 -0.454900
O21   O     O_R   0.001710 0.811400 0.930110 -0.509408
C76   C     C_R   0.042584 0.754907 0.910102 0.564861
O22   O     O_R   0.023410 0.659800 0.926210 -0.463052
O23   O     O_R   0.806940 0.473170 0.931090 -0.485616
C77   C     C_R   0.707417 0.428581 0.912458 0.559383
O24   O     O_R   0.633420 0.451310 0.927930 -0.514688
O25   O     O_R   0.663190 0.668000 0.931580 -0.468380
C78   C     C_R   0.715391 0.766261 0.912484 0.590265
Cr4   Cr    Cr6+3 0.908000 0.821090 0.979770 1.085835
Cr5   Cr    Cr6+3 0.912420 0.571130 0.979880 1.072940
Cr6   Cr    Cr6+3 0.657970 0.566940 0.980940 1.048081
O26   O     O_3   0.826130 0.653050 0.980200 -0.274226
N1    N     N_R   0.498197 0.843861 0.178543 0.111625
O27   O     O_R   0.474912 0.803246 0.134604 -0.281410
O28   O     O_R   0.445140 0.894105 0.195448 -0.343458
O29   O     O_3   0.814770 0.406280 0.601521 -0.548207
C79   C     C_3   0.917012 0.404373 0.608784 -0.012591
H25   H     H_    0.900657 0.316397 0.615178 0.140251
H26   H     H_    0.966183 0.460353 0.639823 0.117462
C80   C     C_3   0.989454 0.449029 0.563770 -0.343440
H27   H     H_    0.011068 0.538196 0.557159 0.172820
H28   H     H_    0.069445 0.446505 0.568686 0.097114
H29   H     H_    0.942243 0.395520 0.531899 0.176035
N2    N     N_R   0.523274 0.368416 0.755781 0.102062
O30   O     O_R   0.428856 0.356232 0.773032 -0.279824
O31   O     O_R   0.555920 0.414257 0.713457 -0.334921
N3    N     N_R   0.123763 0.957941 0.603115 0.087874
O32   O     O_R   0.098170 0.033889 0.617282 -0.308599
O33   O     O_R   0.087377 0.909543 0.560948 -0.327430
O34   O     O_3   0.048738 0.598464 0.842080 -0.529775
C81   C     C_3   0.134198 0.568167 0.845027 -0.016892
H30   H     H_    0.197488 0.618463 0.873981 0.133607
H31   H     H_    0.179045 0.581349 0.810042 0.110040
C82   C     C_3   0.079498 0.442754 0.857211 -0.333939
H32   H     H_    0.014964 0.390705 0.829162 0.168164
H33   H     H_    0.145180 0.416983 0.858261 0.118449
H34   H     H_    0.038012 0.426723 0.893032 0.171861
N4    N     N_R   0.228683 0.058295 0.789334 0.090710
O35   O     O_R   0.201291 0.123098 0.813789 -0.308434
O36   O     O_R   0.305482 0.104121 0.756087 -0.316947
O37   O     O_3   0.350733 0.773612 0.638334 -0.531683
C83   C     C_3   0.275383 0.654890 0.640675 0.002476
H35   H     H_    0.197069 0.629214 0.618552 0.131750
H36   H     H_    0.250690 0.627746 0.678725 0.114159
C84   C     C_3   0.333019 0.592033 0.620862 -0.338994
H37   H     H_    0.404636 0.606185 0.644989 0.165217
H38   H     H_    0.270988 0.499387 0.619115 0.114538
H39   H     H_    0.365298 0.622148 0.583952 0.176940
N5    N     N_R   0.781265 0.998686 0.880638 0.094777
O38   O     O_R   0.862649 0.092425 0.862720 -0.343702
O39   O     O_R   0.748011 0.000204 0.924529 -0.318141
O40   O     O_3   0.533335 0.586147 0.856085 -0.532559
C85   C     C_3   0.427237 0.562893 0.874626 -0.001861
H40   H     H_    0.370507 0.561601 0.845006 0.123079
H41   H     H_    0.437793 0.627161 0.902558 0.128461
C86   C     C_3   0.370289 0.446849 0.898391 -0.334758
H42   H     H_    0.426657 0.444655 0.927141 0.178654
H43   H     H_    0.289176 0.429820 0.915073 0.098936
H44   H     H_    0.352057 0.379499 0.871033 0.203287
N6    N     N_R   0.153529 0.640246 0.187362 0.104825
O41   O     O_R   0.210260 0.655681 0.147700 -0.250013
O42   O     O_R   0.088508 0.537208 0.202686 -0.296775
N7    N     N_R   0.190292 0.659096 0.289911 0.101773
O43   O     O_R   0.265741 0.633684 0.275081 -0.266615
O44   O     O_R   0.131881 0.610509 0.328396 -0.334699
O45   O     O_3   0.801822 0.790171 0.302003 -0.545015
C87   C     C_3   0.764360 0.674170 0.309838 -0.015179
H45   H     H_    0.763104 0.630370 0.275448 0.129580
H46   H     H_    0.677747 0.630389 0.325894 0.145399
C88   C     C_3   0.845754 0.664741 0.345084 -0.346443
H47   H     H_    0.852306 0.711487 0.379145 0.179594
H48   H     H_    0.813913 0.574094 0.353700 0.107667
H49   H     H_    0.931450 0.701130 0.328850 0.173511

loop_
_geom_bond_atom_site_label_1
_geom_bond_atom_site_label_2
_geom_bond_distance
_ccdc_geom_bond_type
C14   C16   1.205276 T    
C57   C58   1.403578 A    
O37   C83   1.415009 S    
O11   Cr3   2.037949 S    
C45   C48   1.400265 A    
C21   C22   1.412594 A    
C61   C62   1.396038 A    
N5    O38   1.301703 A    
Cr4   O26   1.976589 S    
C28   O45   1.382172 S    
O15   C73   1.274959 A    
C1    C27   1.434831 S    
N1    O27   1.301104 A    
C84   H38   1.110472 S    
O4    Cr2   1.918455 S    
C31   C32   1.402076 A    
C30   C31   1.408463 A    
C4    O9    1.265773 A    
N5    O39   1.301618 A    
O8    Cr1   1.917024 S    
C10   C11   1.397541 A    
O18   Cr6   2.035812 S    
C64   C71   1.471876 S    
C26   C73   1.432978 S    
C83   H35   1.114722 S    
N2    O30   1.301616 A    
C56   O34   1.385142 S    
C45   C46   1.389552 A    
N3    O33   1.301435 A    
O4    C2    1.273937 A    
C79   C80   1.521036 S    
N7    O44   1.301254 A    
C43   C47   1.412255 A    
N6    O42   1.301279 A    
C5    O11   1.267378 A    
C27   C35   1.206125 T    
C45   H12   1.082133 S    
N1    O28   1.302111 A    
O19   Cr6   1.925375 S    
O15   Cr4   1.917763 S    
C40   C47   1.446141 S    
C87   H46   1.115083 S    
O17   Cr5   1.922758 S    
O40   C85   1.411775 S    
C69   C70   1.394688 A    
C74   O18   1.268585 A    
C51   H16   1.083379 S    
C37   C42   1.400334 A    
C20   C23   1.413592 A    
C38   C39   1.404738 A    
C53   C54   1.381808 A    
O6    C3    1.274982 A    
C4    C61   1.449423 S    
C46   C47   1.399208 A    
C84   H39   1.110412 S    
C20   N6    1.439066 S    
C30   C33   1.417014 A    
C9    H2    1.083430 S    
C67   H20   1.082625 S    
C58   N4    1.441287 S    
Cr3   O13   1.977964 S    
C67   C71   1.401676 A    
C80   H29   1.110830 S    
C87   H45   1.114314 S    
O24   Cr6   2.041878 S    
C43   N2    1.442835 S    
C70   C71   1.397537 A    
C31   H8    1.084048 S    
C24   C26   1.205358 T    
C63   C64   1.409861 A    
C85   C86   1.521141 S    
N2    O31   1.301439 A    
C12   C15   1.439551 S    
C9    C13   1.403277 A    
C50   N3    1.439557 S    
C42   H14   1.084452 S    
O1    Cr1   2.034317 S    
C41   H13   1.082330 S    
C48   C77   1.454741 S    
C43   C44   1.385270 A    
C67   C68   1.395848 A    
C86   H42   1.110153 S    
O21   C76   1.275919 A    
Cr1   O13   1.976654 S    
O1    C3    1.268632 A    
C8    C9    1.399638 A    
C85   H41   1.115633 S    
C56   C60   1.408490 A    
C84   H37   1.108530 S    
C55   C59   1.400003 A    
C61   C66   1.399430 A    
C6    C49   1.465535 S    
C19   C23   1.399017 A    
C28   C29   1.401378 A    
C44   H9    1.080935 S    
C55   C56   1.384578 A    
C53   H18   1.084979 S    
C69   O40   1.380636 S    
C51   C52   1.400240 A    
C1    O3    1.268997 A    
C49   C50   1.418375 A    
O45   C87   1.411344 S    
C22   C25   1.442474 S    
C7    C15   1.205619 T    
C87   C88   1.521138 S    
C23   C24   1.442604 S    
C88   H49   1.110470 S    
C13   C14   1.439020 S    
O10   Cr2   1.926116 S    
C63   H21   1.082802 S    
C85   H40   1.114047 S    
O16   Cr5   2.036440 S    
O23   Cr5   1.919693 S    
O7    Cr1   2.043207 S    
C44   C48   1.400716 A    
C65   H23   1.083050 S    
C62   C63   1.397315 A    
C33   C34   1.444203 S    
C3    C17   1.433023 S    
O12   C6    1.276141 A    
C5    C37   1.440225 S    
C21   N7    1.437672 S    
C28   C32   1.401653 A    
O34   C81   1.413317 S    
C81   C82   1.520251 S    
N6    O41   1.301143 A    
C52   C59   1.463963 S    
C18   H5    1.083653 S    
C54   O37   1.383763 S    
O25   Cr6   1.917861 S    
C20   C21   1.415656 A    
C38   O29   1.386981 S    
C62   H19   1.083042 S    
Cr2   O13   1.976338 S    
C52   C53   1.391984 A    
Cr6   O26   1.976366 S    
C80   H28   1.110475 S    
C29   H7    1.084555 S    
C17   C25   1.205243 T    
C77   O24   1.265549 A    
C55   H15   1.084773 S    
O20   Cr4   2.033884 S    
C46   H11   1.083564 S    
O19   C75   1.273908 A    
O25   C78   1.276489 A    
C68   N5    1.439380 S    
C72   C78   1.478531 S    
C82   H32   1.110275 S    
C36   C75   1.434903 S    
O14   Cr4   2.044628 S    
O9    Cr2   2.034082 S    
O21   Cr4   1.926388 S    
O2    Cr1   1.926963 S    
C18   C19   1.394579 A    
C60   C76   1.464561 S    
C82   H34   1.110619 S    
C8    C12   1.400683 A    
C16   C74   1.433253 S    
C50   C51   1.405082 A    
O6    Cr3   1.920456 S    
C86   H43   1.109837 S    
C79   H25   1.116255 S    
C66   H24   1.082357 S    
C2    O5    1.269616 A    
C39   H10   1.082924 S    
C11   H4    1.083891 S    
C81   H31   1.113491 S    
C8    H1    1.082896 S    
C65   C66   1.383704 A    
C88   H47   1.110697 S    
C82   H33   1.108960 S    
O2    C1    1.274045 A    
C41   C42   1.375187 A    
O5    Cr3   2.038707 S    
N3    O32   1.301544 A    
C40   C41   1.392369 A    
C70   H22   1.083615 S    
C79   H26   1.112038 S    
O22   Cr5   2.039509 S    
N7    O43   1.301412 A    
C49   C54   1.415811 A    
O7    C6    1.265478 A    
O23   C77   1.274420 A    
C2    C7    1.433926 S    
C57   H17   1.083280 S    
C83   H36   1.114178 S    
C34   C36   1.206533 T    
C68   C72   1.417026 A    
C69   C72   1.417320 A    
C29   C33   1.404155 A    
C83   C84   1.519804 S    
C37   C38   1.404691 A    
N4    O35   1.301687 A    
O12   Cr3   1.921243 S    
C86   H44   1.110506 S    
O29   C79   1.413519 S    
C39   C40   1.400845 A    
O3    Cr2   2.043811 S    
C18   C22   1.398442 A    
C10   H3    1.083575 S    
O14   C75   1.268825 A    
C58   C59   1.413286 A    
C10   C13   1.399562 A    
Cr5   O26   1.978171 S    
C64   C65   1.401032 A    
C57   C60   1.406487 A    
C11   C12   1.402540 A    
C80   H27   1.110912 S    
C30   N1    1.444164 S    
O10   C5    1.268828 A    
C76   O22   1.267620 A    
C81   H30   1.114484 S    
O17   C74   1.275031 A    
O20   C78   1.272939 A    
C73   O16   1.267987 A    
O8    C4    1.273323 A    
N4    O36   1.300077 A    
C19   H6    1.083654 S    
C32   C35   1.442666 S    
C88   H48   1.109913 S    
