data_mof_unit_36422.cif
_audit_creation_date              2012-12-11T14:07:51-0500
_audit_creation_method            fapswitch 2.2
_symmetry_space_group_name_H-M    P1
_symmetry_Int_Tables_number       1
_space_group_crystal_system       triclinic
_cell_length_a                    19.74519
_cell_length_b                    17.135376
_cell_length_c                    15.369599
_cell_angle_alpha                 90.0
_cell_angle_beta                  53.497162
_cell_angle_gamma                 90.000011
_cell_volume                      4180.03864041

loop_
_atom_site_label
_atom_site_type_symbol
_atom_type_description
_atom_site_fract_x
_atom_site_fract_y
_atom_site_fract_z
_atom_type_partial_charge
C1    C     C_R   0.374708 0.196714 0.995807 -0.121770
C2    C     C_R   0.374708 0.803286 0.995808 -0.121771
C3    C     C_R   0.874708 0.696714 0.995808 -0.121770
C4    C     C_R   0.874708 0.303286 0.995807 -0.121770
C5    C     C_R   0.665082 0.911707 0.058825 -0.142571
C6    C     C_R   0.665082 0.088293 0.058825 -0.142571
C7    C     C_R   0.165082 0.411707 0.058825 -0.142571
C8    C     C_R   0.165082 0.588293 0.058825 -0.142572
C9    C     C_R   0.706093 0.151435 0.989045 0.158571
C10   C     C_R   0.706093 0.848564 0.989045 0.158571
C11   C     C_R   0.206093 0.651435 0.989045 0.158571
C12   C     C_R   0.206093 0.348564 0.989045 0.158571
C13   C     C_R   0.611574 0.818045 0.695142 0.050730
C14   C     C_R   0.611574 0.181954 0.695142 0.050728
C15   C     C_R   0.111574 0.318045 0.695142 0.050731
C16   C     C_R   0.111574 0.681954 0.695142 0.050730
C17   C     C_3   0.200751 0.133782 0.519928 -0.392530
C18   C     C_3   0.200751 0.866218 0.519928 -0.392529
C19   C     C_3   0.700751 0.633782 0.519928 -0.392529
C20   C     C_3   0.700744 0.366217 0.519925 -0.392523
C21   C     C_3   0.146602 0.181287 0.624793 -0.375689
C22   C     C_3   0.146602 0.818713 0.624793 -0.375688
C23   C     C_3   0.646602 0.681287 0.624793 -0.375688
C24   C     C_3   0.646598 0.318712 0.624791 -0.375686
C25   C     C_3   0.309471 0.242860 0.440618 -0.385173
C26   C     C_3   0.309471 0.757140 0.440618 -0.385173
C27   C     C_3   0.809471 0.742860 0.440618 -0.385172
C28   C     C_3   0.809472 0.257146 0.440625 -0.385169
C29   C     C_3   0.695007 0.740618 0.413005 -0.448437
C30   C     C_3   0.695015 0.259372 0.412998 -0.448445
C31   C     C_3   0.195007 0.240618 0.413004 -0.448438
C32   C     C_3   0.195008 0.759381 0.413004 -0.448438
C33   C     C_3   0.255792 0.189806 0.421894 0.343248
C34   C     C_3   0.255792 0.810194 0.421894 0.343248
C35   C     C_3   0.755792 0.689806 0.421894 0.343247
C36   C     C_3   0.755792 0.310193 0.421893 0.343249
C37   C     C_3   0.659174 0.769848 0.597834 0.293440
C38   C     C_3   0.659175 0.230151 0.597834 0.293439
C39   C     C_3   0.159174 0.269848 0.597834 0.293440
C40   C     C_3   0.159174 0.730152 0.597834 0.293440
C41   C     C_3   0.752754 0.791009 0.542597 -0.441816
C42   C     C_3   0.752755 0.208994 0.542601 -0.441817
C43   C     C_3   0.252754 0.291009 0.542598 -0.441814
C44   C     C_3   0.252754 0.708991 0.542598 -0.441814
C45   C     C_R   0.353852 0.824288 0.219049 -0.138526
C46   C     C_R   0.353852 0.175712 0.219049 -0.138527
C47   C     C_R   0.853853 0.324288 0.219049 -0.138529
C48   C     C_R   0.853852 0.675712 0.219049 -0.138528
C49   C     C_3   0.636925 0.787925 0.517806 0.080174
C50   C     C_3   0.636930 0.212069 0.517801 0.080178
C51   C     C_3   0.136925 0.287925 0.517806 0.080174
C52   C     C_3   0.136925 0.712075 0.517806 0.080174
C53   C     C_2   0.278600 0.690189 0.969356 -0.205931
C54   C     C_2   0.278601 0.309811 0.969355 -0.205932
C55   C     C_2   0.778600 0.190189 0.969356 -0.205931
C56   C     C_2   0.778600 0.809811 0.969355 -0.205931
C57   C     C_2   0.807940 0.255277 0.909778 -0.150010
C58   C     C_2   0.807940 0.744723 0.909779 -0.150011
C59   C     C_2   0.307940 0.755277 0.909779 -0.150010
C60   C     C_2   0.307941 0.244723 0.909778 -0.150016
C61   C     C_R   0.364736 0.889589 0.897458 -0.132929
C62   C     C_R   0.364736 0.110411 0.897458 -0.132930
C63   C     C_R   0.864736 0.389589 0.897458 -0.132930
C64   C     C_R   0.864736 0.610411 0.897458 -0.132930
C65   C     C_R   0.365611 0.087391 0.316534 -0.132586
C66   C     C_R   0.365611 0.912609 0.316534 -0.132587
C67   C     C_R   0.865611 0.587391 0.316534 -0.132588
C68   C     C_R   0.865611 0.412609 0.316534 -0.132588
C69   C     C_R   0.346354 0.186073 0.934298 0.151603
C70   C     C_R   0.346354 0.813927 0.934298 0.151604
C71   C     C_R   0.846354 0.686073 0.934298 0.151603
C72   C     C_R   0.846354 0.313927 0.934298 0.151604
C73   C     C_R   0.315582 0.853390 0.322445 0.017559
C74   C     C_R   0.315582 0.146609 0.322445 0.017559
C75   C     C_R   0.815582 0.353390 0.322444 0.017559
C76   C     C_R   0.815582 0.646609 0.322445 0.017559
C77   C     C_R   0.657924 0.180023 0.958091 -0.120425
C78   C     C_R   0.657924 0.819977 0.958091 -0.120425
C79   C     C_R   0.157924 0.680023 0.958091 -0.120425
C80   C     C_R   0.157924 0.319977 0.958091 -0.120425
C81   C     C_R   0.602137 0.802187 0.789952 -0.138072
C82   C     C_R   0.602137 0.197813 0.789952 -0.138075
C83   C     C_R   0.102137 0.302187 0.789952 -0.138073
C84   C     C_R   0.102137 0.697813 0.789952 -0.138073
C85   C     C_R   0.594786 0.104135 0.694780 -0.131768
C86   C     C_R   0.594786 0.895865 0.694780 -0.131769
C87   C     C_R   0.094786 0.604135 0.694780 -0.131769
C88   C     C_R   0.094786 0.395865 0.694780 -0.131769
H1    H     H_    0.383919 0.251470 0.022176 0.081960
H2    H     H_    0.383919 0.748530 0.022176 0.081960
H3    H     H_    0.883919 0.751470 0.022176 0.081960
H4    H     H_    0.883919 0.248530 0.022175 0.081960
H5    H     H_    0.159551 0.097980 0.508506 0.175471
H6    H     H_    0.159551 0.902019 0.508506 0.175470
H7    H     H_    0.659551 0.597980 0.508507 0.175470
H8    H     H_    0.659541 0.402010 0.508499 0.175477
H9    H     H_    0.579218 0.664639 0.669798 0.192954
H10   H     H_    0.579213 0.335357 0.669797 0.192954
H11   H     H_    0.079218 0.164640 0.669798 0.192955
H12   H     H_    0.079217 0.835360 0.669798 0.192955
H13   H     H_    0.166548 0.166047 0.676762 0.147689
H14   H     H_    0.166548 0.833953 0.676762 0.147688
H15   H     H_    0.666549 0.666047 0.676762 0.147688
H16   H     H_    0.666545 0.333955 0.676759 0.147689
H17   H     H_    0.352435 0.207073 0.448931 0.180057
H18   H     H_    0.352434 0.792927 0.448931 0.180056
H19   H     H_    0.852435 0.707073 0.448931 0.180056
H20   H     H_    0.852427 0.292939 0.448947 0.180054
H21   H     H_    0.770234 0.780020 0.598402 0.190528
H22   H     H_    0.770231 0.219983 0.598410 0.190526
H23   H     H_    0.270234 0.280020 0.598402 0.190527
H24   H     H_    0.270234 0.719980 0.598403 0.190527
H25   H     H_    0.730560 0.782543 0.344713 0.136910
H26   H     H_    0.730574 0.217445 0.344711 0.136910
H27   H     H_    0.230560 0.282543 0.344713 0.136910
H28   H     H_    0.230560 0.717457 0.344713 0.136910
H29   H     H_    0.657760 0.702789 0.397038 0.195905
H30   H     H_    0.657770 0.297195 0.397020 0.195904
H31   H     H_    0.157760 0.202789 0.397037 0.195906
H32   H     H_    0.157761 0.797210 0.397037 0.195906
H33   H     H_    0.648729 0.850518 0.494471 0.092511
H34   H     H_    0.648735 0.149475 0.494470 0.092508
H35   H     H_    0.148730 0.350519 0.494471 0.092511
H36   H     H_    0.148730 0.649481 0.494471 0.092511
H37   H     H_    0.349494 0.282698 0.370360 0.160621
H38   H     H_    0.349495 0.717301 0.370360 0.160621
H39   H     H_    0.849494 0.782698 0.370359 0.160621
H40   H     H_    0.849504 0.217310 0.370366 0.160623
H41   H     H_    0.336935 0.773285 0.194968 0.092670
H42   H     H_    0.336934 0.226715 0.194968 0.092670
H43   H     H_    0.836935 0.273286 0.194967 0.092672
H44   H     H_    0.836934 0.726715 0.194968 0.092670
H45   H     H_    0.763851 0.854154 0.521106 0.163238
H46   H     H_    0.763855 0.145849 0.521106 0.163240
H47   H     H_    0.263851 0.354154 0.521106 0.163238
H48   H     H_    0.263851 0.645846 0.521106 0.163238
H49   H     H_    0.297045 0.672331 0.020149 0.120704
H50   H     H_    0.297045 0.327669 0.020148 0.120704
H51   H     H_    0.797045 0.172331 0.020149 0.120704
H52   H     H_    0.797045 0.827669 0.020148 0.120704
H53   H     H_    0.791310 0.272084 0.856711 0.138786
H54   H     H_    0.791310 0.727916 0.856711 0.138786
H55   H     H_    0.291310 0.772084 0.856711 0.138786
H56   H     H_    0.291311 0.227916 0.856711 0.138786
H57   H     H_    0.360118 0.915556 0.836997 0.111750
H58   H     H_    0.360118 0.084444 0.836997 0.111750
H59   H     H_    0.860118 0.415556 0.836997 0.111750
H60   H     H_    0.860118 0.584444 0.836997 0.111750
H61   H     H_    0.363302 0.061697 0.382071 0.088702
H62   H     H_    0.363302 0.938303 0.382071 0.088702
H63   H     H_    0.863302 0.561696 0.382071 0.088702
H64   H     H_    0.863301 0.438302 0.382072 0.088701
H65   H     H_    0.667723 0.230947 0.910590 0.089131
H66   H     H_    0.667723 0.769052 0.910590 0.089130
H67   H     H_    0.167723 0.730947 0.910591 0.089131
H68   H     H_    0.167723 0.269053 0.910590 0.089131
H69   H     H_    0.605062 0.746121 0.819645 0.086243
H70   H     H_    0.605063 0.253879 0.819643 0.086244
H71   H     H_    0.105062 0.246121 0.819645 0.086243
H72   H     H_    0.105062 0.753879 0.819645 0.086244
H73   H     H_    0.591171 0.072642 0.636827 0.101988
H74   H     H_    0.591172 0.927357 0.636826 0.101986
H75   H     H_    0.091172 0.572643 0.636826 0.101987
H76   H     H_    0.091172 0.427357 0.636826 0.101987
H77   H     H_    0.682052 0.938293 0.106865 0.091634
H78   H     H_    0.682052 0.061707 0.106865 0.091634
H79   H     H_    0.182053 0.438293 0.106865 0.091634
H80   H     H_    0.182052 0.561707 0.106865 0.091634
H81   H     H_    0.239546 0.092661 0.529061 0.145916
H82   H     H_    0.239546 0.907339 0.529061 0.145916
H83   H     H_    0.739546 0.592661 0.529061 0.145915
H84   H     H_    0.739533 0.407346 0.529058 0.145910
N1    N     N_R   0.408680 0.130160 0.995800 -0.043623
N2    N     N_R   0.408680 0.869840 0.995800 -0.043623
N3    N     N_R   0.908680 0.630160 0.995800 -0.043623
N4    N     N_R   0.908680 0.369840 0.995800 -0.043623
N5    N     N_R   0.421680 0.867580 0.153120 -0.039225
N6    N     N_R   0.421680 0.132420 0.153120 -0.039225
N7    N     N_R   0.921680 0.367580 0.153120 -0.039225
N8    N     N_R   0.921680 0.632420 0.153120 -0.039225
N9    N     N_R   0.403730 0.921770 0.935950 -0.043302
N10   N     N_R   0.403730 0.078230 0.935950 -0.043302
N11   N     N_R   0.903730 0.421770 0.935950 -0.043302
N12   N     N_R   0.903730 0.578230 0.935950 -0.043302
N13   N     N_R   0.426630 0.075970 0.212960 -0.035478
N14   N     N_R   0.426630 0.924030 0.212960 -0.035478
N15   N     N_R   0.926630 0.575970 0.212960 -0.035478
N16   N     N_R   0.926630 0.424030 0.212960 -0.035477
N17   N     N_R   0.591320 0.134600 0.004200 -0.049962
N18   N     N_R   0.591320 0.865400 0.004200 -0.049962
N19   N     N_R   0.091320 0.634600 0.004200 -0.049962
N20   N     N_R   0.091320 0.365400 0.004200 -0.049962
N21   N     N_R   0.578320 0.867660 0.846880 -0.036993
N22   N     N_R   0.578320 0.132340 0.846880 -0.036993
N23   N     N_R   0.078320 0.367660 0.846880 -0.036993
N24   N     N_R   0.078320 0.632340 0.846880 -0.036993
N25   N     N_R   0.573370 0.074390 0.787040 -0.037207
N26   N     N_R   0.573370 0.925610 0.787040 -0.037206
N27   N     N_R   0.073370 0.574390 0.787040 -0.037206
N28   N     N_R   0.073370 0.425610 0.787040 -0.037206
N29   N     N_R   0.596270 0.927870 0.064040 -0.042414
N30   N     N_R   0.596270 0.072130 0.064040 -0.042414
N31   N     N_R   0.096270 0.427870 0.064040 -0.042414
N32   N     N_R   0.096270 0.572130 0.064040 -0.042414
Ni1   Ni    Ni4+2 0.500000 0.131190 0.000000 0.209597
Ni2   Ni    Ni4+2 0.500000 0.868810 0.000000 0.209597
Ni3   Ni    Ni4+2 1.000000 0.631190 0.000000 0.209597
Ni4   Ni    Ni4+2 1.000000 0.368810 0.000000 0.209597
Ni5   Ni    Ni4+2 0.488650 0.000000 0.862740 0.224779
Ni6   Ni    Ni4+2 0.988650 0.500000 0.862740 0.224779
Ni7   Ni    Ni4+2 0.511350 0.000000 0.137260 0.221553
Ni8   Ni    Ni4+2 0.011350 0.500000 0.137260 0.221553
I1    I     I_    0.505723 0.768547 0.587173 -0.527011
I2    I     I_    0.505730 0.231446 0.587160 -0.527011
I3    I     I_    0.005724 0.268547 0.587173 -0.527012
I4    I     I_    0.005724 0.731452 0.587172 -0.527011

loop_
_geom_bond_atom_site_label_1
_geom_bond_atom_site_label_2
_ccdc_geom_bond_type
C61   C70   A    
C44   H48   S    
N4    N11   A    
C87   H75   S    
C6    H78   S    
C45   H41   S    
C13   C81   A    
C61   H57   S    
C51   H35   S    
C46   N6    A    
C39   C51   S    
C50   H34   S    
C87   N27   A    
N30   Ni7   S    
C45   C73   A    
C25   C43   S    
C6    C9    A    
C41   H45   S    
C84   H72   S    
C26   C44   S    
C23   H9    S    
C54   C60   D    
C68   C75   A    
C1    N1    A    
C17   C33   S    
C37   C41   S    
C53   H49   S    
C49   H33   S    
C3    H3    S    
C36   C75   S    
C19   H83   S    
C38   C42   S    
N1    Ni1   S    
C5    N29   A    
C82   H70   S    
C17   H81   S    
C58   C71   S    
N22   N25   A    
C62   N10   A    
C50   I2    S    
N21   N26   A    
N6    Ni1   S    
C49   I1    S    
C52   I4    S    
C55   H51   S    
N5    Ni2   S    
N9    Ni5   S    
C26   H38   S    
C64   C71   A    
C63   H59   S    
C2    H2    S    
N26   Ni5   S    
C25   H37   S    
C85   H73   S    
C32   C52   S    
C47   N7    A    
C8    H80   S    
C81   H69   S    
C77   H65   S    
N6    N13   A    
C27   H39   S    
N18   Ni2   S    
C23   H15   S    
N23   Ni4   S    
C20   C24   S    
N17   Ni1   S    
C12   C54   S    
C78   N18   A    
C13   C86   A    
C16   C87   A    
C24   C38   S    
C31   C33   S    
C15   C88   A    
C86   H74   S    
C5    H77   S    
N8    Ni3   S    
C10   C56   S    
C13   C37   S    
C11   C53   S    
C45   N5    A    
C52   H36   S    
C21   H13   S    
C20   H8    S    
C59   H55   S    
C79   N19   A    
N14   Ni7   S    
C64   H60   S    
C83   N23   A    
C80   N20   A    
C26   H18   S    
C43   H23   S    
C32   H32   S    
N24   N27   A    
N2    N9    A    
C31   H27   S    
C19   C35   S    
C67   N15   A    
C80   H68   S    
C18   H82   S    
C53   C59   D    
C7    C12   A    
C30   C50   S    
C65   N13   A    
C35   C76   S    
C48   N8    A    
C63   N11   A    
C81   N21   A    
C25   H17   S    
C8    N32   A    
C22   H12   S    
C21   H11   S    
C19   C23   S    
C78   H66   S    
C20   C36   S    
C29   C49   S    
N7    N16   A    
C30   H30   S    
C27   C35   S    
C34   C73   S    
C40   C52   S    
C66   C73   A    
C29   H29   S    
C16   C84   A    
C1    C69   A    
N5    N14   A    
C62   C69   A    
C47   H43   S    
N11   Ni6   S    
C32   C34   S    
C3    C71   A    
C68   H64   S    
N8    N15   A    
C14   C38   S    
C37   C49   S    
C27   C41   S    
C21   C39   S    
C6    N30   A    
C27   H19   S    
C88   H76   S    
C3    N3    A    
C22   C40   S    
N32   Ni8   S    
N13   Ni7   S    
C55   C57   D    
C9    C77   A    
C32   H28   S    
C43   H47   S    
C18   C34   S    
C46   C74   A    
C15   C39   S    
C11   C79   A    
C86   N26   A    
C9    C55   S    
C44   H24   S    
C85   N25   A    
C20   H84   S    
C16   C40   S    
N1    N10   A    
N20   Ni4   S    
C66   N14   A    
C4    N4    A    
C18   H6    S    
C68   N16   A    
C24   H10   S    
N31   Ni8   S    
C17   H5    S    
C7    N31   A    
C14   C82   A    
C4    C72   A    
C19   H7    S    
N23   N28   A    
C30   H26   S    
C51   I3    S    
N22   Ni1   S    
C7    H79   S    
N7    Ni4   S    
N3    Ni3   S    
C1    H1    S    
C58   H54   S    
C66   H62   S    
C26   C34   S    
N19   Ni3   S    
C14   C85   A    
C31   C51   S    
N15   Ni8   S    
C46   H42   S    
C15   C83   A    
N18   N29   A    
N12   Ni6   S    
C38   C50   S    
C30   C36   S    
N17   N30   A    
C29   C35   S    
C61   N9    A    
C22   H14   S    
C57   H53   S    
C42   H46   S    
N27   Ni6   S    
C77   N17   A    
N4    Ni4   S    
N24   Ni3   S    
C18   C22   S    
C42   H22   S    
C47   C75   A    
C5    C10   A    
C23   C37   S    
C60   H56   S    
N16   Ni8   S    
C88   N28   A    
C54   H50   S    
C2    C70   A    
C60   C69   S    
C84   N24   A    
C8    C11   A    
C56   H52   S    
C12   C80   A    
C28   C42   S    
N20   N31   A    
C56   C58   D    
C10   C78   A    
N10   Ni5   S    
C57   C72   S    
C65   H61   S    
C28   H20   S    
N28   Ni6   S    
C82   N22   A    
N25   Ni5   S    
N19   N32   A    
C65   C74   A    
C59   C70   S    
C79   H67   S    
C48   C76   A    
C64   N12   A    
C28   H40   S    
C33   C74   S    
C40   C44   S    
C83   H71   S    
C63   C72   A    
C28   C36   S    
C62   H58   S    
C39   C43   S    
C29   H25   S    
N2    Ni2   S    
C67   H63   S    
C48   H44   S    
C41   H21   S    
N21   Ni2   S    
C24   H16   S    
C31   H31   S    
N29   Ni7   S    
C2    N2    A    
C67   C76   A    
C25   C33   S    
N3    N12   A    
C4    H4    S    
C17   C21   S    
