data_mof_unit_13167.cif
_audit_creation_date              2012-12-10T17:46:21-0500
_audit_creation_method            fapswitch 2.2
_symmetry_space_group_name_H-M    P1
_symmetry_Int_Tables_number       1
_space_group_crystal_system       triclinic
_cell_length_a                    14.145884
_cell_length_b                    10.655075
_cell_length_c                    9.928848
_cell_angle_alpha                 89.736934
_cell_angle_beta                  90.026154
_cell_angle_gamma                 91.25909
_cell_volume                      1496.15293545

loop_
_atom_site_label
_atom_site_type_symbol
_atom_type_description
_atom_site_fract_x
_atom_site_fract_y
_atom_site_fract_z
_atom_type_partial_charge
C1    C     C_R   0.502501 0.260954 0.500319 0.858603
C2    C     C_R   0.429671 0.066183 0.443665 -0.244982
C3    C     C_R   0.426093 0.937168 0.441792 0.095052
C4    C     C_R   0.329294 0.498650 0.500058 0.867895
C5    C     C_R   0.502555 0.872287 0.498133 -0.131344
C6    C     C_R   0.377052 0.335015 0.140491 -0.145384
C7    C     C_R   0.317174 0.253008 0.070751 -0.197489
C8    C     C_R   0.317302 0.252848 0.931413 -0.190122
C9    C     C_R   0.377330 0.334666 0.860916 -0.143606
C10   C     C_R   0.439676 0.418501 0.928088 0.164975
C11   C     C_R   0.439614 0.418619 0.072600 0.167627
C12   C     C_1   0.772191 0.498493 0.500222 -0.216038
C13   C     C_R   0.557737 0.577989 0.071076 -0.112863
C14   C     C_R   0.557709 0.577972 0.928086 -0.109858
C15   C     C_R   0.498672 0.739441 0.499516 0.867960
C16   C     C_R   0.670714 0.500093 0.500013 0.867163
C17   C     C_1   0.227792 0.495503 0.500364 -0.208596
C18   C     C_1   0.142494 0.493745 0.500793 -0.020263
C19   C     C_1   0.042582 0.493767 0.500927 -0.002040
C20   C     C_1   0.957322 0.494868 0.500821 0.002010
C21   C     C_1   0.857438 0.496792 0.500523 -0.014384
C22   C     C_3   0.337257 0.873961 0.386002 -0.422648
C23   C     C_R   0.664603 0.132187 0.606223 -0.162592
C24   C     C_3   0.264679 0.849398 0.498142 -0.352026
C25   C     C_3   0.168148 0.813064 0.439727 -0.864282
C26   C     C_R   0.741667 0.067053 0.655848 -0.133389
C27   C     C_R   0.740780 0.936549 0.653224 -0.141592
C28   C     C_R   0.662706 0.870786 0.601371 -0.172539
C29   C     C_R   0.583087 0.935302 0.552101 0.068088
C30   C     C_R   0.584572 0.066795 0.554133 0.094452
C31   C     C_R   0.506461 0.129081 0.500517 -0.116985
H1    H     H_    0.370877 0.118622 0.403589 0.133028
H2    H     H_    0.371767 0.330049 0.247202 0.195846
H3    H     H_    0.270115 0.189476 0.125392 0.143223
H4    H     H_    0.138487 0.893628 0.383638 0.255186
H5    H     H_    0.174291 0.732416 0.370108 0.270369
H6    H     H_    0.118841 0.786547 0.522605 0.254994
H7    H     H_    0.289424 0.772632 0.564667 0.224935
H8    H     H_    0.256795 0.935148 0.560249 0.226296
H9    H     H_    0.305775 0.935597 0.307843 0.201865
H10   H     H_    0.352714 0.785186 0.333579 0.222535
H11   H     H_    0.270315 0.189214 0.877374 0.146893
H12   H     H_    0.372422 0.329381 0.754193 0.199662
H13   H     H_    0.604823 0.641809 0.874157 0.147598
H14   H     H_    0.668862 0.233604 0.607771 0.142364
H15   H     H_    0.802573 0.118028 0.695315 0.138799
H16   H     H_    0.801052 0.886050 0.690570 0.136663
H17   H     H_    0.666203 0.769601 0.598988 0.138119
H18   H     H_    0.604884 0.641816 0.124356 0.149780
N1    N     N_R   0.499190 0.498800 0.142780 -0.116044
N2    N     N_R   0.499160 0.498720 0.857170 -0.114769
O1    O     O_R   0.500000 0.316780 0.614690 -0.632532
O2    O     O_R   0.499990 0.316750 0.385360 -0.622145
O3    O     O_R   0.373720 0.500010 0.614690 -0.613518
O4    O     O_R   0.373710 0.499990 0.385360 -0.618010
O5    O     O_R   0.500010 0.683250 0.614640 -0.610747
O6    O     O_R   0.500000 0.683220 0.385310 -0.615380
O7    O     O_R   0.626290 0.500010 0.614640 -0.604133
O8    O     O_R   0.626280 0.499990 0.385310 -0.585645
Zn1   Zn    Zn3+2 0.500010 0.500020 0.653130 0.924759
Zn2   Zn    Zn3+2 0.499990 0.499980 0.346870 0.929203

loop_
_geom_bond_atom_site_label_1
_geom_bond_atom_site_label_2
_ccdc_geom_bond_type
C8    C9    A    
C24   H7    S    
O6    Zn2   S    
C6    C7    A    
C23   H14   S    
C9    C10   A    
C14   N2    A    
C6    H2    S    
C3    C5    A    
C22   H9    S    
C15   O5    A    
C19   C20   T    
C17   C18   T    
C9    H12   S    
C7    C8    A    
C11   N1    A    
O3    Zn1   S    
C13   C14   A    
C24   C25   S    
C15   O6    A    
C26   C27   A    
C29   C30   A    
C25   H4    S    
C13   H18   S    
C10   N2    A    
O4    Zn2   S    
C2    H1    S    
C28   C29   A    
C1    O1    A    
C8    H11   S    
C2    C3    A    
C5    C29   A    
C4    O4    A    
C30   C31   A    
C7    H3    S    
C22   C24   S    
C5    C15   S    
C22   H10   S    
O8    Zn2   S    
C10   C11   A    
C4    C17   S    
C25   H5    S    
O7    Zn1   S    
C13   N1    A    
C23   C30   A    
O5    Zn1   S    
C1    C31   S    
C24   H8    S    
C20   C21   S    
C14   H13   S    
C18   C19   S    
C23   C26   A    
C27   H16   S    
C6    C11   A    
N1    Zn2   S    
C1    O2    A    
C28   H17   S    
C3    C22   S    
C16   O7    A    
N2    Zn1   S    
O1    Zn1   S    
C4    O3    A    
C26   H15   S    
O2    Zn2   S    
C12   C21   T    
C12   C16   S    
C25   H6    S    
C2    C31   A    
C27   C28   A    
C16   O8    A    
