data_mof_unit_47133.cif
_audit_creation_date              2013-03-05T15:50:13-0500
_audit_creation_method            fapswitch 2.2
_symmetry_space_group_name_H-M    P1
_symmetry_Int_Tables_number       1
_space_group_crystal_system       triclinic
_cell_length_a                    15.03285
_cell_length_b                    15.052206
_cell_length_c                    34.893701
_cell_angle_alpha                 90.972935
_cell_angle_beta                  90.285604
_cell_angle_gamma                 60.013212
_cell_volume                      6837.71160065

loop_
_atom_site_label
_atom_site_type_symbol
_atom_site_description
_atom_site_fract_x
_atom_site_fract_y
_atom_site_fract_z
_atom_type_partial_charge
O1    O     O_R   0.502070 0.323090 0.541280 -0.446084
O2    O     O_R   0.338340 0.520690 0.539540 -0.485838
C1    C     C_R   0.304089 0.608036 0.556216 0.561867
O3    O     O_R   0.324760 0.674070 0.543580 -0.498702
O4    O     O_R   0.522400 0.640310 0.540110 -0.510569
C2    C     C_R   0.611131 0.589022 0.555190 0.586608
O5    O     O_R   0.675940 0.500630 0.542210 -0.413091
O6    O     O_R   0.641790 0.337020 0.538150 -0.503979
C3    C     C_R   0.591173 0.299089 0.553280 0.564316
O7    O     O_R   0.500260 0.324550 0.456580 -0.453201
O8    O     O_R   0.336660 0.522040 0.461020 -0.499418
C4    C     C_R   0.298304 0.610807 0.446475 0.572603
O9    O     O_R   0.322940 0.675540 0.458880 -0.454293
O10   O     O_R   0.520720 0.641670 0.461580 -0.540510
C5    C     C_R   0.608949 0.590843 0.445741 0.672406
O11   O     O_R   0.674120 0.502090 0.457500 -0.279285
O12   O     O_R   0.640110 0.338380 0.459630 -0.480090
C6    C     C_R   0.589824 0.299197 0.444393 0.561220
Cr1   Cr    Cr6+3 0.421670 0.426920 0.499620 1.168371
Cr2   Cr    Cr6+3 0.427030 0.651190 0.500980 1.126519
Cr3   Cr    Cr6+3 0.651280 0.421870 0.499380 1.295549
O13   O     O_3   0.499990 0.499990 0.499990 -0.337013
N1    N     N_R   0.695738 0.585326 0.769059 -0.098322
N2    N     N_R   0.693107 0.582551 0.730997 -0.129842
C7    C     C_R   0.632265 0.625297 0.591945 -0.022170
C8    C     C_R   0.731537 0.576084 0.608472 0.178232
C9    C     C_R   0.743737 0.595533 0.647309 0.204176
C10   C     C_R   0.656720 0.665034 0.668937 0.005807
C11   C     C_R   0.561185 0.720827 0.651332 -0.107847
C12   C     C_R   0.548935 0.701089 0.613232 -0.138607
N3    N     N_R   0.631246 0.759171 0.729701 -0.109219
N4    N     N_R   0.635265 0.761544 0.767795 -0.091421
C13   C     C_R   0.667690 0.674661 0.788247 0.388990
C14   C     C_R   0.661476 0.669238 0.710728 0.368894
C15   C     C_R   0.756248 0.594124 0.850066 0.156379
C16   C     C_R   0.769858 0.602534 0.889609 0.150866
C17   C     C_R   0.618020 0.773218 0.891067 0.155707
C18   C     C_R   0.603215 0.764061 0.851689 0.170518
C19   C     C_R   0.675831 0.677261 0.830538 -0.057091
C20   C     C_R   0.707315 0.696601 0.909315 -0.069307
C21   C     C_R   0.719530 0.078152 0.906150 -0.032900
C22   C     C_R   0.629723 0.102071 0.885687 -0.115975
C23   C     C_R   0.622536 0.122927 0.846907 -0.053473
C24   C     C_R   0.704334 0.121548 0.827662 0.029988
C25   C     C_R   0.791011 0.108628 0.848177 0.223657
C26   C     C_R   0.798293 0.087874 0.887786 0.188015
C27   C     C_R   0.665432 0.230042 0.769585 0.226918
C28   C     C_R   0.665156 0.237318 0.729767 -0.039344
C29   C     C_R   0.694833 0.151347 0.705925 -0.003410
C30   C     C_R   0.728935 0.054136 0.721802 0.251700
C31   C     C_R   0.729694 0.045174 0.761987 0.215589
C32   C     C_R   0.697369 0.133323 0.785814 -0.018682
C33   C     C_R   0.603843 0.159630 0.644728 0.205641
C34   C     C_R   0.579676 0.192876 0.606623 0.192285
C35   C     C_R   0.713422 0.238922 0.607501 -0.129585
C36   C     C_R   0.740413 0.203331 0.644835 0.175689
C37   C     C_R   0.682018 0.168145 0.664244 -0.005580
C38   C     C_R   0.630722 0.238733 0.588725 -0.061564
C39   C     C_R   0.103839 0.688518 0.913973 -0.032054
C40   C     C_R   0.162578 0.729322 0.898522 0.208479
C41   C     C_R   0.192543 0.709106 0.859951 -0.102057
C42   C     C_R   0.170252 0.644903 0.837440 -0.041397
C43   C     C_R   0.123601 0.593634 0.854097 0.203105
C44   C     C_R   0.091226 0.615848 0.892319 -0.130767
C45   C     C_R   0.271662 0.552472 0.779169 -0.018721
C46   C     C_R   0.288050 0.547605 0.739413 0.250525
C47   C     C_R   0.217542 0.630530 0.716638 0.032994
C48   C     C_R   0.134032 0.716020 0.734069 -0.039444
C49   C     C_R   0.120970 0.721009 0.773547 -0.031788
C50   C     C_R   0.189090 0.639215 0.796113 0.004499
C51   C     C_R   0.240472 0.709465 0.657335 0.211238
C52   C     C_R   0.252626 0.706762 0.617583 -0.084286
C53   C     C_R   0.245054 0.549980 0.612506 -0.085140
C54   C     C_R   0.228481 0.554101 0.651961 -0.062695
C55   C     C_R   0.229591 0.631300 0.674777 0.036182
C56   C     C_R   0.260199 0.624763 0.595143 -0.014795
C57   C     C_R   0.694067 0.720426 0.091454 -0.011263
C58   C     C_R   0.616962 0.805448 0.111554 -0.100030
C59   C     C_R   0.598205 0.797284 0.150031 -0.075421
C60   C     C_R   0.656344 0.704331 0.169095 0.036297
C61   C     C_R   0.728585 0.615892 0.148351 0.223631
C62   C     C_R   0.745425 0.624999 0.109490 -0.078020
C63   C     C_R   0.605373 0.646633 0.226856 -0.041170
C64   C     C_R   0.600418 0.639885 0.266481 -0.023852
C65   C     C_R   0.634898 0.691289 0.290726 0.049021
C66   C     C_R   0.672510 0.751216 0.275257 0.015971
C67   C     C_R   0.679961 0.757188 0.235488 0.232917
C68   C     C_R   0.646313 0.703675 0.211044 0.026255
C69   C     C_R   0.547324 0.741266 0.354710 0.189052
C70   C     C_R   0.544151 0.714728 0.392695 -0.153175
C71   C     C_R   0.720519 0.574620 0.388491 0.337545
C72   C     C_R   0.723031 0.595998 0.349535 0.076069
C73   C     C_R   0.635910 0.678392 0.332453 -0.043839
C74   C     C_R   0.627524 0.629266 0.409440 -0.001698
C75   C     C_R   0.701153 0.099419 0.088833 -0.051751
C76   C     C_R   0.772653 0.125174 0.103307 -0.093856
C77   C     C_R   0.765614 0.160985 0.141117 0.216762
C78   C     C_R   0.686070 0.168617 0.165015 0.054739
C79   C     C_R   0.608949 0.150664 0.149523 0.220310
C80   C     C_R   0.616511 0.118251 0.111327 -0.095617
C81   C     C_R   0.614491 0.273236 0.224950 0.215220
C82   C     C_R   0.609823 0.280209 0.265153 0.193538
C83   C     C_R   0.680570 0.196390 0.287037 -0.065294
C84   C     C_R   0.759807 0.107966 0.268999 0.204720
C85   C     C_R   0.765037 0.100515 0.228781 0.227172
C86   C     C_R   0.690087 0.182216 0.206863 -0.012956
C87   C     C_R   0.741549 0.203758 0.352792 -0.036565
C88   C     C_R   0.724150 0.220024 0.392317 0.154139
C89   C     C_R   0.561751 0.221275 0.384149 0.170090
C90   C     C_R   0.581421 0.204772 0.344795 -0.033533
C91   C     C_R   0.668357 0.200851 0.328953 0.006245
C92   C     C_R   0.628492 0.239420 0.407818 -0.005960
C93   C     C_R   0.084076 0.710711 0.094064 0.020967
C94   C     C_R   0.110665 0.614369 0.108825 -0.098979
C95   C     C_R   0.149154 0.589343 0.145930 -0.067937
C96   C     C_R   0.160880 0.660575 0.168673 0.065586
C97   C     C_R   0.139054 0.754641 0.153205 -0.025658
C98   C     C_R   0.101997 0.779103 0.116101 -0.077336
C99   C     C_R   0.252564 0.666855 0.228277 0.241775
C100  C     C_R   0.254893 0.670142 0.268670 0.255966
C101  C     C_R   0.190544 0.645777 0.290039 -0.006663
C102  C     C_R   0.125401 0.618084 0.271394 -0.094839
C103  C     C_R   0.120294 0.618357 0.231732 -0.096903
C104  C     C_R   0.182134 0.643905 0.209926 0.001546
C105  C     C_R   0.229806 0.550886 0.350442 -0.048085
C106  C     C_R   0.253118 0.543695 0.389167 -0.089488
C107  C     C_R   0.193236 0.727011 0.392548 0.211570
C108  C     C_R   0.172056 0.732605 0.353206 -0.016129
C109  C     C_R   0.194649 0.643975 0.331980 0.010025
C110  C     C_R   0.241690 0.629640 0.410077 0.014961
O14   O     O_R   0.017640 0.822070 0.960410 -0.426042
O15   O     O_R   0.822000 0.989470 0.960340 -0.452535
C111  C     C_R   0.735272 0.026870 0.943543 0.558920
O16   O     O_R   0.666920 0.007430 0.955290 -0.489431
O17   O     O_R   0.694410 0.812480 0.959650 -0.453331
C112  C     C_R   0.743956 0.721421 0.945606 0.581917
O18   O     O_R   0.831550 0.656950 0.958960 -0.459927
O19   O     O_R   0.998590 0.685540 0.963930 -0.512492
C113  C     C_R   0.040961 0.732183 0.949083 0.568888
O20   O     O_R   0.008220 0.831200 0.045060 -0.495150
O21   O     O_R   0.813270 0.997930 0.038810 -0.494056
C114  C     C_R   0.723186 0.038774 0.052997 0.553696
O22   O     O_R   0.657500 0.016560 0.039940 -0.506677
O23   O     O_R   0.685680 0.820940 0.038120 -0.491200
C115  C     C_R   0.733398 0.734648 0.054766 0.560023
O24   O     O_R   0.822130 0.666070 0.043610 -0.499746
O25   O     O_R   0.989860 0.694000 0.042400 -0.501895
C116  C     C_R   0.027382 0.745275 0.057939 0.553893
Cr4   Cr    Cr6+3 0.910810 0.908010 0.001130 1.160780
Cr5   Cr    Cr6+3 0.682800 0.909890 0.998370 1.131971
Cr6   Cr    Cr6+3 0.908370 0.682300 0.002180 1.106116
O26   O     O_3   0.833990 0.833400 0.000560 -0.294175
N5    N     N_R   0.819799 0.509441 0.585651 0.125039
O27   O     O_R   0.845527 0.546622 0.557134 -0.091845
O28   O     O_R   0.862484 0.410492 0.588861 -0.189670
N6    N     N_R   0.887443 0.072272 0.908541 0.119095
O29   O     O_R   0.877597 0.129799 0.938301 -0.242354
O30   O     O_R   0.978799 0.004466 0.896568 -0.224929
N7    N     N_R   0.825077 0.206404 0.663086 0.107951
O31   O     O_R   0.883713 0.135950 0.687129 -0.214887
O32   O     O_R   0.849979 0.274013 0.653024 -0.216646
H1    H     H_    0.638476 0.311559 0.717004 0.202634
N8    N     N_R   0.633437 0.321277 0.792821 0.121204
O33   O     O_R   0.585085 0.334491 0.825099 -0.301931
O34   O     O_R   0.643106 0.396598 0.779850 -0.236440
H2    H     H_    0.554489 0.136043 0.831391 0.201898
N9    N     N_R   0.760947 0.965378 0.697287 0.122492
O35   O     O_R   0.728992 0.901007 0.703707 -0.192349
O36   O     O_R   0.820527 0.949561 0.667968 -0.263435
N10   N     N_R   0.768694 0.945794 0.778610 0.111381
O37   O     O_R   0.712271 0.928428 0.802037 -0.290516
O38   O     O_R   0.858471 0.870544 0.768505 -0.273839
N11   N     N_R   0.547076 0.119548 0.663744 0.122235
O39   O     O_R   0.539813 0.044206 0.648237 -0.189831
O40   O     O_R   0.498699 0.161066 0.695697 -0.239851
N12   N     N_R   0.500382 0.183859 0.586979 0.127599
O41   O     O_R   0.408656 0.224443 0.601714 -0.224767
O42   O     O_R   0.520417 0.133183 0.554605 -0.216128
N13   N     N_R   0.870955 0.117091 0.829090 0.117268
O43   O     O_R   0.904247 0.175236 0.843592 -0.140890
O44   O     O_R   0.911415 0.066298 0.797368 -0.265243
H3    H     H_    0.472296 0.740530 0.601286 0.173933
H4    H     H_    0.755278 0.270733 0.593586 0.211107
N14   N     N_R   0.192762 0.790185 0.921434 0.126228
O45   O     O_R   0.210255 0.857437 0.905390 -0.197927
O46   O     O_R   0.219108 0.767062 0.957044 -0.269461
H5    H     H_    0.048500 0.582139 0.904062 0.199512
H6    H     H_    0.218537 0.494803 0.664999 0.194398
N15   N     N_R   0.377189 0.460132 0.723097 0.085645
O47   O     O_R   0.415166 0.371045 0.739106 -0.277811
O48   O     O_R   0.428096 0.471158 0.695305 -0.336374
H7    H     H_    0.324300 0.489894 0.797084 0.186216
H8    H     H_    0.232642 0.744335 0.847134 0.202270
H9    H     H_    0.079430 0.779644 0.716995 0.193736
H10   H     H_    0.056938 0.788198 0.786605 0.197960
N16   N     N_R   0.246491 0.787742 0.679555 0.073161
O49   O     O_R   0.212144 0.878665 0.665514 -0.236130
O50   O     O_R   0.298903 0.764837 0.711229 -0.277828
N17   N     N_R   0.847609 0.515326 0.909573 0.129980
O51   O     O_R   0.823223 0.482134 0.939693 -0.243349
O52   O     O_R   0.942014 0.467161 0.897260 -0.209112
H11   H     H_    0.265359 0.764504 0.604739 0.182418
N18   N     N_R   0.103724 0.523286 0.832384 0.105363
O53   O     O_R   0.072254 0.541923 0.797084 -0.235115
O54   O     O_R   0.109581 0.443699 0.848893 -0.200514
H12   H     H_    0.250662 0.485870 0.595931 0.193783
H13   H     H_    0.575965 0.879981 0.098384 0.159208
H14   H     H_    0.804677 0.558778 0.094123 0.181901
N19   N     N_R   0.814067 0.532271 0.327263 0.099135
O55   O     O_R   0.856761 0.573008 0.307169 -0.259380
O56   O     O_R   0.858171 0.432837 0.328864 -0.241195
H15   H     H_    0.571476 0.593156 0.278272 0.210132
H16   H     H_    0.579426 0.605514 0.208425 0.203777
H17   H     H_    0.542179 0.865138 0.165623 0.181119
H18   H     H_    0.699715 0.790042 0.294327 0.196589
N20   N     N_R   0.843923 0.547393 0.664586 0.111102
O57   O     O_R   0.906080 0.449188 0.660659 -0.161587
O58   O     O_R   0.871283 0.600985 0.686147 -0.230525
N21   N     N_R   0.725158 0.814296 0.220688 0.095248
O59   O     O_R   0.787573 0.779389 0.191486 -0.289545
O60   O     O_R   0.715075 0.894197 0.239522 -0.237272
N22   N     N_R   0.458394 0.829089 0.338993 0.140801
O61   O     O_R   0.467494 0.880392 0.311140 -0.248759
O62   O     O_R   0.368957 0.865367 0.355345 -0.201002
H19   H     H_    0.473934 0.759557 0.408949 0.206837
N23   N     N_R   0.790228 0.518554 0.166487 0.091253
O63   O     O_R   0.822222 0.433828 0.146728 -0.231753
O64   O     O_R   0.826153 0.513772 0.200863 -0.253389
N24   N     N_R   0.813783 0.498035 0.405834 1.104032
O65   O     O_R   0.844742 0.515914 0.438439 -1.122792
O66   O     O_R   0.844742 0.515914 0.438439 -1.122792
H20   H     H_    0.836590 0.113530 0.085535 0.183627
H21   H     H_    0.560651 0.098922 0.100347 0.175943
H22   H     H_    0.528119 0.196106 0.326237 0.201879
N25   N     N_R   0.536182 0.373874 0.283961 0.106238
O67   O     O_R   0.439086 0.402143 0.283165 -0.276465
O68   O     O_R   0.567604 0.420825 0.307235 -0.328564
N26   N     N_R   0.544060 0.358878 0.202383 0.112713
O69   O     O_R   0.445583 0.395665 0.205652 -0.223551
O70   O     O_R   0.578492 0.393817 0.175885 -0.265341
H23   H     H_    0.494273 0.774453 0.667874 0.205508
N27   N     N_R   0.842448 0.183762 0.155315 0.118319
O71   O     O_R   0.821183 0.250897 0.182843 -0.224975
O72   O     O_R   0.932007 0.143330 0.138743 -0.261440
N28   N     N_R   0.829740 0.022279 0.291489 0.116023
O73   O     O_R   0.922539 0.004918 0.297414 -0.242493
O74   O     O_R   0.796510 0.970802 0.310383 -0.257047
N29   N     N_R   0.843357 0.008087 0.210377 0.118759
O75   O     O_R   0.819359 0.960632 0.184430 -0.279647
O76   O     O_R   0.939574 0.972232 0.218848 -0.240989
H24   H     H_    0.811436 0.195226 0.340437 0.209063
N30   N     N_R   0.803904 0.216853 0.416177 0.112005
O77   O     O_R   0.864611 0.247876 0.403177 -0.189502
O78   O     O_R   0.825689 0.169087 0.448617 -0.219349
N31   N     N_R   0.526634 0.157603 0.172673 0.100784
O79   O     O_R   0.436169 0.190719 0.157745 -0.269685
O80   O     O_R   0.544804 0.117144 0.206495 -0.270878
N32   N     N_R   0.474013 0.219595 0.399383 0.103894
O81   O     O_R   0.484041 0.165963 0.429628 -0.203193
O82   O     O_R   0.389949 0.255311 0.379467 -0.271528
H25   H     H_    0.097859 0.560194 0.092336 0.154286
H26   H     H_    0.081697 0.854193 0.105594 0.172588
H27   H     H_    0.140180 0.805443 0.338836 0.208239
N33   N     N_R   0.826414 0.501637 0.829821 0.138043
O83   O     O_R   0.831167 0.415394 0.838048 -0.153754
O84   O     O_R   0.891369 0.502027 0.805424 -0.174792
N34   N     N_R   0.324440 0.694858 0.287946 0.088140
O85   O     O_R   0.392333 0.629937 0.311454 -0.303590
O86   O     O_R   0.306527 0.788777 0.287935 -0.207089
N35   N     N_R   0.324775 0.680876 0.205948 0.074228
O87   O     O_R   0.337373 0.759283 0.212215 -0.266793
O88   O     O_R   0.373557 0.618493 0.177486 -0.261624
H28   H     H_    0.165716 0.516302 0.157473 0.164802
H29   H     H_    0.076406 0.598784 0.287705 0.193849
H30   H     H_    0.064958 0.602163 0.218052 0.177311
H31   H     H_    0.246274 0.482153 0.334302 0.195491
H32   H     H_    0.288078 0.468533 0.401858 0.201876
H33   H     H_    0.145216 0.811684 0.170546 0.188363
N36   N     N_R   0.166250 0.819615 0.413940 0.108764
O89   O     O_R   0.165076 0.896879 0.397243 -0.200194
O90   O     O_R   0.128220 0.832627 0.448354 -0.226763
N37   N     N_R   0.539316 0.857358 0.912895 0.128574
O91   O     O_R   0.510642 0.951564 0.904211 -0.257070
O92   O     O_R   0.499391 0.839545 0.942741 -0.254017
N38   N     N_R   0.511336 0.840640 0.833630 0.136722
O93   O     O_R   0.446799 0.815769 0.819027 -0.239540
O94   O     O_R   0.499366 0.930759 0.827001 -0.194658
H34   H     H_    0.566786 0.098531 0.899060 0.210429

loop_
_geom_bond_atom_site_label_1
_geom_bond_atom_site_label_2
_geom_bond_distance
_ccdc_geom_bond_type
C40   N14   1.439225 S    
C53   H12   1.083059 S    
N31   O80   1.301234 A    
O11   Cr3   2.047143 S    
C57   C115  1.475695 S    
C75   C76   1.401831 A    
C12   H3    1.083263 S    
C21   C22   1.405478 A    
C70   H19   1.082682 S    
C15   C19   1.414325 A    
C15   C16   1.406707 A    
C16   N17   1.436586 S    
C35   C36   1.396374 A    
C108  C109  1.399908 A    
O20   C116  1.266400 A    
C5    C74   1.485534 S    
C62   H14   1.083328 S    
C61   C62   1.402159 A    
C80   H21   1.083433 S    
O21   Cr4   1.919799 S    
O17   C112  1.278251 A    
N9    O36   1.301230 A    
O4    Cr2   1.923522 S    
C57   C58   1.402875 A    
C36   C37   1.411604 A    
C45   C46   1.404413 A    
N18   O54   1.300853 A    
O8    Cr1   1.927841 S    
N37   O91   1.300248 A    
C11   C12   1.388710 A    
C43   N18   1.439205 S    
C76   H20   1.083039 S    
C71   N24   1.435428 S    
C63   C64   1.393180 A    
C93   C116  1.467755 S    
C52   H11   1.083192 S    
C10   C11   1.395812 A    
N8    O34   1.301608 A    
C94   H25   1.083015 S    
N20   O58   1.301485 A    
C17   C20   1.416431 A    
C102  H29   1.083749 S    
C115  O24   1.269450 A    
O4    C2    1.276537 A    
C78   C79   1.418201 A    
N16   O49   1.301385 A    
C2    C7    1.479712 S    
C28   H1    1.084013 S    
N10   O37   1.300689 A    
C106  C110  1.408015 A    
C45   C50   1.398632 A    
O16   Cr5   2.047750 S    
C46   N15   1.439400 S    
C77   C78   1.416990 A    
C49   H10   1.082872 S    
C29   C37   1.475606 S    
C96   C97   1.401261 A    
C42   C50   1.463802 S    
O6    C3    1.277581 A    
C83   C91   1.471202 S    
C3    C38   1.483037 S    
C53   C54   1.395125 A    
C108  H27   1.083591 S    
C34   N12   1.435135 S    
C89   N32   1.436537 S    
N15   O48   1.301342 A    
C90   C91   1.394995 A    
C16   C20   1.415732 A    
C79   N31   1.439659 S    
O25   C116  1.275050 A    
C82   C83   1.410431 A    
C77   N27   1.442724 S    
C58   H13   1.083131 S    
C65   C73   1.471152 S    
N17   O51   1.301298 A    
O22   Cr5   2.035357 S    
C58   C59   1.393294 A    
C27   C28   1.395378 A    
C103  H30   1.083532 S    
O15   C111  1.276768 A    
N1    C13   1.356365 A    
O23   Cr5   1.929473 S    
N25   O67   1.300580 A    
N7    O32   1.301257 A    
C67   N21   1.438614 S    
C95   C96   1.403242 A    
N5    O28   1.300850 A    
C89   C90   1.397815 A    
C52   C56   1.406111 A    
C9    C10   1.410751 A    
C27   N8    1.442380 S    
C93   C98   1.404249 A    
C24   C32   1.470863 S    
C31   N10   1.437795 S    
C46   C47   1.419816 A    
O2    Cr1   1.919625 S    
Cr6   O26   1.971786 S    
C10   C14   1.461464 S    
C39   C40   1.416235 A    
C100  N34   1.434280 S    
N11   O39   1.301209 A    
Cr3   O13   1.970292 S    
O15   Cr4   1.927604 S    
N25   O68   1.300940 A    
C72   N19   1.438770 S    
C49   C50   1.396096 A    
C21   C111  1.484216 S    
C84   C85   1.405371 A    
C63   H16   1.083581 S    
N24   O65   1.301129 A    
N29   O76   1.300621 A    
C9    N20   1.439341 S    
C70   C74   1.404879 A    
C54   H6    1.083444 S    
C102  C103  1.385672 A    
N11   O40   1.301045 A    
C106  H32   1.082897 S    
N26   O70   1.301077 A    
O1    Cr1   2.046453 S    
C114  O22   1.270753 A    
C61   N23   1.440239 S    
C97   C98   1.387839 A    
C33   N11   1.437485 S    
C31   C32   1.417719 A    
C44   H5    1.083223 S    
C81   C82   1.404438 A    
O10   Cr2   1.924885 S    
C103  C104  1.401917 A    
Cr1   O13   1.972277 S    
O1    C3    1.271165 A    
N20   O57   1.300258 A    
N19   O55   1.300782 A    
C54   C55   1.404359 A    
C89   C92   1.421750 A    
C101  C109  1.464613 S    
C71   C72   1.407201 A    
C33   C37   1.414507 A    
C75   C80   1.399048 A    
C48   C49   1.387885 A    
C30   C31   1.410411 A    
C7    C8    1.417474 A    
C65   C66   1.397901 A    
C69   N22   1.444385 S    
N2    C14   1.355252 A    
C1    O3    1.266451 A    
C47   C48   1.402881 A    
C40   C41   1.400716 A    
C15   N33   1.433843 S    
C17   C18   1.406325 A    
C67   C68   1.418376 A    
N32   O82   1.301473 A    
C23   C24   1.394888 A    
C85   N29   1.440135 S    
N38   O93   1.301029 A    
Cr5   O26   1.970440 S    
C105  C109  1.394527 A    
N21   O60   1.301238 A    
C111  O16   1.272110 A    
C20   C112  1.493055 S    
C95   H28   1.083231 S    
C100  C101  1.413270 A    
N27   O72   1.301581 A    
N7    O31   1.301486 A    
C98   H26   1.083148 S    
C45   H7    1.083584 S    
C39   C113  1.479710 S    
O7    Cr1   2.035925 S    
C21   C26   1.420522 A    
C76   C77   1.400931 A    
C42   C43   1.409041 A    
O12   C6    1.277881 A    
C8    C9    1.411957 A    
N3    C14   1.354593 A    
N15   O47   1.301218 A    
N23   O63   1.301313 A    
C13   C19   1.481602 S    
C64   C65   1.399057 A    
C99   C100  1.410360 A    
N22   O62   1.301761 A    
C1    C56   1.474786 S    
C101  C102  1.395896 A    
C27   C32   1.413238 A    
N13   O43   1.301070 A    
C4    C110  1.475793 S    
Cr4   O26   1.972475 S    
N16   O50   1.301473 A    
N12   O41   1.301272 A    
C30   N9    1.439040 S    
C88   N30   1.437721 S    
C84   N28   1.433657 S    
C69   C70   1.398657 A    
N23   O64   1.301253 A    
N28   O74   1.300818 A    
C105  C106  1.386608 A    
N24   O66   1.301129 A    
C53   C56   1.402386 A    
N35   O88   1.301202 A    
C59   C60   1.402647 A    
O14   Cr4   2.038395 S    
C97   H33   1.083177 S    
C47   C55   1.473709 S    
C22   C23   1.385746 A    
Cr2   O13   1.971385 S    
C87   C88   1.399484 A    
N31   O79   1.301304 A    
O17   Cr5   1.919638 S    
N33   O84   1.300918 A    
C41   H8    1.083903 S    
N9    O35   1.301331 A    
C66   H18   1.083780 S    
N29   O75   1.300959 A    
C66   C67   1.400769 A    
N30   O78   1.301585 A    
C93   C94   1.404251 A    
C34   C38   1.415701 A    
C23   H2    1.083853 S    
C88   C92   1.424228 A    
C7    C12   1.405131 A    
N21   O59   1.301276 A    
C99   N35   1.439803 S    
N26   O69   1.300508 A    
N6    O29   1.301139 A    
C35   H4    1.083073 S    
C96   C104  1.471284 S    
O9    Cr2   2.040334 S    
N27   O71   1.301252 A    
C81   N26   1.436912 S    
O10   C5    1.276146 A    
C87   C91   1.393657 A    
N3    N4    1.330989 A    
C24   C25   1.410734 A    
C6    C92   1.490593 S    
C60   C61   1.416126 A    
C39   C44   1.407552 A    
O6    Cr3   1.929877 S    
C25   C26   1.413769 A    
C48   H9    1.083780 S    
O8    C4    1.274883 A    
C64   H15   1.082047 S    
C33   C34   1.409385 A    
C2    O5    1.269936 A    
O19   Cr6   1.926028 S    
C36   N7    1.441309 S    
O24   Cr6   2.043914 S    
C26   N6    1.434290 S    
C85   C86   1.416013 A    
C59   H17   1.083660 S    
N37   O92   1.301248 A    
C78   C86   1.476177 S    
C79   C80   1.396857 A    
C87   H24   1.083450 S    
O23   C115  1.276377 A    
N34   O85   1.300537 A    
N4    C13   1.359493 A    
N6    O30   1.300924 A    
N32   O81   1.301484 A    
N33   O83   1.300931 A    
C107  C110  1.418331 A    
C51   C52   1.397243 A    
C60   C68   1.472969 S    
O5    Cr3   2.037155 S    
O21   C114  1.273219 A    
C71   C74   1.416188 A    
C51   C55   1.413909 A    
N34   O86   1.300200 A    
N36   O89   1.301811 A    
C51   N16   1.439589 S    
C18   C19   1.411732 A    
N10   O38   1.300706 A    
C57   C62   1.404528 A    
O7    C6    1.275085 A    
C28   C29   1.398487 A    
C5    O11   1.272471 A    
C17   N37   1.436076 S    
N12   O42   1.301198 A    
C72   C73   1.415042 A    
N19   O56   1.301285 A    
N14   O46   1.301533 A    
O2    C1    1.277725 A    
C99   C104  1.414821 A    
C94   C95   1.394356 A    
N36   O90   1.301602 A    
C69   C73   1.413427 A    
C41   C42   1.399481 A    
N22   O61   1.300785 A    
O12   Cr3   1.918530 S    
N8    O33   1.300934 A    
O14   C113  1.272318 A    
O19   C113  1.276596 A    
C25   N13   1.438062 S    
N1    N2    1.329074 A    
C43   C44   1.398598 A    
O3    Cr2   2.041558 S    
C90   H22   1.083886 S    
C82   N25   1.435143 S    
C4    O9    1.272290 A    
C75   C114  1.472990 S    
N38   O94   1.300846 A    
C29   C30   1.409127 A    
C81   C86   1.410066 A    
C35   C38   1.403640 A    
O25   Cr6   1.921306 S    
C83   C84   1.407405 A    
N17   O52   1.300494 A    
C11   H23   1.083900 S    
N35   O87   1.300298 A    
O18   Cr6   2.038913 S    
C8    N5    1.433095 S    
N14   O45   1.301571 A    
N18   O53   1.301154 A    
C107  N36   1.437734 S    
N5    O27   1.300812 A    
N28   O73   1.300652 A    
C63   C68   1.402891 A    
O20   Cr4   2.043580 S    
C22   H34   1.082300 S    
C112  O18   1.274646 A    
C107  C108  1.402066 A    
C18   N38   1.434573 S    
N30   O77   1.301520 A    
N13   O44   1.301082 A    
C105  H31   1.083706 S    
