data_mof_unit_44807.cif
_audit_creation_date              2013-03-05T16:11:55-0500
_audit_creation_method            fapswitch 2.2
_symmetry_space_group_name_H-M    P1
_symmetry_Int_Tables_number       1
_space_group_crystal_system       triclinic
_cell_length_a                    15.741374
_cell_length_b                    10.697989
_cell_length_c                    9.844168
_cell_angle_alpha                 90.074084
_cell_angle_beta                  89.97837
_cell_angle_gamma                 90.190231
_cell_volume                      1657.75754879

loop_
_atom_site_label
_atom_site_type_symbol
_atom_site_description
_atom_site_fract_x
_atom_site_fract_y
_atom_site_fract_z
_atom_type_partial_charge
O1    O     O_R   0.499990 0.316750 0.614620 -0.633979
O2    O     O_R   0.500010 0.683250 0.385380 -0.632647
O3    O     O_R   0.500000 0.316780 0.385290 -0.609533
O4    O     O_R   0.500000 0.683220 0.614710 -0.581346
C1    C     C_R   0.500025 0.259918 0.499905 0.859892
C2    C     C_R   0.500242 0.740083 0.500126 0.861502
O5    O     O_R   0.376780 0.499970 0.614640 -0.610860
O6    O     O_R   0.623220 0.500030 0.385360 -0.607104
O7    O     O_R   0.376780 0.500000 0.385310 -0.556999
O8    O     O_R   0.623220 0.500000 0.614690 -0.596533
C3    C     C_R   0.337956 0.500057 0.500032 0.891321
C4    C     C_R   0.662017 0.499993 0.499984 0.893074
Zn1   Zn    Zn3+2 0.500000 0.499980 0.653120 0.995207
Zn2   Zn    Zn3+2 0.500000 0.500020 0.346880 1.000048
C5    C     C_3   0.971430 0.406386 0.582927 -0.449978
C6    C     C_3   0.028395 0.595192 0.417839 -0.439821
C7    C     C_3   0.028860 0.391889 0.455629 0.451563
C8    C     C_3   0.970941 0.609659 0.545133 0.442841
H1    H     H_    0.947240 0.331236 0.650447 0.192210
H2    H     H_    0.052540 0.670419 0.350381 0.193977
C9    C     C_1   0.249270 0.501327 0.500377 -0.130402
C10   C     C_1   0.750656 0.499271 0.499770 -0.169770
C11   C     C_3   0.026159 0.519321 0.626629 0.247978
C12   C     C_3   0.973663 0.482246 0.374130 0.257149
C13   C     C_3   0.083473 0.503269 0.501636 -0.074043
C14   C     C_3   0.916379 0.498276 0.499118 -0.069527
C15   C     C_1   0.174145 0.502500 0.501117 0.127942
C16   C     C_1   0.825755 0.498630 0.499362 0.113826
C17   C     C_R   0.525189 0.063995 0.382590 -0.214024
C18   C     C_R   0.476309 0.936026 0.617983 -0.170149
H3    H     H_    0.545094 0.112986 0.291631 0.151459
H4    H     H_    0.456699 0.887070 0.709130 0.167476
C19   C     C_R   0.525167 0.935934 0.382621 -0.186396
C20   C     C_R   0.476063 0.064071 0.617802 -0.190687
H5    H     H_    0.544925 0.886891 0.291585 0.157626
H6    H     H_    0.456232 0.113082 0.708832 0.152848
C21   C     C_R   0.500618 0.872514 0.500273 -0.009694
C22   C     C_R   0.500353 0.127496 0.500008 -0.008143
C23   C     C_R   0.555741 0.573121 0.072269 -0.295734
C24   C     C_R   0.443681 0.427821 0.927746 -0.283801
H7    H     H_    0.598648 0.633266 0.128126 0.176785
H8    H     H_    0.397800 0.372925 0.871669 0.178575
C25   C     C_R   0.557631 0.571122 0.927471 0.547416
C26   C     C_R   0.444664 0.424962 0.072676 0.570882
N1    N     N_R   0.499980 0.499970 0.857200 -0.135439
N2    N     N_R   0.500020 0.500030 0.142800 -0.137457
O9    O     O_3   0.065918 0.281396 0.404753 -0.578954
C27   C     C_3   0.003077 0.187924 0.391950 0.130618
H9    H     H_    0.948654 0.220434 0.329175 0.168637
H10   H     H_    0.979560 0.159005 0.493718 0.130067
C28   C     C_3   0.041522 0.074186 0.322844 -0.788172
H11   H     H_    0.094868 0.037387 0.384677 0.245541
H12   H     H_    0.992495 0.000002 0.311683 0.207265
H13   H     H_    0.065591 0.100025 0.220542 0.273222
O10   O     O_3   0.933709 0.720006 0.596030 -0.585171
C29   C     C_3   0.996448 0.813543 0.609371 0.131013
H14   H     H_    0.020136 0.842703 0.507787 0.130992
H15   H     H_    0.050777 0.781009 0.672327 0.169803
C30   C     C_3   0.957758 0.927027 0.678614 -0.792685
H16   H     H_    0.933468 0.900851 0.780688 0.270685
H17   H     H_    0.006699 0.001268 0.690295 0.209181
H18   H     H_    0.904525 0.963900 0.616588 0.245943
N3    N     N_R   0.945726 0.459756 0.235109 0.218841
O11   O     O_R   0.001783 0.442413 0.139983 -0.297363
O12   O     O_R   0.865294 0.456315 0.205247 -0.411621
N4    N     N_R   0.053997 0.541942 0.765654 0.222279
O13   O     O_R   0.997870 0.559248 0.860691 -0.312438
O14   O     O_R   0.134418 0.546213 0.795458 -0.389462
O15   O     O_3   0.611968 0.648605 0.855264 -0.593494
C31   C     C_3   0.698095 0.628115 0.890951 0.114718
H19   H     H_    0.733149 0.600349 0.797840 0.195244
H20   H     H_    0.708757 0.552077 0.966566 0.140578
C32   C     C_3   0.737262 0.749147 0.943547 -0.785738
H21   H     H_    0.704272 0.779966 0.037407 0.232866
H22   H     H_    0.805518 0.734278 0.966839 0.252883
H23   H     H_    0.731833 0.823490 0.865379 0.259934
O16   O     O_3   0.385083 0.356861 0.145572 -0.566244
C33   C     C_3   0.383525 0.229363 0.106466 0.066582
H24   H     H_    0.394559 0.172067 0.198670 0.180652
H25   H     H_    0.433477 0.201703 0.031849 0.096837
C34   C     C_3   0.296078 0.195645 0.050975 -0.779574
H26   H     H_    0.281995 0.251261 0.958674 0.256958
H27   H     H_    0.294048 0.094792 0.024304 0.207116
H28   H     H_    0.246683 0.214767 0.128847 0.284932

loop_
_geom_bond_atom_site_label_1
_geom_bond_atom_site_label_2
_geom_bond_distance
_ccdc_geom_bond_type
N4    O14   1.300235 A    
O10   C29   1.409637 S    
N3    O12   1.300285 A    
C4    C10   1.395338 S    
C32   H21   1.109988 S    
C8    C14   1.534536 S    
C34   H26   1.109582 S    
Zn2   N2    2.008998 S    
O16   C33   1.416914 S    
O5    C3    1.283310 A    
O1    C1    1.281845 A    
C11   N4    1.456883 S    
C26   O16   1.386240 S    
C12   C14   1.534940 S    
C33   H25   1.116219 S    
C17   C19   1.369990 A    
C29   H14   1.111811 S    
O4    Zn1   1.996913 S    
C27   C28   1.520531 S    
C17   C22   1.396352 A    
C31   H19   1.110344 S    
O6    C4    1.283251 A    
C5    C11   1.542406 S    
N4    O13   1.300064 A    
C9    C15   1.182710 T    
C30   H16   1.110868 S    
C6    C12   1.542533 S    
C10   C16   1.182219 T    
C1    C22   1.416682 S    
C32   H22   1.110735 S    
O2    C2    1.282126 A    
C34   H27   1.110442 S    
C26   N2    1.369349 A    
C24   N1    1.363742 A    
C30   H17   1.110534 S    
C7    C12   1.530069 S    
C18   C20   1.369849 A    
C8    C11   1.530117 S    
O4    C2    1.282250 A    
C33   H24   1.109966 S    
C5    C14   1.551226 S    
C23   C25   1.425850 A    
C3    C9    1.396157 S    
C19   C21   1.396777 A    
C28   H11   1.110779 S    
C18   C21   1.396484 A    
C28   H12   1.110539 S    
C5    H1    1.110083 S    
O7    Zn2   1.976062 S    
O7    C3    1.283896 A    
O9    C27   1.409789 S    
C24   C26   1.427178 A    
C6    H2    1.110079 S    
C31   C32   1.522468 S    
C2    C21   1.416735 S    
C25   N1    1.369684 A    
O3    Zn2   1.996914 S    
O8    C4    1.283561 A    
C8    O10   1.411009 S    
C23   N2    1.363535 A    
C27   H9    1.113419 S    
C12   N3    1.457089 S    
C32   H23   1.110877 S    
O1    Zn1   1.996013 S    
C34   H28   1.110985 S    
Zn1   N1    2.008998 S    
C6    C13   1.551625 S    
C5    C7    1.552824 S    
C30   H18   1.110775 S    
O6    Zn2   1.976434 S    
C20   C22   1.396848 A    
C7    O9    1.411097 S    
C24   H8    1.080693 S    
O3    C1    1.282518 A    
O8    Zn1   1.976060 S    
C13   C15   1.427346 S    
C14   C16   1.426568 S    
C29   C30   1.520509 S    
C28   H13   1.110804 S    
C7    C13   1.534948 S    
C17   H3    1.083765 S    
C18   H4    1.083786 S    
C33   C34   1.523197 S    
C27   H10   1.111830 S    
C19   H5    1.083875 S    
C29   H15   1.113367 S    
C20   H6    1.083997 S    
C11   C13   1.535295 S    
O15   C31   1.418473 S    
O2    Zn2   1.996013 S    
N3    O11   1.300004 A    
O5    Zn1   1.976437 S    
C23   H7    1.081212 S    
C6    C8    1.552968 S    
C31   H20   1.116481 S    
C25   O15   1.385754 S    
