data_mof_unit_38849.cif
_audit_creation_date              2012-12-10T17:02:28-0500
_audit_creation_method            fapswitch 2.2
_symmetry_space_group_name_H-M    P1
_symmetry_Int_Tables_number       1
_space_group_crystal_system       triclinic
_cell_length_a                    10.81397
_cell_length_b                    11.046748
_cell_length_c                    9.857118
_cell_angle_alpha                 111.915753
_cell_angle_beta                  98.556792
_cell_angle_gamma                 89.896076
_cell_volume                      1078.41449725

loop_
_atom_site_label
_atom_site_type_symbol
_atom_type_description
_atom_site_fract_x
_atom_site_fract_y
_atom_site_fract_z
_atom_type_partial_charge
C1    C     C_R   0.490992 0.253768 0.440061 0.849912
C2    C     C_R   0.509007 0.746232 0.559939 0.849932
C3    C     C_2   0.486363 0.113818 0.406156 -0.372752
C4    C     C_2   0.513630 0.886183 0.593844 -0.372829
C5    C     C_2   0.501663 0.069707 0.516171 -0.147093
C6    C     C_2   0.498329 0.930294 0.483829 -0.147063
C7    C     C_2   0.510968 0.507913 0.080921 -0.086902
C8    C     C_2   0.489011 0.492117 0.919090 -0.086969
C9    C     C_R   0.262952 0.500572 0.501285 0.792947
C10   C     C_R   0.737050 0.499435 0.498717 0.792967
C11   C     C_R   0.153598 0.722150 0.699304 -0.157485
C12   C     C_R   0.846399 0.277888 0.300604 -0.157521
C13   C     C_R   0.101116 0.829238 0.795275 -0.173850
C14   C     C_R   0.898896 0.170819 0.204626 -0.173929
C15   C     C_R   0.972316 0.831087 0.789528 -0.142479
C16   C     C_R   0.027715 0.168937 0.210470 -0.142488
C17   C     C_R   0.895621 0.724724 0.689486 -0.133215
C18   C     C_R   0.104409 0.275267 0.310578 -0.133197
C19   C     C_R   0.947111 0.611191 0.596054 0.065452
C20   C     C_R   0.052898 0.388813 0.403957 0.065410
C21   C     C_R   0.077868 0.610324 0.600025 0.073626
C22   C     C_R   0.922133 0.389694 0.399944 0.073632
C23   C     C_R   0.870599 0.500524 0.496917 -0.192439
C24   C     C_R   0.129405 0.499483 0.503081 -0.192459
Cu1   Cu    Cu3+1 0.521920 0.521810 0.644910 0.929514
Cu2   Cu    Cu3+1 0.478080 0.478190 0.355090 0.929478
H1    H     H_    0.068551 0.084288 0.138095 0.132697
H2    H     H_    0.931495 0.915734 0.861927 0.132665
H3    H     H_    0.253852 0.729365 0.704560 0.148264
H4    H     H_    0.746133 0.270671 0.295302 0.148316
H5    H     H_    0.160634 0.911811 0.873296 0.136873
H6    H     H_    0.839380 0.088275 0.126540 0.136826
H7    H     H_    0.795901 0.733754 0.686419 0.148424
H8    H     H_    0.204155 0.266197 0.313773 0.148345
H9    H     H_    0.483112 0.863250 0.368510 0.181600
H10   H     H_    0.516882 0.136750 0.631490 0.181559
H11   H     H_    0.529208 0.953435 0.708993 0.141998
H12   H     H_    0.470783 0.046568 0.291008 0.142008
H13   H     H_    0.414398 0.424041 0.843934 0.172423
H14   H     H_    0.585563 0.576016 0.156080 0.172385
N1    N     N_2   0.445130 0.445420 0.137360 -0.221053
N2    N     N_2   0.554870 0.554580 0.862640 -0.221057
O1    O     O_R   0.511700 0.332340 0.577400 -0.579098
O2    O     O_R   0.488300 0.667660 0.422600 -0.579115
O3    O     O_R   0.474680 0.295500 0.332650 -0.588337
O4    O     O_R   0.525320 0.704500 0.667350 -0.588371
O5    O     O_R   0.338170 0.518410 0.622370 -0.585570
O6    O     O_R   0.661830 0.481590 0.377630 -0.585596
O7    O     O_R   0.301150 0.481570 0.377630 -0.585895
O8    O     O_R   0.698850 0.518430 0.622370 -0.585766
C25   C     C_R   0.653688 0.645786 0.955453 0.312486
C26   C     C_R   0.778175 0.609704 0.957589 -0.145533
C27   C     C_R   0.875191 0.698427 0.051425 -0.161320
C28   C     C_R   0.848182 0.823126 0.143998 -0.119198
C29   C     C_R   0.724186 0.859614 0.142066 -0.181643
C30   C     C_R   0.627138 0.771668 0.047135 -0.201500
H15   H     H_    0.799668 0.512619 0.887977 0.140274
H16   H     H_    0.971172 0.670265 0.052979 0.140695
H17   H     H_    0.923299 0.891367 0.217320 0.139302
H18   H     H_    0.703206 0.955902 0.214297 0.142717
H19   H     H_    0.531314 0.800404 0.046395 0.126310
C31   C     C_R   0.346301 0.354214 0.044543 0.312462
C32   C     C_R   0.372855 0.228459 0.952501 -0.201798
C33   C     C_R   0.275777 0.140534 0.857593 -0.181485
C34   C     C_R   0.151752 0.176898 0.856059 -0.119304
C35   C     C_R   0.124745 0.301459 0.948986 -0.161460
C36   C     C_R   0.221786 0.390176 0.042773 -0.145273
H20   H     H_    0.468697 0.199811 0.952943 0.126258
H21   H     H_    0.296751 0.044355 0.785082 0.142791
H22   H     H_    0.076612 0.108669 0.782769 0.139292
H23   H     H_    0.028740 0.329522 0.947750 0.140771
H24   H     H_    0.200277 0.487168 0.112629 0.140433

loop_
_geom_bond_atom_site_label_1
_geom_bond_atom_site_label_2
_ccdc_geom_bond_type
Cu1   N2    S    
C2    C4    S    
C27   H16   S    
C3    H12   S    
C9    C24   S    
C31   C32   A    
Cu1   O8    S    
C8    H13   S    
C10   C23   S    
Cu1   O4    S    
C33   H21   S    
Cu1   O5    S    
C19   C23   A    
C35   H23   S    
Cu2   O6    S    
N2    C25   S    
C29   C30   A    
C12   H4    S    
C33   C34   A    
Cu1   O1    S    
C16   H1    S    
C13   C15   A    
C35   C36   A    
C3    C5    D    
Cu2   O2    S    
C7    C8    S    
C30   H19   S    
C27   C28   A    
C2    O4    A    
C26   C27   A    
C11   C13   A    
C1    O3    A    
C15   H2    S    
C1    O1    A    
C17   H7    S    
N1    C31   S    
C18   H8    S    
C31   C36   A    
C16   C18   A    
C17   C19   A    
C8    N2    D    
C9    O5    A    
C18   C20   A    
C28   H17   S    
C7    N1    D    
C10   O6    A    
C5    C6    S    
C20   C24   A    
C14   C16   A    
Cu2   O7    S    
C26   H15   S    
C20   C22   A    
C32   C33   A    
C25   C26   A    
C10   O8    A    
C5    H10   S    
C12   C22   A    
C9    O7    A    
C6    H9    S    
C11   H3    S    
C4    C6    D    
C36   H24   S    
C21   C24   A    
C14   H6    S    
C15   C17   A    
C13   H5    S    
C28   C29   A    
C32   H20   S    
Cu2   O3    S    
C19   C21   A    
Cu1   Cu2   S    
C29   H18   S    
C7    H14   S    
C34   C35   A    
C11   C21   A    
C22   C23   A    
C2    O2    A    
C34   H22   S    
Cu2   N1    S    
C12   C14   A    
C4    H11   S    
C1    C3    S    
C25   C30   A    
