data_mof_unit_57574.cif
_audit_creation_date              2012-12-10T16:55:45-0500
_audit_creation_method            fapswitch 2.2
_symmetry_space_group_name_H-M    P1
_symmetry_Int_Tables_number       1
_space_group_crystal_system       triclinic
_cell_length_a                    7.783868
_cell_length_b                    8.572671
_cell_length_c                    10.501281
_cell_angle_alpha                 91.108008
_cell_angle_beta                  85.556719
_cell_angle_gamma                 93.766052
_cell_volume                      697.048942244

loop_
_atom_site_label
_atom_site_type_symbol
_atom_type_description
_atom_site_fract_x
_atom_site_fract_y
_atom_site_fract_z
_atom_type_partial_charge
C1    C     C_R   0.545812 0.794696 0.496676 0.955324
C2    C     C_R   0.454188 0.205303 0.503324 0.955320
C3    C     C_R   0.502124 0.502967 0.742245 0.870036
C4    C     C_R   0.497876 0.497032 0.257755 0.870027
C5    C     C_3   0.392256 0.607189 0.965621 -0.191395
C6    C     C_3   0.607743 0.392809 0.034378 -0.191411
C7    C     C_3   0.551499 0.643887 0.044322 -0.266703
C8    C     C_3   0.448501 0.356112 0.955677 -0.266710
C9    C     C_3   0.496407 0.497448 0.123238 -0.007912
C10   C     C_3   0.503593 0.502551 0.876762 -0.007902
C11   C     C_3   0.341439 0.461538 0.045839 0.174424
C12   C     C_3   0.658560 0.538461 0.954161 0.174427
C13   C     C_2   0.569840 0.958286 0.494773 -0.385597
C14   C     C_2   0.430159 0.041714 0.505227 -0.385598
H1    H     H_    0.595730 0.759385 0.083885 0.139660
H2    H     H_    0.404270 0.240613 0.916115 0.139659
H3    H     H_    0.302895 0.692056 0.934227 0.143278
H4    H     H_    0.697104 0.307942 0.065773 0.143278
H5    H     H_    0.013545 0.382399 0.403888 0.191636
H6    H     H_    0.986455 0.617601 0.596112 0.191646
H7    H     H_    0.701701 0.009523 0.484796 0.180173
H8    H     H_    0.298299 0.990477 0.515204 0.180173
N1    N     N_2   0.950320 0.457950 0.465730 -0.168858
N2    N     N_2   0.049680 0.542050 0.534270 -0.168858
O1    O     O_R   0.389250 0.738570 0.508410 -0.613724
O2    O     O_R   0.610750 0.261430 0.491590 -0.613724
O3    O     O_R   0.678390 0.711620 0.486450 -0.632356
O4    O     O_R   0.321610 0.288380 0.513550 -0.632359
O5    O     O_R   0.355460 0.513510 0.697030 -0.623121
O6    O     O_R   0.644540 0.486490 0.302970 -0.623117
O7    O     O_R   0.644600 0.486560 0.675070 -0.614694
O8    O     O_R   0.355400 0.513440 0.324930 -0.614708
Zn1   Zn    Zn3+2 0.306940 0.517990 0.514670 0.942774
Zn2   Zn    Zn3+2 0.693060 0.482010 0.485330 0.942779
N3    N     N_3   0.167225 0.419353 0.100431 -0.447411
H9    H     H_    0.091256 0.391555 0.024386 0.184774
H10   H     H_    0.172112 0.316313 0.151259 0.169694
N4    N     N_3   0.832773 0.580648 0.899568 -0.447413
H11   H     H_    0.908779 0.608351 0.975612 0.184797
H12   H     H_    0.827905 0.683729 0.848806 0.169693

loop_
_geom_bond_atom_site_label_1
_geom_bond_atom_site_label_2
_ccdc_geom_bond_type
C1    C13   S    
H5    N1    S    
N1    N2    D    
C2    O4    A    
N2    Zn1   S    
C3    O7    A    
N1    Zn2   S    
C1    O3    A    
O8    Zn1   S    
C14   H8    S    
C6    C9    S    
C11   N3    S    
O7    Zn2   S    
C13   H7    S    
C5    C10   S    
C8    H2    S    
C3    C10   S    
C13   C14   D    
C1    O1    A    
C9    C11   S    
C3    O5    A    
C4    O8    A    
C10   C12   S    
C8    C11   S    
C6    H4    S    
C8    C10   S    
N4    H12   S    
O4    Zn1   S    
C5    C11   S    
C7    C9    S    
O3    Zn2   S    
C6    C12   S    
C7    C12   S    
C2    C14   S    
C5    H3    S    
O6    Zn2   S    
C12   N4    S    
O5    Zn1   S    
N4    H11   S    
C2    O2    A    
C5    C7    S    
C6    C8    S    
C7    H1    S    
N3    H10   S    
C4    C9    S    
O2    Zn2   S    
C4    O6    A    
H6    N2    S    
O1    Zn1   S    
N3    H9    S    
