data_mof_unit_28304.cif
_audit_creation_date              2012-12-10T20:27:11-0500
_audit_creation_method            fapswitch 2.2
_symmetry_space_group_name_H-M    P1
_symmetry_Int_Tables_number       1
_space_group_crystal_system       triclinic
_cell_length_a                    10.878125
_cell_length_b                    10.686741
_cell_length_c                    9.870838
_cell_angle_alpha                 89.646423
_cell_angle_beta                  104.458333
_cell_angle_gamma                 90.131676
_cell_volume                      1111.13825272

loop_
_atom_site_label
_atom_site_type_symbol
_atom_type_description
_atom_site_fract_x
_atom_site_fract_y
_atom_site_fract_z
_atom_type_partial_charge
C1    C     C_R   0.503980 0.259856 0.501335 0.879709
C2    C     C_R   0.604714 0.535178 0.100326 -0.152126
C3    C     C_R   0.604767 0.534982 0.956530 -0.133988
C4    C     C_R   0.259122 0.500696 0.441061 0.827384
C5    C     C_R   0.390855 0.476326 0.899077 0.152668
C6    C     C_3   0.313642 0.359535 0.873257 -0.596371
C7    C     C_3   0.314473 0.358753 0.027713 0.325208
C8    C     C_R   0.504356 0.740000 0.500787 0.867975
C9    C     C_R   0.740672 0.498258 0.558828 0.941007
C10   C     C_2   0.122127 0.496755 0.406074 0.345901
C11   C     C_2   0.066236 0.499139 0.512075 -0.296592
C12   C     C_R   0.525055 0.128417 0.507004 -0.105246
C13   C     C_2   0.877007 0.497581 0.592993 -0.404585
C14   C     C_2   0.932470 0.480886 0.488867 -0.116082
C15   C     C_R   0.532267 0.062665 0.630937 0.141767
C16   C     C_3   0.130418 0.268473 0.055757 -0.225103
C17   C     C_3   0.031287 0.590747 0.198842 -0.273086
C18   C     C_R   0.543361 0.065442 0.389127 -0.234079
C19   C     C_R   0.543726 0.936035 0.388769 -0.232834
C20   C     C_R   0.525727 0.871220 0.506251 -0.104441
C21   C     C_R   0.532494 0.934928 0.630427 0.134442
C22   C     C_3   0.449619 0.925927 0.730125 -0.474031
C23   C     C_3   0.449239 0.067623 0.730705 -0.507875
C24   C     C_R   0.391007 0.475865 0.041637 0.189585
H1    H     H_    0.877911 0.458895 0.383535 0.221375
H2    H     H_    0.548050 0.114912 0.294409 0.167614
H3    H     H_    0.548584 0.887960 0.293939 0.172120
H4    H     H_    0.354945 0.884595 0.682022 0.202480
H5    H     H_    0.500215 0.884147 0.832206 0.204898
H6    H     H_    0.354225 0.108403 0.682808 0.203387
H7    H     H_    0.178025 0.214274 0.150930 0.153080
H8    H     H_    0.124163 0.211753 0.960027 0.132136
H9    H     H_    0.032055 0.288512 0.062250 0.208059
H10   H     H_    0.121539 0.636595 0.192080 0.176962
H11   H     H_    0.975153 0.654293 0.249309 0.134287
H12   H     H_    0.499909 0.107237 0.833381 0.200153
H13   H     H_    0.974688 0.573695 0.090397 0.189991
H14   H     H_    0.689999 0.562009 0.177168 0.158051
H15   H     H_    0.689992 0.561292 0.925733 0.147272
H16   H     H_    0.218251 0.375351 0.802208 0.220325
H17   H     H_    0.366861 0.280465 0.843830 0.179242
H18   H     H_    0.368272 0.280110 0.090418 0.078904
H19   H     H_    0.119812 0.516900 0.618876 0.162656
H20   H     H_    0.931134 0.516575 0.699330 0.163286
N1    N     N_R   0.499160 0.499140 0.142600 -0.140209
N2    N     N_R   0.499160 0.499180 0.856960 -0.097564
O1    O     O_R   0.500020 0.316790 0.614700 -0.609057
O2    O     O_3   0.054002 0.474949 0.269690 -0.591457
O3    O     O_R   0.500000 0.316760 0.385350 -0.629469
O4    O     O_R   0.317820 0.500020 0.571850 -0.644203
O5    O     O_R   0.317800 0.499980 0.342510 -0.562052
O6    O     O_R   0.500000 0.683240 0.614650 -0.614432
O7    O     O_R   0.499980 0.683210 0.385300 -0.624131
O8    O     O_R   0.682200 0.500020 0.657490 -0.621167
O9    O     O_R   0.682180 0.499980 0.428150 -0.627589
O10   O     O_3   0.193482 0.382941 0.049809 -0.556826
Zn1   Zn    Zn3+2 0.500010 0.500020 0.653140 0.938516
Zn2   Zn    Zn3+2 0.499990 0.499980 0.346860 0.954157

loop_
_geom_bond_atom_site_label_1
_geom_bond_atom_site_label_2
_ccdc_geom_bond_type
C8    O7    A    
O7    Zn2   S    
C16   O10   S    
C11   H19   S    
C6    C7    S    
C9    O9    A    
C22   H5    S    
C16   H9    S    
O1    Zn1   S    
C19   H3    S    
C5    N2    A    
C8    O6    A    
C3    N2    A    
C19   C20   A    
C18   H2    S    
C12   C15   A    
C17   O2    S    
C15   C23   S    
C2    C3    A    
C3    H15   S    
C14   H1    S    
O5    Zn2   S    
C22   H4    S    
C13   C14   D    
C16   H7    S    
C5    C24   A    
C17   H10   S    
C8    C20   S    
C1    C12   S    
C7    O10   S    
C24   N1    A    
C18   C19   A    
N2    Zn1   S    
C10   O2    S    
C5    C6    S    
C11   C14   S    
C6    H16   S    
N1    Zn2   S    
O9    Zn2   S    
C16   H8    S    
C2    N1    A    
C17   H13   S    
C4    O5    A    
C4    C10   S    
O6    Zn1   S    
C23   H6    S    
C15   C21   A    
C20   C21   A    
C23   H12   S    
C10   C11   D    
C7    H18   S    
C12   C18   A    
C2    H14   S    
C22   C23   S    
C1    O1    A    
C9    C13   S    
C9    O8    A    
C17   H11   S    
C21   C22   S    
O4    Zn1   S    
C1    O3    A    
O8    Zn1   S    
C13   H20   S    
O3    Zn2   S    
C7    C24   S    
C4    O4    A    
C6    H17   S    
