data_mof_unit_64517.cif
_audit_creation_date              2012-10-26T18:02:15-0400
_audit_creation_method            fapswitch 2.2
_symmetry_space_group_name_H-M    P1
_symmetry_Int_Tables_number       1
_space_group_crystal_system       triclinic
_cell_length_a                    18.808436
_cell_length_b                    18.809068
_cell_length_c                    18.76881
_cell_angle_alpha                 109.325318
_cell_angle_beta                  109.463055
_cell_angle_gamma                 109.366511
_cell_volume                      5127.59352182

loop_
_atom_site_label
_atom_site_type_symbol
_atom_type_description
_atom_site_fract_x
_atom_site_fract_y
_atom_site_fract_z
_atom_type_partial_charge
C1    C     C_R   0.118396 0.999717 0.618837 0.548367
C2    C     C_R   0.546851 0.356513 0.749823 -0.112121
C3    C     C_R   0.577676 0.442785 0.808697 -0.100581
C4    C     C_R   0.116741 0.118348 0.498021 0.555214
C5    C     C_R   0.528569 0.482802 0.790868 -0.103915
C6    C     C_R   0.448736 0.436830 0.713802 -0.062175
C7    C     C_R   0.417637 0.350237 0.654285 0.058997
C8    C     C_R   0.264801 0.018728 0.689576 0.010161
C9    C     C_R   0.185564 0.001558 0.686637 0.018021
C10   C     C_R   0.175603 0.996198 0.755957 -0.153968
C11   C     C_R   0.239942 0.995979 0.820445 -0.156372
C12   C     C_R   0.913246 0.054698 0.197682 -0.093185
C13   C     C_R   0.315691 0.004074 0.817301 0.015184
C14   C     C_R   0.329308 0.020938 0.754517 0.030194
C15   C     C_3   0.354965 0.977335 0.693393 -0.275903
C16   C     C_R   0.881412 0.000415 0.381257 0.557816
C17   C     C_3   0.283854 0.974833 0.621961 -0.272199
C18   C     C_R   0.820479 0.746514 0.504791 0.022547
C19   C     C_R   0.813781 0.815884 0.499310 0.024289
C20   C     C_R   0.738955 0.820425 0.494140 -0.141800
C21   C     C_R   0.673652 0.755090 0.493291 -0.141071
C22   C     C_R   0.684231 0.686477 0.500697 0.035331
C23   C     C_R   0.229880 0.266064 0.430706 -0.147030
C24   C     C_R   0.759715 0.685954 0.507490 0.037093
C25   C     C_3   0.807660 0.637399 0.515626 -0.259639
C26   C     C_3   0.877453 0.707094 0.513332 -0.271699
C27   C     C_R   0.743040 0.922327 0.242713 0.017608
C28   C     C_R   0.881213 0.881533 0.499965 0.550591
C29   C     C_R   0.812975 0.000124 0.315906 0.023065
C30   C     C_R   0.812044 0.077918 0.329335 -0.147774
C31   C     C_R   0.748424 0.078200 0.264228 -0.163442
C32   C     C_R   0.683784 0.000235 0.186902 0.017013
C33   C     C_R   0.678733 0.922315 0.179764 0.025270
C34   C     C_R   0.313963 0.316087 0.503389 -0.003916
C35   C     C_3   0.670565 0.849414 0.107637 -0.286360
C36   C     C_3   0.741249 0.849359 0.176987 -0.263301
C37   C     C_R   0.499456 0.618468 0.618796 0.543705
C38   C     C_R   0.381086 0.382305 0.501753 0.542154
C39   C     C_R   0.499874 0.381144 0.381435 0.568415
C40   C     C_R   0.962941 0.014931 0.214187 -0.108806
C41   C     C_R   0.618534 0.619006 0.500187 0.567362
C42   C     C_R   0.499934 0.118566 0.118660 0.547155
C43   C     C_R   0.381355 0.000291 0.881265 0.543751
C44   C     C_R   0.500641 0.881415 0.881835 0.551996
C45   C     C_R   0.331848 0.299945 0.574300 -0.029815
C46   C     C_R   0.618527 0.999521 0.118443 0.544302
C47   C     C_R   0.476796 0.743624 0.669825 -0.001279
C48   C     C_R   0.495681 0.682340 0.684496 0.024498
C49   C     C_R   0.507061 0.681533 0.762069 -0.149010
C50   C     C_R   0.507309 0.746271 0.826510 -0.146957
C51   C     C_R   0.500556 0.814556 0.815490 0.041940
C52   C     C_R   0.044612 0.061829 0.289076 -0.062980
C53   C     C_R   0.482669 0.810477 0.735384 0.011123
C54   C     C_3   0.522587 0.874945 0.710678 -0.028016
C55   C     C_3   0.513527 0.800151 0.636871 -0.241561
C56   C     C_R   0.265587 0.234222 0.570178 -0.147585
C57   C     C_R   0.494535 0.315353 0.240893 0.037132
C58   C     C_R   0.499409 0.313818 0.315671 0.020830
C59   C     C_R   0.505228 0.244441 0.325707 -0.156269
C60   C     C_R   0.504309 0.179070 0.260372 -0.152149
C61   C     C_R   0.500599 0.184284 0.186051 0.020034
C62   C     C_R   0.496870 0.254511 0.179956 -0.006071
C63   C     C_3   0.489811 0.294482 0.123293 -0.244063
C64   C     C_R   0.076743 0.148795 0.348420 0.025820
C65   C     C_3   0.487778 0.364501 0.193270 -0.031009
C66   C     C_R   0.026846 0.188607 0.331063 -0.106618
C67   C     C_R   0.182803 0.184319 0.497212 0.012936
C68   C     C_R   0.945388 0.141605 0.255866 -0.107853
C69   C     C_R   0.164184 0.199575 0.426462 -0.036000
C70   C     C_R   0.466873 0.310128 0.673025 -0.087185
Cu1   Cu    Cu3+1 0.000020 0.938200 0.438220 0.917238
Cu2   Cu    Cu3+1 0.999980 0.061800 0.561780 0.946642
Cu3   Cu    Cu3+1 0.438190 0.500040 0.438260 0.947492
Cu4   Cu    Cu3+1 0.561780 0.500000 0.561820 0.946908
Cu5   Cu    Cu3+1 0.561810 0.061820 0.000020 0.978471
Cu6   Cu    Cu3+1 0.438190 0.938280 0.000080 0.932868
H1    H     H_    0.849913 0.018243 0.139832 0.123829
H2    H     H_    0.229667 0.907949 0.571417 0.151492
H3    H     H_    0.730498 0.873270 0.489532 0.130269
H4    H     H_    0.938398 0.947880 0.168716 0.100481
H5    H     H_    0.616116 0.758915 0.488287 0.126282
H6    H     H_    0.830097 0.639317 0.579362 0.142329
H7    H     H_    0.772706 0.571904 0.457515 0.171170
H8    H     H_    0.939971 0.749537 0.575904 0.132056
H9    H     H_    0.882988 0.681748 0.454043 0.160164
H10   H     H_    0.863073 0.138878 0.387662 0.133451
H11   H     H_    0.750690 0.139038 0.273371 0.123560
H12   H     H_    0.639413 0.478505 0.868340 0.112499
H13   H     H_    0.606294 0.789787 0.072823 0.141151
H14   H     H_    0.690892 0.869337 0.064920 0.130760
H15   H     H_    0.717611 0.789765 0.182231 0.149843
H16   H     H_    0.083100 0.030705 0.300346 0.122419
H17   H     H_    0.802508 0.868942 0.174369 0.144948
H18   H     H_    0.517163 0.632077 0.773321 0.116303
H19   H     H_    0.516830 0.745316 0.886321 0.114354
H20   H     H_    0.480003 0.900709 0.687162 0.120183
H21   H     H_    0.464349 0.781985 0.571460 0.121008
H22   H     H_    0.576072 0.805882 0.642134 0.160183
H23   H     H_    0.552296 0.549264 0.837189 0.097976
H24   H     H_    0.509035 0.240056 0.382846 0.128786
H25   H     H_    0.507689 0.125632 0.268407 0.127759
H26   H     H_    0.549037 0.318392 0.117542 0.176512
H27   H     H_    0.051060 0.255898 0.375722 0.111086
H28   H     H_    0.427448 0.252597 0.060558 0.119534
H29   H     H_    0.424541 0.363333 0.170581 0.143245
H30   H     H_    0.906980 0.172431 0.242890 0.120885
H31   H     H_    0.215402 0.277367 0.375851 0.142093
H32   H     H_    0.278536 0.221810 0.624385 0.118668
H33   H     H_    0.443299 0.243096 0.628120 0.102805
H34   H     H_    0.410881 0.468194 0.700736 0.096215
H35   H     H_    0.584735 0.325455 0.763887 0.112721
H36   H     H_    0.116600 0.988052 0.757876 0.127190
H37   H     H_    0.229861 0.987812 0.871411 0.131855
H38   H     H_    0.421432 0.020868 0.709119 0.147841
H39   H     H_    0.342127 0.911940 0.684334 0.128544
H40   H     H_    0.309357 0.016952 0.596547 0.135331
I1    I     I_    0.656696 0.971203 0.802942 -0.387365
I2    I     I_    0.600770 0.490123 0.262383 -0.421996
O1    O     O_R   0.090190 0.947810 0.538000 -0.515062
O2    O     O_R   0.447820 0.038100 0.090220 -0.514768
O3    O     O_R   0.462030 0.052220 0.909860 -0.504090
O4    O     O_R   0.090150 0.052180 0.642350 -0.507685
O5    O     O_R   0.357640 0.947890 0.909900 -0.514277
O6    O     O_R   0.552180 0.962000 0.909880 -0.472441
O7    O     O_R   0.447790 0.857670 0.909930 -0.519073
O8    O     O_R   0.642360 0.052210 0.090200 -0.509811
O9    O     O_R   0.537970 0.947880 0.090240 -0.508478
O10   O     O_R   0.090200 0.037990 0.447830 -0.519644
O11   O     O_R   0.090160 0.142360 0.552180 -0.506068
O12   O     O_R   0.552160 0.590170 0.642390 -0.511383
O13   O     O_R   0.909850 0.947820 0.357650 -0.510940
O14   O     O_R   0.909810 0.052190 0.462000 -0.514328
O15   O     O_R   0.909840 0.857640 0.447820 -0.505150
O16   O     O_R   0.909800 0.962010 0.552170 -0.510320
O17   O     O_R   0.447790 0.590200 0.538040 -0.513013
O18   O     O_R   0.357620 0.409850 0.447860 -0.519883
O19   O     O_R   0.461990 0.409820 0.552210 -0.501543
O20   O     O_R   0.447810 0.409860 0.357690 -0.500783
O21   O     O_R   0.552180 0.409830 0.462050 -0.511618
O22   O     O_R   0.537970 0.590210 0.447870 -0.499191
O23   O     O_R   0.642350 0.590180 0.552220 -0.510315
O24   O     O_R   0.552210 0.142430 0.090170 -0.508418

loop_
_geom_bond_atom_site_label_1
_geom_bond_atom_site_label_2
_ccdc_geom_bond_type
C66   C68   A    
C63   C65   S    
C59   H24   S    
C27   C29   A    
Cu3   Cu4   S    
C23   C69   A    
C35   C36   S    
C18   C26   S    
C7    C70   A    
C57   C62   A    
C53   C54   S    
C27   C33   A    
C12   C68   A    
C29   C30   A    
C28   O16   A    
C7    C45   S    
C22   C24   A    
C21   C22   A    
C70   H33   S    
C30   C31   A    
C50   H19   S    
C22   C41   S    
Cu3   O20   S    
C37   O12   A    
C18   C19   A    
C1    O1    A    
C16   O13   A    
C1    O4    A    
C56   H32   S    
C41   O22   A    
C36   H17   S    
Cu3   O17   S    
C45   C56   A    
C8    C9    A    
C42   O24   A    
C8    C14   A    
C65   I2    S    
C37   O17   A    
C10   H36   S    
C38   O18   A    
C49   H18   S    
C30   H10   S    
C9    C10   A    
C43   O3    A    
C54   H20   S    
C47   C53   A    
C39   O20   A    
C59   C60   A    
C34   C38   S    
C13   C14   A    
Cu6   O7    S    
C6    H34   S    
C68   H30   S    
C63   H26   S    
C16   O14   A    
C65   H29   S    
C25   C26   S    
Cu2   O14   S    
C44   O7    A    
Cu4   O19   S    
C39   O21   A    
C2    H35   S    
C31   H11   S    
C4    O10   A    
Cu5   O6    S    
C5    H23   S    
C46   O9    A    
Cu2   O11   S    
C1    C9    S    
C24   C25   S    
C52   C64   A    
C16   C29   S    
C40   C52   A    
C39   C58   S    
C44   O6    A    
C28   O15   A    
C60   C61   A    
C67   C69   A    
C64   C66   A    
C12   C40   A    
Cu5   Cu6   S    
C41   O23   A    
C62   C63   S    
Cu5   O24   S    
Cu2   O16   S    
C47   C48   A    
Cu3   O18   S    
C23   C34   A    
C23   H31   S    
C12   H1    S    
C55   H21   S    
C40   H4    S    
C50   C51   A    
C15   H38   S    
C34   C45   A    
Cu6   O2    S    
C64   C69   S    
C37   C48   S    
C19   C28   S    
C42   C61   S    
C4    O11   A    
C35   H13   S    
C44   C51   S    
C48   C49   A    
Cu4   O23   S    
C21   H5    S    
Cu4   O12   S    
C25   H6    S    
C18   C24   A    
Cu1   O10   S    
C52   H16   S    
C60   H25   S    
C43   O5    A    
C13   C43   S    
C36   H15   S    
C47   C55   S    
C15   C17   S    
C54   C55   S    
C26   H8    S    
C20   H3    S    
Cu2   O4    S    
C3    H12   S    
Cu5   O3    S    
Cu6   O5    S    
C32   C46   S    
C66   H27   S    
C46   O8    A    
C31   C32   A    
C57   C65   S    
C63   H28   S    
C3    C5    A    
Cu1   O15   S    
C4    C67   S    
C6    C7    A    
Cu3   O22   S    
C27   C36   S    
C56   C67   A    
Cu4   O21   S    
C8    C17   S    
Cu1   O1    S    
Cu5   O8    S    
C32   C33   A    
C19   C20   A    
C2    C3    A    
C58   C59   A    
Cu1   Cu2   S    
C11   C13   A    
C42   O2    A    
C57   C58   A    
C5    C6    A    
C26   H9    S    
C55   H22   S    
C17   H2    S    
C33   C35   S    
C38   O19   A    
C15   H39   S    
C61   C62   A    
C11   H37   S    
C10   C11   A    
Cu1   O13   S    
C35   H14   S    
C20   C21   A    
C49   C50   A    
C54   I1    S    
C25   H7    S    
Cu6   O9    S    
C14   C15   S    
C51   C53   A    
C2    C70   A    
C17   H40   S    
