data_mof_unit_37385.cif
_audit_creation_date              2012-12-10T16:51:33-0500
_audit_creation_method            fapswitch 2.2
_symmetry_space_group_name_H-M    P1
_symmetry_Int_Tables_number       1
_space_group_crystal_system       triclinic
_cell_length_a                    7.865944
_cell_length_b                    8.562437
_cell_length_c                    12.086507
_cell_angle_alpha                 92.86742
_cell_angle_beta                  101.265075
_cell_angle_gamma                 93.990988
_cell_volume                      794.740963709

loop_
_atom_site_label
_atom_site_type_symbol
_atom_type_description
_atom_site_fract_x
_atom_site_fract_y
_atom_site_fract_z
_atom_type_partial_charge
C1    C     C_R   0.044377 0.794530 0.497362 0.956817
C2    C     C_R   0.159137 0.503087 0.832360 -0.115964
C3    C     C_2   0.067526 0.958250 0.495957 -0.385937
C4    C     C_R   0.105912 0.503548 0.710280 0.838554
C5    C     C_2   0.932700 0.041839 0.504424 -0.377193
C6    C     C_R   0.955721 0.205495 0.502793 0.962475
C7    C     C_R   0.892476 0.488268 0.289650 0.875032
C8    C     C_R   0.808935 0.286836 0.001256 -0.186261
C9    C     C_R   0.829659 0.456720 0.169543 -0.070601
C10   C     C_R   0.073988 0.593736 0.901148 -0.182180
C11   C     C_R   0.145377 0.623261 0.015250 -0.132882
C12   C     C_R   0.395994 0.482266 0.990301 0.081986
C13   C     C_R   0.306689 0.571118 0.059612 -0.183189
C14   C     C_R   0.310163 0.432069 0.879783 0.075180
C15   C     C_R   0.568073 0.442336 0.026645 0.088537
C16   C     C_R   0.640555 0.331548 0.961655 0.164497
C17   C     C_R   0.542629 0.265375 0.859449 -0.240640
C18   C     C_R   0.379355 0.315356 0.818583 -0.198935
C19   C     C_R   0.671388 0.512629 0.125204 -0.244900
C20   C     C_R   0.901918 0.346430 0.106878 -0.172508
H1    H     H_    0.025370 0.301693 0.141425 0.172543
H2    H     H_    0.307023 0.260566 0.739082 0.170062
H3    H     H_    0.194728 0.009400 0.487963 0.195738
H4    H     H_    0.805500 0.990720 0.512450 0.188204
H5    H     H_    0.530848 0.627179 0.582877 0.164704
H6    H     H_    0.593514 0.177368 0.810031 0.150023
H7    H     H_    0.865084 0.201308 0.952984 0.138236
H8    H     H_    0.627703 0.606649 0.172764 0.150353
H9    H     H_    0.955510 0.646235 0.865987 0.157614
H10   H     H_    0.356441 0.598620 0.148680 0.153065
H11   H     H_    0.078741 0.691801 0.068635 0.148166
I1    I     I_    0.466430 0.275554 0.357908 -0.285137
N1    N     N_2   0.434800 0.456690 0.470850 0.007534
N2    N     N_2   0.565200 0.543310 0.529150 -0.132100
O1    O     O_R   0.893060 0.738880 0.507150 -0.615806
O2    O     O_R   0.172250 0.711130 0.488470 -0.628520
O3    O     O_R   0.944700 0.520730 0.667600 -0.617286
O4    O     O_R   0.223890 0.492980 0.648920 -0.624538
O5    O     O_R   0.827750 0.288870 0.511530 -0.593775
O6    O     O_R   0.106940 0.261120 0.492850 -0.604986
O7    O     O_R   0.776110 0.507020 0.351080 -0.585912
O8    O     O_R   0.055300 0.479270 0.332400 -0.609242
Zn1   Zn    Zn3+2 0.813580 0.518530 0.512470 0.975091
Zn2   Zn    Zn3+2 0.186420 0.481470 0.487530 0.974081

loop_
_geom_bond_atom_site_label_1
_geom_bond_atom_site_label_2
_ccdc_geom_bond_type
O3    Zn1   S    
C2    C4    S    
O4    Zn2   S    
O1    Zn1   S    
C14   C18   A    
C9    C20   A    
C3    H3    S    
C12   C15   A    
O6    Zn2   S    
H5    N2    S    
I1    N1    S    
N1    N2    D    
C11   H11   S    
C8    C16   A    
C20   H1    S    
C15   C19   A    
C19   H8    S    
O7    Zn1   S    
C10   H9    S    
C8    C20   A    
C5    H4    S    
O8    Zn2   S    
C17   H6    S    
C12   C14   A    
C17   C18   A    
C7    O7    A    
C5    C6    S    
C2    C14   A    
C6    O6    A    
O2    Zn2   S    
C10   C11   A    
C15   C16   A    
C2    C10   A    
C3    C5    D    
C13   H10   S    
C11   C13   A    
C4    O3    A    
C1    O1    A    
C7    O8    A    
C7    C9    S    
C8    H7    S    
C6    O5    A    
O5    Zn1   S    
C12   C13   A    
C18   H2    S    
N1    Zn2   S    
C9    C19   A    
N2    Zn1   S    
C1    O2    A    
C4    O4    A    
C16   C17   A    
C1    C3    S    
