data_mof_unit_48309.cif
_audit_creation_date              2012-12-11T16:47:49-0500
_audit_creation_method            fapswitch 2.2
_symmetry_space_group_name_H-M    P1
_symmetry_Int_Tables_number       1
_space_group_crystal_system       triclinic
_cell_length_a                    26.025455
_cell_length_b                    7.253578
_cell_length_c                    23.978253
_cell_angle_alpha                 89.999861
_cell_angle_beta                  101.497744
_cell_angle_gamma                 90.0
_cell_volume                      4435.72220759

loop_
_atom_site_label
_atom_site_type_symbol
_atom_type_description
_atom_site_fract_x
_atom_site_fract_y
_atom_site_fract_z
_atom_type_partial_charge
O1    O     O_R   0.797620 0.601060 0.203310 -0.541932
O2    O     O_R   0.202380 0.398940 0.796690 -0.543132
O3    O     O_R   0.702380 0.101060 0.296690 -0.541933
O4    O     O_R   0.297620 0.898940 0.703310 -0.543131
O5    O     O_R   0.692070 0.267810 0.186600 -0.539071
O6    O     O_R   0.307930 0.732190 0.813400 -0.536763
O7    O     O_R   0.807930 0.767810 0.313400 -0.539069
O8    O     O_R   0.192070 0.232190 0.686600 -0.536763
C1    C     C_R   0.674061 0.439430 0.171665 0.702008
C2    C     C_R   0.325991 0.560379 0.828313 0.697092
C3    C     C_R   0.825939 0.939430 0.328335 0.702007
C4    C     C_R   0.174008 0.060380 0.671687 0.697091
O9    O     O_R   0.796590 0.271120 0.196480 -0.509046
O10   O     O_R   0.203410 0.728880 0.803520 -0.509365
O11   O     O_R   0.703410 0.771120 0.303520 -0.509048
O12   O     O_R   0.296590 0.228880 0.696480 -0.509364
O13   O     O_R   0.807640 0.104280 0.306650 -0.534455
O14   O     O_R   0.192360 0.895720 0.693350 -0.533708
O15   O     O_R   0.692360 0.604280 0.193350 -0.534455
O16   O     O_R   0.307640 0.395720 0.806650 -0.533708
C5    C     C_R   0.811120 0.439828 0.183023 0.714241
C6    C     C_R   0.188515 0.560368 0.816634 0.713604
C7    C     C_R   0.688880 0.939828 0.316978 0.714237
C8    C     C_R   0.311486 0.060368 0.683367 0.713609
O17   O     O_3   0.753500 0.435660 0.286130 -0.375769
O18   O     O_3   0.246500 0.564340 0.713870 -0.374597
O19   O     O_3   0.746500 0.935660 0.213870 -0.375771
O20   O     O_3   0.253500 0.064340 0.786130 -0.374599
V1    V     V_3+5 0.749350 0.159470 0.243300 1.419176
V2    V     V_3+5 0.250650 0.840530 0.756700 1.421145
V3    V     V_3+5 0.750650 0.659470 0.256700 1.419177
V4    V     V_3+5 0.249350 0.340530 0.743300 1.421143
C9    C     C_R   0.372578 0.882547 0.634606 -0.218520
C10   C     C_R   0.628614 0.117963 0.366800 -0.211585
C11   C     C_R   0.127424 0.382550 0.865398 -0.218516
C12   C     C_R   0.871388 0.617961 0.133203 -0.211584
H1    H     H_    0.364459 0.759413 0.656857 0.202295
H2    H     H_    0.636239 0.241012 0.344207 0.199873
H3    H     H_    0.135539 0.259417 0.843143 0.202285
H4    H     H_    0.863764 0.741010 0.155797 0.199871
C13   C     C_R   0.408732 0.869587 0.598875 -0.214530
C14   C     C_R   0.592900 0.130409 0.403062 -0.211452
C15   C     C_R   0.091272 0.369591 0.901131 -0.214510
C16   C     C_R   0.907103 0.630407 0.096943 -0.211446
H5    H     H_    0.427077 0.737880 0.594245 0.194530
H6    H     H_    0.574275 0.261604 0.407673 0.192639
H7    H     H_    0.072924 0.237889 0.905759 0.194518
H8    H     H_    0.925731 0.761600 0.092334 0.192636
C17   C     C_R   0.422877 0.025836 0.571194 -0.075063
C18   C     C_R   0.579480 0.974066 0.431244 -0.076349
C19   C     C_R   0.077132 0.525838 0.928816 -0.075070
C20   C     C_R   0.920523 0.474065 0.068760 -0.076352
C21   C     C_R   0.398102 0.195469 0.577132 0.375562
C22   C     C_R   0.604818 0.805375 0.425592 0.375101
C23   C     C_R   0.101911 0.695465 0.922881 0.375563
C24   C     C_R   0.895184 0.305376 0.074411 0.375102
C25   C     C_R   0.359748 0.207765 0.611240 0.341534
C26   C     C_R   0.642826 0.793888 0.391070 0.340199
C27   C     C_R   0.140261 0.707761 0.888768 0.341527
C28   C     C_R   0.857174 0.293891 0.108931 0.340202
C29   C     C_R   0.348038 0.051143 0.642370 -0.219404
C30   C     C_R   0.653244 0.949649 0.358875 -0.222050
C31   C     C_R   0.151966 0.551142 0.857634 -0.219407
C32   C     C_R   0.846757 0.449650 0.141126 -0.222052
C33   C     C_R   0.455419 0.894401 0.488249 -0.218026
C34   C     C_R   0.547247 0.104157 0.514561 -0.218660
C35   C     C_R   0.044586 0.394392 0.011757 -0.218027
C36   C     C_R   0.952763 0.604180 0.985449 -0.218655
H9    H     H_    0.419580 0.815178 0.477125 0.128270
H10   H     H_    0.583096 0.183329 0.525658 0.128218
H11   H     H_    0.080423 0.315158 0.022879 0.128279
H12   H     H_    0.916917 0.683369 0.974356 0.128223
C37   C     C_R   0.492967 0.883086 0.453906 -0.111328
C38   C     C_R   0.509712 0.115401 0.548931 -0.111369
C39   C     C_R   0.007035 0.383073 0.046098 -0.111327
C40   C     C_R   0.990300 0.615427 0.951082 -0.111370
H13   H     H_    0.485957 0.793027 0.417144 0.136336
H14   H     H_    0.516732 0.205471 0.585689 0.136706
H15   H     H_    0.014043 0.293003 0.082857 0.136341
H16   H     H_    0.983284 0.705514 0.914328 0.136702
C41   C     C_R   0.539142 0.988189 0.466789 0.150479
C42   C     C_R   0.463458 0.010668 0.535959 0.149749
C43   C     C_R   0.960863 0.488190 0.033217 0.150472
C44   C     C_R   0.036550 0.510675 0.964051 0.149748
C45   C     C_3   0.963246 0.895894 0.520900 -0.118822
C46   C     C_3   0.035141 0.102664 0.481546 -0.075684
C47   C     C_3   0.536752 0.395903 0.979102 -0.118831
C48   C     C_3   0.464854 0.602654 0.018459 -0.075687
C49   C     C_3   0.986907 0.082913 0.546300 0.352033
C50   C     C_3   0.011948 0.917995 0.455924 0.370312
C51   C     C_3   0.513088 0.582922 0.953704 0.352042
C52   C     C_3   0.488050 0.417984 0.044078 0.370333
C53   C     C_1   0.128285 0.050615 0.625976 -0.204117
C54   C     C_1   0.871339 0.947776 0.374382 -0.215971
C55   C     C_1   0.371714 0.550614 0.874025 -0.204128
C56   C     C_1   0.628660 0.447777 0.125619 -0.215970
C57   C     C_3   0.019401 0.833555 0.516435 0.305887
C58   C     C_3   0.979499 0.166680 0.485853 0.314744
C59   C     C_3   0.480598 0.333554 0.983567 0.305897
C60   C     C_3   0.520496 0.666682 0.014152 0.314744
C61   C     C_3   0.042715 0.018491 0.541938 -0.101646
C62   C     C_3   0.955917 0.980289 0.459927 -0.109709
C63   C     C_3   0.457281 0.518490 0.958066 -0.101642
C64   C     C_3   0.544080 0.480290 0.040076 -0.109715
C65   C     C_1   0.089801 0.038318 0.588048 0.049765
C66   C     C_1   0.909468 0.957666 0.412931 -0.013191
C67   C     C_1   0.410197 0.538317 0.911954 0.049736
C68   C     C_1   0.590530 0.457666 0.087071 -0.013192
O21   O     O_3   0.413679 0.353234 0.552510 -0.551369
C69   C     C_3   0.385622 0.371755 0.495752 0.106910
H17   H     H_    0.359760 0.494372 0.493727 0.137828
H18   H     H_    0.360388 0.251177 0.479209 0.081930
C70   C     C_3   0.423798 0.405050 0.456155 -0.726417
H19   H     H_    0.454995 0.502580 0.475799 0.241674
H20   H     H_    0.442392 0.273846 0.447201 0.228282
H21   H     H_    0.402532 0.463084 0.415160 0.172587
O22   O     O_3   0.590346 0.647850 0.451221 -0.550850
C71   C     C_3   0.619240 0.632784 0.507723 0.110833
H22   H     H_    0.643773 0.755743 0.523486 0.080372
H23   H     H_    0.645886 0.512287 0.509750 0.138427
C72   C     C_3   0.581935 0.597686 0.548154 -0.729297
H24   H     H_    0.551615 0.495613 0.529627 0.239795
H25   H     H_    0.604156 0.544586 0.589398 0.171876
H26   H     H_    0.562122 0.727253 0.556311 0.228788
O23   O     O_3   0.086344 0.853225 0.947512 -0.551366
C73   C     C_3   0.114406 0.871704 0.004269 0.106911
H27   H     H_    0.140277 0.994295 0.006298 0.137828
H28   H     H_    0.139631 0.751096 0.020806 0.081929
C74   C     C_3   0.076236 0.905020 0.043871 -0.726414
H29   H     H_    0.045042 0.002571 0.024231 0.241662
H30   H     H_    0.057636 0.773825 0.052823 0.228276
H31   H     H_    0.097507 0.963036 0.084865 0.172589
O24   O     O_3   0.909655 0.147849 0.048782 -0.550851
C75   C     C_3   0.880768 0.132796 0.992277 0.110824
H32   H     H_    0.856236 0.255760 0.976514 0.080372
H33   H     H_    0.854120 0.012301 0.990245 0.138423
C76   C     C_3   0.918079 0.097704 0.951853 -0.729288
H34   H     H_    0.948401 0.995644 0.970386 0.239801
H35   H     H_    0.895863 0.044593 0.910608 0.171874
H36   H     H_    0.937890 0.227277 0.943696 0.228782
O25   O     O_3   0.336377 0.376981 0.615807 -0.537080
C77   C     C_3   0.288038 0.384444 0.576422 0.135006
H37   H     H_    0.257649 0.303428 0.592298 0.119225
H38   H     H_    0.291035 0.330061 0.533744 0.069430
C78   C     C_3   0.269932 0.584095 0.569012 -0.709553
H39   H     H_    0.298646 0.666472 0.550936 0.212766
H40   H     H_    0.231245 0.592275 0.539636 0.160521
H41   H     H_    0.266236 0.643616 0.610639 0.240681
O26   O     O_3   0.667958 0.627080 0.388092 -0.536815
C79   C     C_3   0.716962 0.630984 0.426412 0.145288
H42   H     H_    0.713674 0.684928 0.469042 0.064338
H43   H     H_    0.745378 0.718548 0.409415 0.109957
C80   C     C_3   0.738906 0.436215 0.434472 -0.708153
H44   H     H_    0.743115 0.377148 0.392948 0.238938
H45   H     H_    0.778007 0.438583 0.463320 0.162938
H46   H     H_    0.712165 0.347246 0.453429 0.208884
O27   O     O_3   0.163632 0.876976 0.884200 -0.537080
C81   C     C_3   0.211975 0.884437 0.923579 0.135027
H47   H     H_    0.242361 0.803425 0.907698 0.119236
H48   H     H_    0.208983 0.830050 0.966258 0.069413
C82   C     C_3   0.230080 0.084090 0.930986 -0.709519
H49   H     H_    0.201370 0.166462 0.949070 0.212762
H50   H     H_    0.268771 0.092270 0.960354 0.160485
H51   H     H_    0.233767 0.143615 0.889357 0.240683
O28   O     O_3   0.832042 0.127083 0.111908 -0.536812
C83   C     C_3   0.783039 0.130990 0.073586 0.145293
H52   H     H_    0.786330 0.184926 0.030956 0.064343
H53   H     H_    0.754623 0.218561 0.090580 0.109949
C84   C     C_3   0.761093 0.936222 0.065528 -0.708146
H54   H     H_    0.756882 0.877162 0.107052 0.238938
H55   H     H_    0.721993 0.938593 0.036678 0.162934
H56   H     H_    0.787834 0.847246 0.046573 0.208886
O29   O     O_3   0.980765 0.174066 0.596685 -0.549820
C85   C     C_3   0.927806 0.216601 0.595457 0.095656
H57   H     H_    0.906882 0.091195 0.604913 0.141178
H58   H     H_    0.908167 0.277662 0.554062 0.134018
C86   C     C_3   0.924556 0.353927 0.642574 -0.738141
H59   H     H_    0.945529 0.482744 0.636302 0.208604
H60   H     H_    0.882890 0.387144 0.642441 0.178158
H61   H     H_    0.942548 0.294090 0.684572 0.231176
O30   O     O_3   0.022673 0.851476 0.404043 -0.555458
C87   C     C_3   0.058498 0.704251 0.413440 0.112211
H62   H     H_    0.039233 0.580948 0.427114 0.180967
H63   H     H_    0.094037 0.738432 0.445989 0.131268
C88   C     C_3   0.075234 0.658467 0.357817 -0.759812
H64   H     H_    0.094957 0.779259 0.342862 0.225322
H65   H     H_    0.102820 0.540400 0.364041 0.179899
H66   H     H_    0.040395 0.620925 0.324900 0.234567
O31   O     O_3   0.519230 0.674085 0.903320 -0.549818
C89   C     C_3   0.572188 0.716621 0.904548 0.095652
H67   H     H_    0.593113 0.591216 0.895092 0.141180
H68   H     H_    0.591827 0.777686 0.945942 0.134015
C90   C     C_3   0.575438 0.853944 0.857430 -0.738141
H69   H     H_    0.554464 0.982761 0.863699 0.208599
H70   H     H_    0.617104 0.887162 0.857562 0.178158
H71   H     H_    0.557447 0.794102 0.815432 0.231178
O32   O     O_3   0.477328 0.351454 0.095959 -0.555460
C91   C     C_3   0.441514 0.204196 0.086563 0.112195
H72   H     H_    0.460789 0.080909 0.072892 0.180999
H73   H     H_    0.405974 0.238345 0.054012 0.131283
C92   C     C_3   0.424779 0.158401 0.142186 -0.759815
H74   H     H_    0.405048 0.279178 0.157138 0.225329
H75   H     H_    0.397201 0.040313 0.135963 0.179909
H76   H     H_    0.459620 0.120888 0.175105 0.234564
C93   C     C_3   0.924719 0.773149 0.544929 -0.319287
C94   C     C_3   0.866806 0.827189 0.524228 -0.309522
C95   C     C_3   0.832269 0.743626 0.562119 -0.810662
H77   H     H_    0.834671 0.590804 0.561290 0.232232
H78   H     H_    0.844753 0.793045 0.606602 0.231266
H79   H     H_    0.790886 0.785312 0.546315 0.209684
H80   H     H_    0.861689 0.978876 0.522899 0.179398
H81   H     H_    0.852242 0.776395 0.480428 0.191032
H82   H     H_    0.929891 0.628049 0.532499 0.222669
H83   H     H_    0.935473 0.780915 0.592052 0.166987
C96   C     C_3   0.075406 0.222257 0.459842 -0.277387
C97   C     C_3   0.126763 0.118783 0.459107 -0.307853
C98   C     C_3   0.172120 0.251669 0.459017 -0.823361
H84   H     H_    0.164084 0.340428 0.420614 0.234490
H85   H     H_    0.178125 0.339293 0.497692 0.227735
H86   H     H_    0.208630 0.172468 0.458995 0.214535
H87   H     H_    0.137397 0.027581 0.496808 0.195850
H88   H     H_    0.121856 0.032218 0.420256 0.213160
H89   H     H_    0.058225 0.269148 0.416020 0.174068
H90   H     H_    0.083240 0.344555 0.488028 0.207941
C99   C     C_3   0.575280 0.273165 0.955071 -0.319288
C100  C     C_3   0.633192 0.327209 0.975772 -0.309528
C101  C     C_3   0.667729 0.243658 0.937880 -0.810657
H91   H     H_    0.665329 0.090837 0.938706 0.232230
H92   H     H_    0.655245 0.293087 0.893398 0.231265
H93   H     H_    0.709113 0.285344 0.953684 0.209684
H94   H     H_    0.638308 0.478896 0.977104 0.179398
H95   H     H_    0.647757 0.276408 0.019572 0.191031
H96   H     H_    0.570109 0.128063 0.967500 0.222656
H97   H     H_    0.564525 0.280936 0.907948 0.166991
C102  C     C_3   0.424588 0.722234 0.040167 -0.277396
C103  C     C_3   0.373232 0.618754 0.040897 -0.307905
C104  C     C_3   0.327887 0.751632 0.041064 -0.823328
H98   H     H_    0.335933 0.840148 0.079521 0.234484
H99   H     H_    0.321888 0.839501 0.002442 0.227748
H100  H     H_    0.291370 0.672427 0.041042 0.214528
H101  H     H_    0.362575 0.527698 0.003165 0.195850
H102  H     H_    0.378151 0.532045 0.079718 0.213196
H103  H     H_    0.441769 0.769105 0.083992 0.174107
H104  H     H_    0.416753 0.844543 0.011986 0.207905
O33   O     O_3   0.961658 0.348845 0.472082 -0.547121
C105  C     C_3   0.927777 0.349056 0.418258 0.056074
H105  H     H_    0.889414 0.289240 0.422328 0.139982
H106  H     H_    0.945679 0.277474 0.385624 0.147279
C106  C     C_3   0.915221 0.540953 0.397117 -0.692590
H107  H     H_    0.951108 0.613781 0.392021 0.257357
H108  H     H_    0.887926 0.536133 0.355170 0.190667
H109  H     H_    0.895825 0.611398 0.427915 0.223764
O34   O     O_3   0.041896 0.657726 0.529459 -0.560702
C107  C     C_3   0.046336 0.614540 0.587657 0.094864
H110  H     H_    0.019008 0.500198 0.591033 0.198017
H111  H     H_    0.036721 0.729857 0.614558 0.110546
C108  C     C_3   0.101868 0.549007 0.611783 -0.661491
H112  H     H_    0.130456 0.659980 0.608645 0.213688
H113  H     H_    0.105438 0.509645 0.657147 0.186411
H114  H     H_    0.111443 0.427970 0.587551 0.216551
O35   O     O_3   0.538334 0.848850 0.027924 -0.547113
C109  C     C_3   0.572226 0.849054 0.081742 0.056071
H115  H     H_    0.610585 0.789235 0.077660 0.139974
H116  H     H_    0.554330 0.777472 0.114381 0.147283
C110  C     C_3   0.584787 0.040948 0.102883 -0.692618
H117  H     H_    0.548905 0.113771 0.108000 0.257339
H118  H     H_    0.612097 0.036117 0.144819 0.190678
H119  H     H_    0.604167 0.111405 0.072074 0.223780
O36   O     O_3   0.458106 0.157722 0.970542 -0.560696
C111  C     C_3   0.453662 0.114545 0.912343 0.094868
H120  H     H_    0.480989 0.000207 0.908964 0.198023
H121  H     H_    0.463275 0.229866 0.885442 0.110543
C112  C     C_3   0.398130 0.049010 0.888222 -0.661483
H122  H     H_    0.369541 0.159980 0.891362 0.213682
H123  H     H_    0.394556 0.009651 0.842856 0.186413
H124  H     H_    0.388557 0.927970 0.912454 0.216558

loop_
_geom_bond_atom_site_label_1
_geom_bond_atom_site_label_2
_ccdc_geom_bond_type
O17   V3    S    
C59   C63   S    
C17   C21   A    
C26   C30   A    
O28   C83   S    
C23   C27   A    
O19   V1    S    
O13   V1    S    
C92   H74   S    
O3    C7    A    
C10   C14   A    
C49   O29   S    
C95   H78   S    
O15   V3    S    
C96   H90   S    
C40   C44   A    
C109  C110  S    
C24   O24   S    
C33   C42   A    
C45   C93   S    
C97   H87   S    
C19   C23   A    
O30   C87   S    
C105  C106  S    
C98   H86   S    
O1    C5    A    
C51   O31   S    
C106  H107  S    
O27   C81   S    
C99   H97   S    
O9    V1    S    
O10   V2    S    
C74   H29   S    
C47   C51   S    
C14   H6    S    
O34   C107  S    
O4    C8    A    
C33   H9    S    
C88   H65   S    
C17   C42   S    
C100  H94   S    
C34   C38   A    
O1    V3    S    
C112  H124  S    
C33   C37   A    
C103  C104  S    
O2    V4    S    
C108  H112  S    
C84   H54   S    
C77   H37   S    
C103  H102  S    
O3    V1    S    
C71   H22   S    
C50   C62   S    
C72   H26   S    
C107  H111  S    
C89   C90   S    
C53   C65   T    
C6    C31   S    
C87   H62   S    
O26   C79   S    
C94   H80   S    
C1    O15   A    
C7    C30   S    
C3    O13   A    
C23   O23   S    
C111  C112  S    
C2    O16   A    
C86   H60   S    
C79   C80   S    
O2    C6    A    
C95   H79   S    
C89   H68   S    
C102  C103  S    
C111  H121  S    
O12   V4    S    
C91   H72   S    
O14   V2    S    
C51   C60   S    
C80   H45   S    
C11   C15   A    
C110  H117  S    
O21   C69   S    
C50   C57   S    
O5    V1    S    
C81   C82   S    
C26   O26   S    
C36   H12   S    
C70   H21   S    
C49   C61   S    
C16   C20   A    
C12   C32   A    
O11   C7    A    
O23   C73   S    
C56   C68   T    
C93   H82   S    
C35   C44   A    
O12   C8    A    
O36   C111  S    
C83   H53   S    
C92   H75   S    
C77   C78   S    
C83   H52   S    
O32   C91   S    
C38   C42   A    
C37   C41   A    
C82   H51   S    
C82   H50   S    
O16   V4    S    
C82   H49   S    
C47   C59   S    
C61   C65   S    
C76   H36   S    
C105  H106  S    
C106  H108  S    
O7    V3    S    
C78   H40   S    
C95   H77   S    
O8    V4    S    
C48   C52   S    
C12   H4    S    
C97   C98   S    
C58   O33   S    
C46   C50   S    
C51   C63   S    
C27   O27   S    
C45   C49   S    
C94   C95   S    
C88   H66   S    
C75   H33   S    
C107  C108  S    
C47   C99   S    
C98   H84   S    
O29   C85   S    
C59   O36   S    
C9    H1    S    
C69   H17   S    
C108  H113  S    
C87   C88   S    
C103  H101  S    
C20   C43   S    
O7    C3    A    
C96   C97   S    
C5    C32   S    
C89   H67   S    
O5    C1    A    
C107  H110  S    
C79   H43   S    
O24   C75   S    
C76   H35   S    
C101  H91   S    
C85   C86   S    
C50   O30   S    
C69   H18   S    
O8    C4    A    
C86   H61   S    
C57   C61   S    
C91   C92   S    
C90   H70   S    
C99   C100  S    
C60   C64   S    
O9    C5    A    
C18   C22   A    
C13   H5    S    
C74   H30   S    
C75   C76   S    
C25   C29   A    
C110  H118  S    
C1    C56   S    
C102  H103  S    
C72   H24   S    
C48   C60   S    
C55   C67   T    
C14   C18   A    
C8    C29   S    
C3    C54   S    
O6    V2    S    
C93   H83   S    
C100  C101  S    
C104  H99   S    
C81   H47   S    
C92   H76   S    
C77   H38   S    
C4    C53   S    
C12   C16   A    
C35   C39   A    
O10   C6    A    
C52   O32   S    
C10   C30   A    
C78   H39   S    
C64   C68   S    
C48   C63   S    
C78   H41   S    
C57   O34   S    
C70   H19   S    
C22   C26   A    
C21   O21   S    
C48   C102  S    
C93   C94   S    
C105  H105  S    
C54   C66   T    
C106  H109  S    
C73   H28   S    
C87   H63   S    
C101  H92   S    
C110  H119  S    
C10   H2    S    
C36   C43   A    
C86   H59   S    
C40   H16   S    
O33   C105  S    
C96   H89   S    
O6    C2    A    
C109  H116  S    
C104  H98   S    
O11   V3    S    
C109  H115  S    
O18   V4    S    
C36   C40   A    
C13   C17   A    
C76   H34   S    
C75   H32   S    
C27   C31   A    
C28   O28   S    
C73   C74   S    
C11   C31   A    
C25   O25   S    
C49   C58   S    
C28   C32   A    
C108  H114  S    
C9    C13   A    
C69   C70   S    
C74   H31   S    
C91   H73   S    
C99   H96   S    
O20   V2    S    
C16   H8    S    
C58   C62   S    
O22   C71   S    
C90   H71   S    
C85   H57   S    
C81   H48   S    
C39   C43   A    
C88   H64   S    
C34   H10   S    
C15   H7    S    
C2    C55   S    
C15   C19   A    
C73   H27   S    
C100  H95   S    
C11   H3    S    
C80   H46   S    
C112  H123  S    
C85   H58   S    
C21   C25   A    
C62   C66   S    
C35   H11   S    
O31   C89   S    
C46   C58   S    
C98   H85   S    
C71   H23   S    
C102  H104  S    
C72   H25   S    
C97   H88   S    
C45   C57   S    
C52   C64   S    
C47   C64   S    
C104  H100  S    
C94   H81   S    
C101  H93   S    
C24   C28   A    
C60   O35   S    
C52   C59   S    
C83   C84   S    
C9    C29   A    
C90   H69   S    
C38   H14   S    
C22   O22   S    
C4    O14   A    
O35   C109  S    
C37   H13   S    
C111  H120  S    
C46   C96   S    
C63   C67   S    
C84   H56   S    
C70   H20   S    
C80   H44   S    
O25   C77   S    
C46   C61   S    
C39   H15   S    
C19   C44   S    
C71   C72   S    
O4    V2    S    
C45   C62   S    
C20   C24   A    
C18   C41   S    
C79   H42   S    
C34   C41   A    
C84   H55   S    
C112  H122  S    
