data_mof_unit_33875.cif
_audit_creation_date              2012-12-10T18:46:16-0500
_audit_creation_method            fapswitch 2.2
_symmetry_space_group_name_H-M    P1
_symmetry_Int_Tables_number       1
_space_group_crystal_system       triclinic
_cell_length_a                    9.914628
_cell_length_b                    10.609035
_cell_length_c                    13.180814
_cell_angle_alpha                 91.387843
_cell_angle_beta                  69.562926
_cell_angle_gamma                 88.23573
_cell_volume                      1297.63139834

loop_
_atom_site_label
_atom_site_type_symbol
_atom_type_description
_atom_site_fract_x
_atom_site_fract_y
_atom_site_fract_z
_atom_type_partial_charge
C1    C     C_R   0.498748 0.739614 0.498616 0.963338
C2    C     C_R   0.461908 0.539654 0.970544 -0.052229
C3    C     C_R   0.462622 0.474235 0.875920 -0.080282
C4    C     C_R   0.560154 0.495858 0.019852 0.070868
C5    C     C_R   0.672915 0.405737 0.965184 0.028677
C6    C     C_R   0.674140 0.345452 0.869192 0.373295
C7    C     C_R   0.563858 0.373267 0.830466 -0.188878
C8    C     C_R   0.537675 0.526963 0.127678 -0.227571
C9    C     C_R   0.760010 0.416584 0.116317 0.235836
C10   C     C_R   0.368868 0.515519 0.823073 -0.160968
C11   C     C_R   0.585995 0.928869 0.401121 0.103025
C12   C     C_R   0.419427 0.499671 0.704496 0.893067
C13   C     C_R   0.586336 0.059797 0.400259 0.302512
C14   C     C_R   0.506683 0.128451 0.495327 -0.161130
C15   C     C_R   0.417014 0.072107 0.586732 -0.302397
C16   C     C_R   0.405898 0.943322 0.585077 0.169107
C17   C     C_R   0.496503 0.872378 0.494728 -0.144403
C18   C     C_R   0.958680 0.407697 0.443261 0.159759
C19   C     C_R   0.104421 0.411301 0.439801 0.263264
C20   C     C_R   0.040327 0.586616 0.561590 -0.207798
C21   C     C_R   0.896666 0.587800 0.561263 0.245257
C22   C     C_R   0.502834 0.260609 0.497500 0.958205
C23   C     C_R   0.580879 0.498126 0.295569 0.936706
C24   C     C_R   0.775934 0.372160 0.011890 -0.212999
C25   C     C_R   0.632832 0.485920 0.177366 -0.099884
C26   C     C_R   0.253729 0.602336 0.875982 0.083249
C27   C     C_R   0.254545 0.670821 0.968614 0.116525
C28   C     C_R   0.366131 0.647810 0.009285 0.335666
H1    H     H_    0.350028 0.128820 0.656932 0.161198
H2    H     H_    0.069363 0.654430 0.612058 0.171660
H3    H     H_    0.867722 0.309797 0.968961 0.195611
H4    H     H_    0.437010 0.572352 0.177840 0.210938
H5    H     H_    0.560541 0.317309 0.761564 0.178026
N1    N     N_R   0.142790 0.500030 0.500030 -0.112420
N2    N     N_R   0.857180 0.499940 0.500010 -0.127768
O1    O     O_R   0.385370 0.683250 0.500010 -0.601599
O2    O     O_R   0.614700 0.683220 0.500010 -0.603165
O3    O     O_R   0.328400 0.499990 0.653620 -0.581042
O4    O     O_R   0.557730 0.499960 0.653620 -0.600987
O5    O     O_R   0.385300 0.316780 0.499990 -0.604762
O6    O     O_R   0.614630 0.316750 0.499990 -0.621351
O7    O     O_R   0.442270 0.500040 0.346380 -0.599752
O8    O     O_R   0.671600 0.500010 0.346380 -0.606465
Zn1   Zn    Zn3+2 0.346870 0.500020 0.500000 0.988604
Zn2   Zn    Zn3+2 0.653130 0.499980 0.500000 0.972350
N3    N     N_2   0.865818 0.382545 0.161857 -0.279929
H6    H     H_    0.916181 0.295163 0.135392 0.260801
C29   C     C_3   0.968242 0.478857 0.155086 -0.806871
H7    H     H_    0.046122 0.481880 0.071061 0.234780
H8    H     H_    0.028390 0.457098 0.209441 0.248155
H9    H     H_    0.912549 0.572519 0.181078 0.255438
Cl1   Cl    Cl    0.679451 0.137122 0.279989 -0.699365
N4    N     N_2   0.295776 0.886855 0.669682 -0.301703
H10   H     H_    0.295648 0.913297 0.745472 0.222708
C30   C     C_3   0.155087 0.907360 0.661106 -0.743155
H11   H     H_    0.122711 0.009480 0.671566 0.259717
H12   H     H_    0.073022 0.857042 0.724736 0.222587
H13   H     H_    0.156473 0.871902 0.580700 0.251309
N5    N     N_2   0.919180 0.305989 0.388905 -0.299505
H14   H     H_    0.839269 0.324572 0.358162 0.317665
C31   C     C_3   0.920951 0.181675 0.432310 -0.700452
H15   H     H_    0.811668 0.144178 0.460476 0.262763
H16   H     H_    0.958679 0.183092 0.502484 0.238719
H17   H     H_    0.992823 0.116256 0.367758 0.235117
N6    N     N_2   0.211500 0.320839 0.376512 -0.245609
H18   H     H_    0.200147 0.230810 0.405029 0.236345
C32   C     C_3   0.250815 0.325342 0.260219 -0.714645
H19   H     H_    0.173557 0.273362 0.232772 0.236742
H20   H     H_    0.359736 0.279962 0.220629 0.266045
H21   H     H_    0.253751 0.424399 0.234654 0.225890
N7    N     N_2   0.789865 0.672817 0.631980 -0.254087
H22   H     H_    0.770496 0.656496 0.712575 0.221125
C33   C     C_3   0.808982 0.804906 0.608485 -0.734107
H23   H     H_    0.898804 0.840284 0.631159 0.222391
H24   H     H_    0.708925 0.860123 0.656115 0.252640
H25   H     H_    0.831202 0.819934 0.521283 0.244454
Cl2   Cl    Cl    0.805045 0.227589 0.798432 -0.683732
N8    N     N_2   0.150254 0.633591 0.827081 -0.280616
H26   H     H_    0.112870 0.726058 0.839132 0.237273
C34   C     C_3   0.034369 0.547486 0.848509 -0.735614
H27   H     H_    0.969303 0.569440 0.797233 0.233424
H28   H     H_    0.962962 0.559041 0.934464 0.228590
H29   H     H_    0.077145 0.448267 0.829983 0.263745
Cl3   Cl    Cl    0.396335 0.770092 0.092397 -0.641145
N9    N     N_2   0.144457 0.764901 0.020464 -0.285011
H30   H     H_    0.041511 0.740334 0.028611 0.218269
C35   C     C_3   0.175154 0.893534 0.987845 -0.665005
H31   H     H_    0.147425 0.956506 0.061329 0.267130
H32   H     H_    0.108809 0.924638 0.939631 0.205671
H33   H     H_    0.290737 0.903547 0.938613 0.253102
N10   N     N_2   0.663045 0.854372 0.305802 -0.298043
H34   H     H_    0.643770 0.883905 0.237946 0.294320
C36   C     C_3   0.815111 0.834180 0.286400 -0.706814
H35   H     H_    0.831393 0.771203 0.347297 0.248244
H36   H     H_    0.866978 0.925038 0.288673 0.264372
H37   H     H_    0.868477 0.788351 0.205211 0.226979

loop_
_geom_bond_atom_site_label_1
_geom_bond_atom_site_label_2
_ccdc_geom_bond_type
C30   H11   S    
C36   H35   S    
C28   Cl3   S    
C33   H24   S    
C33   H23   S    
C9    N3    S    
C4    C8    A    
C9    C25   A    
C20   H2    S    
N4    H10   S    
C26   C27   A    
C26   N8    S    
C23   O7    A    
C21   N7    S    
C3    C7    A    
C5    C6    A    
N8    C34   S    
C22   O6    A    
C15   C16   A    
C23   O8    A    
C31   H16   S    
C18   C19   A    
C27   N9    S    
C16   N4    S    
C29   H9    S    
C16   C17   A    
N6    C32   S    
C18   N2    A    
C1    O2    A    
O4    Zn2   S    
C20   N1    A    
C10   C26   A    
C29   H8    S    
N5    H14   S    
C36   H36   S    
C13   C14   A    
C8    C25   A    
C7    H5    S    
O7    Zn1   S    
C34   H29   S    
C15   H1    S    
N4    C30   S    
N3    C29   S    
N5    C31   S    
N9    C35   S    
C32   H19   S    
C8    H4    S    
N1    Zn1   S    
C34   H28   S    
N10   H34   S    
N7    C33   S    
N8    H26   S    
C4    C5    A    
C6    Cl2   S    
N9    H30   S    
C32   H20   S    
C31   H17   S    
C2    C4    A    
O3    Zn1   S    
N10   C36   S    
C13   Cl1   S    
C22   O5    A    
O8    Zn2   S    
C10   C12   S    
C29   H7    S    
C36   H37   S    
C30   H12   S    
C33   H25   S    
O1    Zn1   S    
O2    Zn2   S    
N2    Zn2   S    
N3    H6    S    
C11   C17   A    
C34   H27   S    
C19   N1    A    
C9    C24   A    
C6    C7    A    
C21   N2    A    
C1    C17   S    
C32   H21   S    
C14   C22   S    
C12   O4    A    
C35   H32   S    
C2    C3    A    
C24   H3    S    
N7    H22   S    
C3    C10   A    
C11   C13   A    
C30   H13   S    
C5    C24   A    
C19   N6    S    
C23   C25   S    
C12   O3    A    
C31   H15   S    
C11   N10   S    
C18   N5    S    
O5    Zn1   S    
C20   C21   A    
C35   H31   S    
N6    H18   S    
C35   H33   S    
C27   C28   A    
O6    Zn2   S    
C14   C15   A    
C2    C28   A    
C1    O1    A    
