data_mof_unit_41890.cif
_audit_creation_date              2012-12-11T20:53:21-0500
_audit_creation_method            fapswitch 2.2
_symmetry_space_group_name_H-M    P1
_symmetry_Int_Tables_number       1
_space_group_crystal_system       triclinic
_cell_length_a                    8.452609
_cell_length_b                    22.71958
_cell_length_c                    26.952528
_cell_angle_alpha                 95.95786
_cell_angle_beta                  92.712919
_cell_angle_gamma                 90.205816
_cell_volume                      5142.04003556

loop_
_atom_site_label
_atom_site_type_symbol
_atom_type_description
_atom_site_fract_x
_atom_site_fract_y
_atom_site_fract_z
_atom_type_partial_charge
Ba1   Ba    Ba6+2 0.848110 0.472730 0.522970 1.798673
Ba2   Ba    Ba6+2 0.341700 0.527220 0.477020 1.805662
C1    C     C_3   0.630215 0.265175 0.686461 0.111459
C2    C     C_3   0.600613 0.317648 0.655763 0.830683
C3    C     C_3   0.627452 0.637450 0.632431 0.546170
C4    C     C_3   0.691434 0.668995 0.682409 0.025416
C5    C     C_3   0.063339 0.690251 0.334563 0.237137
C6    C     C_3   0.125609 0.700249 0.283791 0.265617
C7    C     C_3   0.597658 0.681712 0.343945 0.378888
C8    C     C_3   0.557701 0.738257 0.320652 0.273578
C9    C     C_R   0.017295 0.454519 0.181396 0.652714
C10   C     C_R   0.888682 0.547316 0.173666 0.628246
C11   C     C_2   0.761976 0.530462 0.272538 -0.051205
C12   C     C_3   0.033723 0.349361 0.653588 0.380158
C13   C     C_3   0.753533 0.555099 0.326438 -0.091239
C14   C     C_1   0.985261 0.494881 0.343858 0.068376
C15   C     C_2   0.022877 0.492806 0.296032 -0.015406
C16   C     C_2   0.900865 0.507759 0.256334 0.223778
C17   C     C_R   0.014379 0.497221 0.101446 -0.106655
C18   C     C_R   0.063291 0.451661 0.130797 -0.078310
C19   C     C_R   0.156331 0.405204 0.108110 0.223854
C20   C     C_R   0.923002 0.544094 0.122830 -0.026873
C21   C     C_2   0.861941 0.524779 0.361390 -0.311700
C22   C     C_2   0.327133 0.476181 0.640227 -0.200498
C23   C     C_3   0.030877 0.334283 0.707778 0.327640
C24   C     C_R   0.164076 0.444327 0.975069 0.002498
C25   C     C_R   0.071566 0.546341 0.973705 -0.073893
C26   C     C_R   0.134142 0.494323 0.948482 0.016987
C27   C     C_R   0.217063 0.392345 0.948268 -0.103118
C28   C     C_R   0.245391 0.389191 0.897539 0.428147
C29   C     C_R   0.225847 0.439642 0.871066 -0.068723
C30   C     C_R   0.169655 0.492601 0.896841 -0.174216
C31   C     C_R   0.148978 0.543781 0.871177 -0.146501
C32   C     C_R   0.181549 0.540151 0.819465 0.678346
C33   C     C_R   0.261224 0.439050 0.819946 0.623263
C34   C     C_3   0.119862 0.338328 0.403789 0.643199
C35   C     C_2   0.428094 0.474788 0.728532 -0.019833
C36   C     C_3   0.471207 0.481256 0.675327 0.067787
C37   C     C_1   0.199443 0.503968 0.655762 0.082964
C38   C     C_2   0.158432 0.502945 0.702859 -0.122250
C39   C     C_2   0.278705 0.487522 0.742512 0.191173
C40   C     C_R   0.137806 0.447464 0.027418 0.010470
C41   C     C_R   0.056208 0.496254 0.050449 0.062624
C42   C     C_R   0.013936 0.543976 0.022544 0.058522
C43   C     C_R   0.190242 0.403406 0.057611 -0.100378
C44   C     C_R   0.865756 0.587026 0.092769 -0.007612
C45   C     C_3   0.989487 0.291276 0.400014 -0.177533
C46   C     C_R   0.074865 0.599228 0.949863 0.318002
C47   C     C_R   0.104094 0.597542 0.898739 0.414328
C48   C     C_R   0.906886 0.585953 0.043357 -0.028623
C49   C     C_R   0.358897 0.333864 0.515254 -0.211377
C50   C     C_R   0.636612 0.941702 0.530095 -0.019286
C51   C     C_R   0.684789 0.881910 0.525232 0.625205
C52   C     C_R   0.668798 0.879941 0.435931 0.657879
C53   C     C_R   0.623257 0.939756 0.439447 -0.074361
C54   C     C_R   0.606655 0.970844 0.486745 -0.048792
C55   C     C_R   0.618565 0.973105 0.577241 -0.041818
C56   C     C_3   0.030346 0.661490 0.601529 0.602545
C57   C     C_R   0.573126 0.032332 0.581393 -0.039740
C58   C     C_R   0.544236 0.062088 0.538516 -0.020881
C59   C     C_R   0.560362 0.031230 0.490759 -0.092033
C60   C     C_R   0.594965 0.969015 0.396495 -0.047982
C61   C     C_R   0.550414 0.028330 0.399712 0.411031
C62   C     C_R   0.531510 0.060520 0.447182 -0.097187
C63   C     C_R   0.486414 0.120844 0.452936 0.632340
C64   C     C_R   0.501109 0.122192 0.542474 0.626393
C65   C     C_2   0.884668 0.771700 0.452198 0.136855
C66   C     C_3   0.905723 0.705827 0.436628 -0.110523
C67   C     C_3   0.088534 0.725038 0.616430 0.265765
C68   C     C_1   0.682811 0.689318 0.490537 0.003681
C69   C     C_2   0.637067 0.744840 0.489639 -0.118095
C70   C     C_2   0.747811 0.790013 0.473564 0.205355
C71   C     C_R   0.294453 0.232785 0.527961 -0.032923
C72   C     C_R   0.256757 0.293065 0.532655 0.022506
C73   C     C_R   0.494418 0.314908 0.490716 0.115987
C74   C     C_R   0.531585 0.254561 0.485359 0.029314
C75   C     C_R   0.433456 0.213120 0.504820 0.227540
C76   C     C_2   0.797165 0.666301 0.462645 -0.190537
C77   C     C_3   0.636686 0.406209 0.372358 0.304685
C78   C     C_3   0.616814 0.392583 0.315656 0.213441
H1    H     H_    0.997942 0.260364 0.365503 0.188326
H2    H     H_    0.998485 0.265462 0.432755 0.057710
H3    H     H_    0.872284 0.311779 0.397314 0.128851
H4    H     H_    0.903958 0.658747 0.606041 -0.105353
H5    H     H_    0.010486 0.756302 0.598007 0.040539
H6    H     H_    0.210950 0.730374 0.604240 0.112598
H7    H     H_    0.758900 0.421340 0.383464 -0.040045
H8    H     H_    0.552976 0.441840 0.384123 0.041272
H9    H     H_    0.552651 0.227193 0.671754 0.152678
H10   H     H_    0.515859 0.360802 0.305809 0.162463
H11   H     H_    0.589717 0.433893 0.297893 0.009240
H12   H     H_    0.701682 0.598945 0.621074 0.030666
H13   H     H_    0.603001 0.700534 0.698471 0.169079
H14   H     H_    0.798026 0.695029 0.677197 0.117513
H15   H     H_    0.754182 0.249872 0.683626 0.074597
H16   H     H_    0.077116 0.372641 0.733226 0.035700
H17   H     H_    0.987212 0.649986 0.330499 -0.019477
H18   H     H_    0.992274 0.729507 0.347013 0.009022
H19   H     H_    0.222485 0.733394 0.288898 0.117855
H20   H     H_    0.714573 0.667356 0.330612 -0.067961
H21   H     H_    0.605407 0.692336 0.384949 -0.077676
H22   H     H_    0.657545 0.769667 0.329025 0.096373
H23   H     H_    0.450080 0.758478 0.336598 0.071865
H24   H     H_    0.926982 0.374135 0.644337 0.054254
H25   H     H_    0.142047 0.481253 0.285698 0.134322
H26   H     H_    0.520162 0.465902 0.756134 0.111938
H27   H     H_    0.232832 0.352226 0.965659 0.130307
H28   H     H_    0.264038 0.367558 0.043218 0.110184
H29   H     H_    0.665290 0.539346 0.246530 0.143629
H30   H     H_    0.787009 0.621581 0.107254 0.167561
H31   H     H_    0.133568 0.380167 0.651157 -0.012223
H32   H     H_    0.039923 0.514939 0.713350 0.144218
H33   H     H_    0.849256 0.617398 0.021217 0.151609
H34   H     H_    0.852121 0.536060 0.401119 0.069782
H35   H     H_    0.329371 0.452140 0.603293 0.056661
H36   H     H_    0.609224 0.945876 0.359814 0.178730
H37   H     H_    0.561259 0.054892 0.618504 0.145882
H38   H     H_    0.215499 0.201203 0.541689 0.106959
H39   H     H_    0.640225 0.952024 0.611233 0.149786
H40   H     H_    0.908831 0.326488 0.718263 0.040790
H41   H     H_    0.522315 0.758677 0.502849 0.123258
H42   H     H_    0.636132 0.239865 0.466095 0.094120
H43   H     H_    0.328372 0.380254 0.518620 0.056025
H44   H     H_    0.805473 0.618822 0.454519 0.072495
H45   H     H_    0.131787 0.361017 0.442332 -0.092604
N1    N     N_R   0.934725 0.502716 0.202883 -0.432924
N2    N     N_R   0.237982 0.488619 0.794825 -0.452250
N3    N     N_R   0.702336 0.851965 0.478445 -0.422783
N4    N     N_R   0.473484 0.150829 0.500024 -0.448942
O1    O     O_2   0.919820 0.530450 0.618560 -0.489429
O2    O     O_3   0.603483 0.354589 0.394183 -0.579906
O3    O     O_3   0.043720 0.298221 0.619483 -0.508781
O4    O     O_2   0.269870 0.469530 0.381410 -0.467858
O5    O     O_3   0.037890 0.469550 0.441610 -0.502794
O6    O     O_3   0.535640 0.573600 0.413100 -0.489416
O7    O     O_3   0.086789 0.376591 0.367197 -0.567972
O8    O     O_3   0.647280 0.568810 0.525990 -0.472886
O9    O     O_3   0.133260 0.602900 0.438000 -0.409681
O10   O     O_2   0.237900 0.710604 0.465201 -0.427066
O11   O     O_3   0.190789 0.684071 0.368947 -0.568525
O12   O     O_3   0.151800 0.530410 0.558380 -0.418799
O13   O     O_3   0.542410 0.431140 0.474010 -0.498480
O14   O     O_2   0.406930 0.639920 0.526240 -0.368181
O15   O     O_3   0.621933 0.678369 0.596705 -0.632905
O16   O     O_2   0.426727 0.525005 0.323693 -0.479199
O17   O     O_3   0.479480 0.638477 0.330884 -0.515265
O18   O     O_2   0.047656 0.413612 0.206066 -0.494122
O19   O     O_2   0.313067 0.394420 0.797578 -0.481285
O20   O     O_2   0.821254 0.591142 0.192230 -0.538174
O21   O     O_2   0.162263 0.583135 0.796286 -0.463126
O22   O     O_2   0.712038 0.856610 0.562608 -0.557858
O23   O     O_3   0.654050 0.426350 0.586890 -0.433115
O24   O     O_2   0.678790 0.852608 0.394874 -0.595018
O25   O     O_2   0.457616 0.146857 0.416199 -0.467519
O26   O     O_2   0.489884 0.149335 0.583775 -0.549214
O27   O     O_2   0.787174 0.470051 0.672986 -0.499471
O28   O     O_3   0.110251 0.623603 0.631718 -0.530904
O29   O     O_3   0.672342 0.369104 0.681178 -0.639490
O30   O     O_2   0.782760 0.360070 0.473730 -0.479474
O31   O     O_3   0.056430 0.397060 0.562000 -0.515866
O32   O     O_2   0.930234 0.292254 0.526822 -0.443199
P1    P     P_3+3 0.092730 0.547450 0.611370 1.152408
P2    P     P_3+3 0.606840 0.368620 0.459370 1.056170
P3    P     P_3+3 0.071498 0.319938 0.559705 1.065768
P4    P     P_3+3 0.096970 0.452510 0.388620 1.049786
P5    P     P_3+3 0.115657 0.677363 0.427592 1.076220
P6    P     P_3+3 0.638501 0.434668 0.652401 1.021870
P7    P     P_3+3 0.593760 0.644171 0.535099 1.052218
P8    P     P_3+3 0.549497 0.570856 0.348423 1.000310
Cl1   Cl    Cl    0.678538 0.298123 0.596644 -0.683376
Cl2   Cl    Cl    0.062166 0.645093 0.538184 -0.716499
Cl3   Cl    Cl    0.092402 0.744509 0.682342 -0.501892
Cl4   Cl    Cl    0.792689 0.360187 0.290367 -0.564785
Cl5   Cl    Cl    0.395891 0.325654 0.647200 -0.724783
I1    I     I_    0.589693 0.285808 0.764161 -0.060232
Cl6   Cl    Cl    0.436385 0.612927 0.641748 -0.690722
I2    I     I_    0.753273 0.608756 0.735890 -0.233053
I3    I     I_    0.207136 0.620252 0.244785 -0.260360
I4    I     I_    0.948489 0.736246 0.237167 -0.131670
Cl7   Cl    Cl    0.531957 0.725122 0.254556 -0.515163
I5    I     I_    0.262120 0.335537 0.145481 -0.151419
Cl8   Cl    Cl    0.302217 0.319251 0.869898 -0.471102
Cl9   Cl    Cl    0.079674 0.669910 0.985212 -0.491492
Cl10  Cl    Cl    0.088595 0.665430 0.871525 -0.370778
Cl11  Cl    Cl    0.524176 0.059195 0.342383 -0.457266
I6    I     I_    0.055828 0.834173 0.433712 -0.367739
Cl12  Cl    Cl    0.143371 0.270261 0.719128 -0.435580
Cl13  Cl    Cl    0.294761 0.299631 0.387537 -0.655259

loop_
_geom_bond_atom_site_label_1
_geom_bond_atom_site_label_2
_ccdc_geom_bond_type
C25   C46   A    
C57   C58   A    
C53   C54   A    
C5    H18   S    
C24   C27   A    
C68   C76   D    
C49   H43   S    
C71   C72   A    
C39   N2    S    
C17   C18   A    
C49   C72   A    
C73   C74   A    
O32   P3    D    
C52   O24   D    
C77   H7    S    
C32   O21   D    
C67   H5    S    
C5    C6    S    
C38   H32   S    
C12   O3    S    
C19   I5    S    
Ba2   O5    S    
C2    Cl1   S    
C11   C16   D    
O15   P7    S    
O31   P3    S    
C8    H23   S    
C6    H19   S    
C49   C73   A    
C78   Cl4   S    
C65   C70   D    
C68   P7    S    
C28   C29   A    
C55   C57   A    
C10   N1    Am   
O7    P4    S    
C31   C47   A    
O6    P8    S    
C53   C60   A    
C10   C20   A    
C7    O17   S    
C22   C37   D    
C13   P8    S    
Ba1   O23   S    
C73   P2    S    
Ba1   Ba2   S    
C45   H2    S    
C11   H29   S    
Ba1   O13   S    
C23   Cl12  S    
C25   C42   A    
C2    O29   S    
C64   O26   D    
C34   H45   S    
C14   C15   D    
C4    H14   S    
C22   C36   S    
C68   C69   D    
C45   H3    S    
C76   H44   S    
C7    C8    S    
C65   I6    S    
C55   H39   S    
C64   N4    Am   
O1    P1    D    
C13   C21   S    
C58   C64   A    
O12   P1    S    
C57   H37   S    
C2    Cl5   S    
C66   C76   S    
Ba2   O14   S    
C28   Cl8   S    
C12   H31   S    
C34   O7    S    
O10   P5    D    
C77   H8    S    
C17   C41   A    
O29   P6    S    
C31   C32   A    
C19   C43   A    
O11   P5    S    
C36   P6    S    
O16   P8    D    
C9    C18   A    
Ba2   O4    S    
C65   C66   S    
Ba2   O9    S    
C26   C30   A    
C9    N1    Am   
C74   C75   A    
Ba1   O1    S    
C37   C38   D    
C32   N2    Am   
C3    O15   S    
O27   P6    D    
C61   Cl11  S    
C52   N3    Am   
C61   C62   A    
C58   C59   A    
C34   Cl13  S    
C40   C43   A    
C35   C36   S    
C59   C62   A    
C41   C42   A    
O3    P3    S    
C60   H36   S    
C27   C28   A    
C51   N3    Am   
O4    P4    D    
C47   Cl10  S    
C12   H24   S    
C29   C30   A    
Ba1   O30   S    
C14   P4    S    
C4    H13   S    
C77   O2    S    
C17   C20   A    
C60   C61   A    
C15   C16   S    
O5    P4    S    
C75   N4    S    
C37   P1    S    
C33   N2    Am   
Ba2   P4    S    
C22   H35   S    
C1    I1    S    
C38   C39   S    
C20   C44   A    
C70   N3    S    
Ba1   P1    S    
C7    H20   S    
C11   C13   S    
C4    I2    S    
Ba2   O13   S    
C3    Cl6   S    
C29   C33   A    
C34   C45   S    
C40   C41   A    
C1    C2    S    
C23   H40   S    
O13   P2    S    
O23   P6    S    
Ba1   O8    S    
C50   C51   A    
C24   C40   A    
C42   C48   A    
C52   C53   A    
C46   C47   A    
C71   H38   S    
C5    H17   S    
Ba2   O8    S    
C10   O20   D    
C69   H41   S    
Ba1   O31   S    
C56   O28   S    
C46   Cl9   S    
C63   N4    Am   
C43   H28   S    
C56   C67   S    
C15   H25   S    
C14   C21   D    
C44   C48   A    
C24   C26   A    
Ba2   O6    S    
C1    H9    S    
O9    P5    S    
C48   H33   S    
C8    Cl7   S    
C62   C63   A    
C78   H11   S    
C44   H30   S    
C56   Cl2   S    
C74   H42   S    
C35   H26   S    
C30   C31   A    
C21   H34   S    
C72   P3    S    
C6    I4    S    
C9    O18   D    
C3    C4    S    
C50   C54   A    
O28   P1    S    
C8    H22   S    
O30   P2    D    
C33   O19   D    
C45   H1    S    
C12   C23   S    
C35   C39   D    
C56   H4    S    
O14   P7    D    
C3    H12   S    
Ba1   O12   S    
C50   C55   A    
C77   C78   S    
C6    I3    S    
C5    O11   S    
C69   C70   S    
C18   C19   A    
Ba1   P2    S    
C23   H16   S    
C7    H21   S    
O2    P2    S    
O17   P8    S    
C25   C26   A    
C51   O22   D    
Ba2   O12   S    
C71   C75   A    
C54   C59   A    
C27   H27   S    
C1    H15   S    
C63   O25   D    
C78   H10   S    
C67   Cl3   S    
O8    P7    S    
C16   N1    S    
C67   H6    S    
Ba1   O5    S    
C66   P5    S    
