data_mof_unit_35238.cif
_audit_creation_date              2012-12-10T20:25:41-0500
_audit_creation_method            fapswitch 2.2
_symmetry_space_group_name_H-M    P1
_symmetry_Int_Tables_number       1
_space_group_crystal_system       triclinic
_cell_length_a                    8.592411
_cell_length_b                    10.678588
_cell_length_c                    9.87467
_cell_angle_alpha                 89.878567
_cell_angle_beta                  98.436969
_cell_angle_gamma                 90.163758
_cell_volume                      896.23817918

loop_
_atom_site_label
_atom_site_type_symbol
_atom_type_description
_atom_site_fract_x
_atom_site_fract_y
_atom_site_fract_z
_atom_type_partial_charge
C1    C     C_R   0.504866 0.259949 0.500734 0.876230
C2    C     C_R   0.561676 0.935583 0.387043 -0.228328
C3    C     C_R   0.531072 0.871368 0.504387 -0.099811
C4    C     C_R   0.530524 0.935754 0.626738 0.125602
C5    C     C_3   0.418289 0.927634 0.728703 -0.473911
C6    C     C_3   0.417080 0.069515 0.728229 -0.494848
C7    C     C_R   0.434108 0.402820 0.063268 0.215246
C8    C     C_R   0.577691 0.589896 0.081645 -0.134635
C9    C     C_R   0.577749 0.589882 0.937740 -0.135660
C10   C     C_R   0.433347 0.403106 0.920665 0.217475
C11   C     C_3   0.264726 0.363970 0.895607 -0.514301
C12   C     C_R   0.201250 0.500234 0.464205 0.971656
C13   C     C_3   0.266893 0.361798 0.049441 -0.507488
C14   C     C_R   0.505289 0.740004 0.500560 0.875041
C15   C     C_R   0.798661 0.501075 0.535632 0.965444
C16   C     C_2   0.036149 0.499479 0.444708 -0.391053
C17   C     C_2   0.963520 0.504514 0.554437 -0.385306
C18   C     C_R   0.529931 0.063525 0.626750 0.141362
C19   C     C_R   0.530308 0.128576 0.504522 -0.101761
C20   C     C_R   0.561291 0.065124 0.387109 -0.228856
H1    H     H_    0.974799 0.493501 0.340380 0.179644
H2    H     H_    0.187226 0.438085 0.844348 0.214544
H3    H     H_    0.247888 0.269878 0.848244 0.198743
H4    H     H_    0.189027 0.433402 0.085870 0.220767
H5    H     H_    0.255105 0.266022 0.091162 0.200414
H6    H     H_    0.024572 0.511911 0.658319 0.169928
H7    H     H_    0.574060 0.114385 0.293327 0.170565
H8    H     H_    0.574630 0.886848 0.293247 0.165815
H9    H     H_    0.303180 0.885438 0.685519 0.206300
H10   H     H_    0.474065 0.887016 0.827753 0.199961
H11   H     H_    0.301405 0.109645 0.683915 0.199640
H12   H     H_    0.471573 0.110912 0.827190 0.203539
H13   H     H_    0.637992 0.663819 0.143363 0.142326
N1    N     N_R   0.498950 0.499140 0.142680 -0.106783
N2    N     N_R   0.498950 0.499180 0.857030 -0.106090
O1    O     O_R   0.500020 0.316790 0.614690 -0.616668
O2    O     O_R   0.500000 0.316760 0.385350 -0.625667
O3    O     O_R   0.271760 0.500010 0.587850 -0.613319
O4    O     O_R   0.271740 0.499970 0.358500 -0.624882
O5    O     O_R   0.500000 0.683240 0.614650 -0.623644
O6    O     O_R   0.499980 0.683210 0.385310 -0.627824
O7    O     O_R   0.728260 0.500030 0.641500 -0.626022
O8    O     O_R   0.728240 0.499990 0.412150 -0.616174
Zn1   Zn    Zn3+2 0.500010 0.500020 0.653130 0.940104
Zn2   Zn    Zn3+2 0.499990 0.499980 0.346870 0.937497
H14   H     H_    0.638139 0.663762 0.891093 0.145186

loop_
_geom_bond_atom_site_label_1
_geom_bond_atom_site_label_2
_ccdc_geom_bond_type
C7    C10   A    
C6    H12   S    
O3    Zn1   S    
C16   H1    S    
C20   H7    S    
C11   C13   S    
O2    Zn2   S    
C11   H2    S    
C19   C20   A    
C1    O2    A    
O4    Zn2   S    
C4    C18   A    
C12   O4    A    
C7    C13   S    
C2    C3    A    
C15   O8    A    
C9    H14   S    
N1    Zn2   S    
C8    N1    A    
N2    Zn1   S    
O8    Zn2   S    
C13   H5    S    
C10   N2    A    
C3    C14   S    
O7    Zn1   S    
C14   O6    A    
C17   H6    S    
C11   H3    S    
C6    H11   S    
C5    H9    S    
C8    H13   S    
C12   O3    A    
C5    C6    S    
C6    C18   S    
C7    N1    A    
O1    Zn1   S    
C1    C19   S    
C10   C11   S    
C14   O5    A    
C3    C4    A    
C16   C17   D    
O5    Zn1   S    
C15   O7    A    
C15   C17   S    
C18   C19   A    
C5    H10   S    
C9    N2    A    
O6    Zn2   S    
C8    C9    A    
C2    H8    S    
C1    O1    A    
C2    C20   A    
C12   C16   S    
C13   H4    S    
C4    C5    S    
