data_mof_unit_19643.cif
_audit_creation_date              2012-12-10T19:53:40-0500
_audit_creation_method            fapswitch 2.2
_symmetry_space_group_name_H-M    P1
_symmetry_Int_Tables_number       1
_space_group_crystal_system       triclinic
_cell_length_a                    15.011934
_cell_length_b                    14.170178
_cell_length_c                    10.497995
_cell_angle_alpha                 90.754791
_cell_angle_beta                  90.302329
_cell_angle_gamma                 89.293609
_cell_volume                      2232.75946634

loop_
_atom_site_label
_atom_site_type_symbol
_atom_type_description
_atom_site_fract_x
_atom_site_fract_y
_atom_site_fract_z
_atom_type_partial_charge
C1    C     C_R   0.327581 0.500623 0.501880 0.859584
C2    C     C_R   0.491347 0.794788 0.388363 0.032606
C3    C     C_R   0.498358 0.053609 0.501112 0.130520
C4    C     C_R   0.498766 0.946717 0.500805 0.137461
C5    C     C_R   0.500050 0.499383 0.257106 0.853323
C6    C     C_R   0.500797 0.500637 0.742858 0.866128
C7    C     C_3   0.428788 0.547415 0.042615 -0.192410
C8    C     C_3   0.573300 0.452688 0.957237 -0.182910
C9    C     C_3   0.503532 0.590418 0.962292 -0.144351
C10   C     C_3   0.498547 0.409718 0.037566 -0.148075
C11   C     C_3   0.426779 0.459030 0.955308 -0.190292
C12   C     C_R   0.673044 0.499230 0.496185 0.847353
C13   C     C_3   0.575334 0.541205 0.044521 -0.184235
C14   C     C_3   0.501452 0.501824 0.877783 0.046926
C15   C     C_3   0.500583 0.498322 0.122132 0.045063
C16   C     C_R   0.098082 0.566737 0.613218 -0.230247
C17   C     C_R   0.905814 0.414837 0.564340 -0.232894
C18   C     C_R   0.908881 0.582688 0.525613 -0.224168
C19   C     C_R   0.090117 0.426712 0.479108 -0.219755
C20   C     C_R   0.189118 0.571388 0.592711 -0.028147
C21   C     C_R   0.816984 0.411544 0.528435 -0.014379
C22   C     C_R   0.818720 0.583082 0.495886 -0.014941
C23   C     C_R   0.460423 0.105290 0.399848 -0.291068
C24   C     C_R   0.180984 0.428440 0.458214 -0.022285
C25   C     C_R   0.231450 0.501559 0.515055 -0.130209
C26   C     C_R   0.770688 0.497421 0.502025 -0.152843
C27   C     C_R   0.048750 0.495292 0.555766 0.098773
C28   C     C_R   0.952267 0.498970 0.558557 0.099349
C29   C     C_R   0.236621 0.651023 0.653233 0.148067
C30   C     C_R   0.272664 0.642470 0.776164 -0.137201
C31   C     C_R   0.312630 0.720188 0.835651 -0.146084
C32   C     C_R   0.317181 0.806253 0.772666 -0.132785
C33   C     C_R   0.281928 0.814871 0.649834 -0.128147
C34   C     C_R   0.506998 0.895418 0.614671 -0.299748
C35   C     C_R   0.241346 0.737636 0.590338 -0.120401
C36   C     C_R   0.780381 0.316145 0.503046 0.165380
C37   C     C_R   0.782573 0.247036 0.597889 -0.183586
C38   C     C_R   0.755679 0.154936 0.569669 -0.157673
C39   C     C_R   0.725970 0.131301 0.447080 -0.093441
C40   C     C_R   0.723168 0.199583 0.352388 -0.141623
C41   C     C_R   0.751182 0.291386 0.379626 -0.098122
C42   C     C_R   0.780223 0.672053 0.445538 0.161171
C43   C     C_R   0.747268 0.675088 0.320088 -0.111269
C44   C     C_R   0.712491 0.759298 0.271591 -0.148428
C45   C     C_R   0.536697 0.106117 0.602156 -0.286982
C46   C     C_R   0.710981 0.841051 0.347518 -0.103096
C47   C     C_R   0.743500 0.838573 0.472464 -0.130483
C48   C     C_R   0.778464 0.754499 0.521318 -0.157347
C49   C     C_R   0.218581 0.355305 0.370707 0.147685
C50   C     C_R   0.258158 0.380754 0.255376 -0.121309
C51   C     C_R   0.285696 0.310891 0.168322 -0.152321
C52   C     C_R   0.274522 0.215589 0.195793 -0.155461
C53   C     C_R   0.236279 0.189750 0.310972 -0.144738
C54   C     C_R   0.208081 0.259219 0.397983 -0.140862
C55   C     C_R   0.491381 0.893829 0.386500 -0.302572
C56   C     C_R   0.462915 0.204310 0.400690 0.029615
C57   C     C_R   0.508466 0.796312 0.611936 0.050127
C58   C     C_R   0.536358 0.205182 0.599967 0.052961
H1    H     H_    0.366600 0.426775 0.912015 0.121018
H2    H     H_    0.050713 0.374026 0.429414 0.140948
H3    H     H_    0.427838 0.070390 0.320568 0.128239
H4    H     H_    0.510710 0.930727 0.706349 0.121650
H5    H     H_    0.569240 0.071759 0.681342 0.122210
H6    H     H_    0.487457 0.927829 0.295094 0.122285
H7    H     H_    0.434877 0.242981 0.321891 0.145103
H8    H     H_    0.515054 0.758578 0.700310 0.122133
H9    H     H_    0.566638 0.244278 0.677692 0.123833
H10   H     H_    0.485371 0.755981 0.299535 0.126335
H11   H     H_    0.268738 0.576303 0.826170 0.113243
H12   H     H_    0.635731 0.574520 0.085546 0.119704
H13   H     H_    0.339396 0.714202 0.931008 0.120945
H14   H     H_    0.348252 0.866206 0.818900 0.117308
H15   H     H_    0.285817 0.881467 0.600948 0.131859
H16   H     H_    0.213302 0.745251 0.495700 0.116823
H17   H     H_    0.805905 0.264318 0.693066 0.121904
H18   H     H_    0.757534 0.101911 0.642935 0.121362
H19   H     H_    0.704455 0.060274 0.425736 0.120141
H20   H     H_    0.700048 0.181152 0.257562 0.116668
H21   H     H_    0.750648 0.343122 0.304553 0.104964
H22   H     H_    0.748717 0.612281 0.260200 0.094981
H23   H     H_    0.369877 0.584972 0.083098 0.118801
H24   H     H_    0.686810 0.761208 0.175113 0.114785
H25   H     H_    0.684102 0.906149 0.309647 0.116220
H26   H     H_    0.741687 0.901775 0.531458 0.120304
H27   H     H_    0.803697 0.753415 0.618135 0.118536
H28   H     H_    0.265853 0.454376 0.231813 0.100811
H29   H     H_    0.314972 0.330346 0.078964 0.129872
H30   H     H_    0.296060 0.161791 0.128209 0.122630
H31   H     H_    0.228065 0.115919 0.332539 0.128746
H32   H     H_    0.177284 0.238284 0.486122 0.122374
H33   H     H_    0.632077 0.414438 0.917442 0.125673
H34   H     H_    0.506013 0.663968 0.927465 0.125955
H35   H     H_    0.496408 0.336170 0.072544 0.131454
H36   H     H_    0.065116 0.620296 0.671519 0.137526
H37   H     H_    0.941457 0.349677 0.584996 0.135280
H38   H     H_    0.946728 0.646658 0.513514 0.136963
N1    N     N_R   0.500000 0.252470 0.500000 -0.093165
N2    N     N_R   0.500000 0.747530 0.500000 -0.083085
O1    O     O_R   0.369060 0.579480 0.500010 -0.608765
O2    O     O_R   0.630940 0.420520 0.499990 -0.610372
O3    O     O_R   0.630940 0.579480 0.499990 -0.599815
O4    O     O_R   0.369060 0.420520 0.500010 -0.606302
O5    O     O_R   0.499980 0.579460 0.313950 -0.637484
O6    O     O_R   0.500020 0.420540 0.686050 -0.633593
O7    O     O_R   0.500020 0.579460 0.686050 -0.632278
O8    O     O_R   0.499980 0.420540 0.313950 -0.634421
Zn1   Zn    Zn3+2 0.500000 0.606140 0.500000 0.954739
Zn2   Zn    Zn3+2 0.500000 0.393860 0.500000 0.949754

loop_
_geom_bond_atom_site_label_1
_geom_bond_atom_site_label_2
_ccdc_geom_bond_type
O3    Zn1   S    
C21   C26   A    
C5    O5    A    
C35   H16   S    
C8    C13   S    
C18   H38   S    
C3    C23   A    
C57   H8    S    
C43   C44   A    
C1    O1    A    
C23   C56   A    
C32   H14   S    
C21   C36   S    
C38   H18   S    
C53   C54   A    
C7    C11   S    
O7    Zn1   S    
C29   C30   A    
C39   H19   S    
C36   C37   A    
C54   H32   S    
C44   H24   S    
C10   C15   S    
C30   C31   A    
C11   C14   S    
C20   C25   A    
C49   C54   A    
C34   H4    S    
C9    C13   S    
N1    Zn2   S    
C47   C48   A    
C22   C42   S    
C34   C57   A    
O4    Zn2   S    
C17   H37   S    
C6    O6    A    
C19   C27   A    
C5    O8    A    
C16   C27   A    
C31   H13   S    
C37   H17   S    
C1    C25   S    
C36   C41   A    
C58   N1    A    
C56   N1    A    
C11   H1    S    
C9    H34   S    
C44   C46   A    
C20   C29   S    
C4    C34   A    
C45   C58   A    
O2    Zn2   S    
C5    C15   S    
C51   C52   A    
C52   H30   S    
C18   C28   A    
C24   C25   A    
C51   H29   S    
C39   C40   A    
C10   H35   S    
C43   H22   S    
C3    C45   A    
C17   C21   A    
N2    Zn1   S    
C12   C26   S    
C9    C14   S    
C37   C38   A    
C6    C14   S    
C31   C32   A    
C16   C20   A    
C55   H6    S    
C50   C51   A    
C8    H33   S    
C42   C48   A    
C47   H26   S    
C33   H15   S    
C40   C41   A    
C7    H23   S    
C13   C15   S    
C4    C55   A    
C53   H31   S    
C40   H20   S    
C42   C43   A    
C3    C4    S    
O6    Zn2   S    
C30   H11   S    
C52   C53   A    
C24   C49   S    
C7    C9    S    
C46   C47   A    
C8    C14   S    
C18   C22   A    
C17   C28   A    
C16   H36   S    
C41   H21   S    
C19   H2    S    
O1    Zn1   S    
C29   C35   A    
C2    H10   S    
C2    C55   A    
C32   C33   A    
C19   C24   A    
C12   O3    A    
C38   C39   A    
O8    Zn2   S    
C57   N2    A    
C7    C15   S    
C33   C35   A    
C6    O7    A    
C45   H5    S    
C12   O2    A    
C10   C11   S    
C50   H28   S    
C22   C26   A    
C46   H25   S    
C58   H9    S    
C23   H3    S    
C2    N2    A    
C8    C10   S    
C49   C50   A    
C13   H12   S    
C27   C28   S    
C48   H27   S    
O5    Zn1   S    
C1    O4    A    
C56   H7    S    
