data_mof_unit_64605.cif
_audit_creation_date              2012-12-11T17:05:32-0500
_audit_creation_method            fapswitch 2.2
_symmetry_space_group_name_H-M    P1
_symmetry_Int_Tables_number       1
_space_group_crystal_system       triclinic
_cell_length_a                    7.122868
_cell_length_b                    14.631901
_cell_length_c                    16.038512
_cell_angle_alpha                 90.150784
_cell_angle_beta                  91.847084
_cell_angle_gamma                 88.711633
_cell_volume                      1670.25743436

loop_
_atom_site_label
_atom_site_type_symbol
_atom_type_description
_atom_site_fract_x
_atom_site_fract_y
_atom_site_fract_z
_atom_type_partial_charge
O1    O     O_R   0.494380 0.415640 0.412830 -0.531805
O2    O     O_R   0.823960 0.405540 0.586560 -0.515366
O3    O     O_R   0.994270 0.584360 0.587170 -0.526653
C1    C     C_R   0.660724 0.386545 0.617370 0.751578
O4    O     O_R   0.824090 0.404620 0.413450 -0.554395
O5    O     O_R   0.994400 0.583430 0.412820 -0.539175
C2    C     C_R   0.654857 0.383579 0.384462 0.692958
O6    O     O_R   0.494250 0.416570 0.587180 -0.520741
O7    O     O_3   0.660800 0.558670 0.500000 -0.399536
V1    V     V_3+5 0.935650 0.489120 0.500000 1.442103
O8    O     O_R   0.324110 0.594460 0.413440 -0.557439
C3    C     C_R   0.152542 0.620468 0.389221 0.690577
O9    O     O_R   0.323980 0.595380 0.586550 -0.569141
C4    C     C_R   0.156229 0.613777 0.617039 0.740224
V2    V     V_3+5 0.435660 0.510880 0.500000 1.378122
O10   O     O_3   0.160640 0.441330 0.500000 -0.355973
C5    C     C_3   0.945534 0.681870 0.727669 0.343407
C6    C     C_3   0.940855 0.745359 0.806854 0.729244
C7    C     C_3   0.167750 0.778559 0.647173 -0.473818
C8    C     C_3   0.299819 0.672798 0.753118 -0.373568
C9    C     C_3   0.141938 0.685007 0.685959 -0.097196
H1    H     H_    0.293700 0.604756 0.783103 0.170580
C10   C     C_3   0.112217 0.814610 0.804051 -0.194788
C11   C     C_3   0.139228 0.859187 0.711148 0.791462
C12   C     C_3   0.288730 0.749591 0.819320 -0.360200
C13   C     C_R   0.267015 0.817495 0.243601 -0.143675
C14   C     C_R   0.121761 0.812394 0.182308 -0.221628
C15   C     C_R   0.975211 0.749173 0.196120 0.541675
C16   C     C_R   0.979670 0.696763 0.270841 -0.203593
C17   C     C_R   0.134935 0.694984 0.326036 -0.187250
C18   C     C_R   0.272492 0.760847 0.314375 -0.056731
C19   C     C_3   0.481500 0.747276 0.316427 0.309543
C20   C     C_3   0.474159 0.797396 0.233152 0.342019
H2    H     H_    0.532852 0.675247 0.312114 0.024391
C21   C     C_R   0.504783 0.327310 0.740177 -0.232699
C22   C     C_R   0.664200 0.331131 0.696174 -0.233446
C23   C     C_R   0.816614 0.278224 0.731025 0.423981
C24   C     C_R   0.798102 0.230612 0.808727 0.391138
C25   C     C_R   0.620398 0.203863 0.832265 -0.286666
C26   C     C_R   0.482000 0.268434 0.807126 -0.108634
C27   C     C_3   0.277747 0.275229 0.791514 0.388768
C28   C     C_3   0.307879 0.328794 0.711160 0.407910
C29   C     C_R   0.515949 0.244964 0.314560 -0.029217
C30   C     C_R   0.646107 0.314942 0.315866 -0.145895
C31   C     C_R   0.773468 0.315658 0.250227 -0.190729
C32   C     C_R   0.761945 0.251459 0.183788 -0.164607
C33   C     C_R   0.622514 0.184349 0.180768 -0.138458
C34   C     C_R   0.502394 0.183020 0.248551 -0.058774
C35   C     C_3   0.292386 0.181712 0.253923 0.772105
C36   C     C_3   0.310489 0.247230 0.329426 0.246914
O11   O     O_R   0.771490 0.080820 0.910070 -0.515763
O12   O     O_R   0.441590 0.092730 0.083780 -0.519215
O13   O     O_R   0.271350 0.913900 0.084390 -0.541452
C37   C     C_R   0.610771 0.115908 0.111405 0.680177
O14   O     O_R   0.441780 0.091820 0.910670 -0.545374
O15   O     O_R   0.271540 0.912980 0.910040 -0.540677
C38   C     C_R   0.607569 0.120271 0.887725 0.694417
O16   O     O_R   0.771300 0.081740 0.084420 -0.553336
O17   O     O_3   0.604960 0.938700 0.997240 -0.363311
V3    V     V_3+5 0.330090 0.008230 0.997220 1.473750
O18   O     O_R   0.941820 0.901930 0.910640 -0.538208
C39   C     C_R   0.108035 0.883506 0.878459 0.674403
O19   O     O_R   0.941630 0.902840 0.083750 -0.506553
C40   C     C_R   0.112488 0.879306 0.111138 0.710958
V4    V     V_3+5 0.830090 0.986410 0.997190 1.484878
O20   O     O_3   0.105080 0.055990 0.997200 -0.369099
H3    H     H_    0.835832 0.705582 0.680794 0.020872
H4    H     H_    0.415351 0.787745 0.818362 0.222215
H5    H     H_    0.310451 0.781815 0.620993 0.163783
O21   O     O_3   0.307304 0.910330 0.712468 -0.588026
C41   C     C_3   0.280519 0.003869 0.732825 -0.188194
H6    H     H_    0.175451 0.016708 0.781239 0.153540
H7    H     H_    0.237512 0.043004 0.676432 0.145451
H8    H     H_    0.416433 0.031135 0.755486 0.110618
O22   O     O_3   0.831129 0.739639 0.135885 -0.538495
C42   C     C_3   0.766697 0.648451 0.130030 -0.363592
H9    H     H_    0.885072 0.597984 0.124809 0.125736
H10   H     H_    0.671675 0.642533 0.074393 0.151240
H11   H     H_    0.678041 0.629807 0.182469 0.117672
H12   H     H_    0.867842 0.651121 0.283721 0.130138
O23   O     O_3   0.579213 0.799716 0.377974 -0.531842
C43   C     C_3   0.516276 0.783378 0.458848 -0.207328
H13   H     H_    0.532650 0.710704 0.475773 0.178653
H14   H     H_    0.368759 0.807828 0.465720 0.122575
H15   H     H_    0.604125 0.822494 0.504002 0.134721
H16   H     H_    0.488255 0.751798 0.178647 0.073528
O24   O     O_3   0.605056 0.869380 0.229974 -0.522185
C44   C     C_3   0.534314 0.953917 0.257920 -0.023901
H17   H     H_    0.466547 0.949179 0.319145 0.179528
H18   H     H_    0.435400 0.982459 0.209982 0.159537
H19   H     H_    0.653064 0.001087 0.265846 0.096042
O25   O     O_3   0.957452 0.251008 0.680744 -0.534092
C45   C     C_3   0.889217 0.184182 0.624828 -0.230540
H20   H     H_    0.819778 0.216880 0.569367 0.113533
H21   H     H_    0.793547 0.135178 0.654201 0.103721
H22   H     H_    0.010081 0.144457 0.602435 0.153472
O26   O     O_3   0.921252 0.588658 0.750290 -0.540752
C46   C     C_3   0.731091 0.566760 0.754269 -0.209279
H23   H     H_    0.661087 0.570804 0.691472 0.129867
H24   H     H_    0.659363 0.609891 0.800713 0.148658
H25   H     H_    0.722825 0.495489 0.776553 0.139508
O27   O     O_3   0.950642 0.210092 0.861054 -0.537468
C47   C     C_3   0.926023 0.254257 0.939827 -0.016013
H26   H     H_    0.811947 0.226445 0.976683 0.065815
H27   H     H_    0.898053 0.329078 0.932553 0.106243
H28   H     H_    0.056776 0.244023 0.978178 0.167778
O28   O     O_3   0.192286 0.327420 0.855898 -0.546790
C48   C     C_3   0.252999 0.417951 0.870363 -0.308220
H29   H     H_    0.176654 0.465994 0.827420 0.182680
H30   H     H_    0.407222 0.425812 0.868095 0.132353
H31   H     H_    0.213441 0.438081 0.934276 0.158186
H32   H     H_    0.219824 0.206236 0.781834 0.135645
H33   H     H_    0.245323 0.398776 0.708844 0.084191
O29   O     O_3   0.270007 0.281757 0.633838 -0.514587
C49   C     C_3   0.386872 0.205069 0.615277 -0.141985
H34   H     H_    0.442190 0.167419 0.670788 0.066949
H35   H     H_    0.502053 0.226600 0.575905 0.138542
H36   H     H_    0.307234 0.156342 0.576074 0.152636
H37   H     H_    0.876387 0.368626 0.248830 0.117936
H38   H     H_    0.856725 0.256568 0.132890 0.157030
O30   O     O_3   0.239987 0.092900 0.278603 -0.581990
C50   C     C_3   0.054521 0.072160 0.254129 -0.190976
H39   H     H_    0.952860 0.124217 0.276482 0.148809
H40   H     H_    0.019307 0.005920 0.282514 0.146349
H41   H     H_    0.042743 0.063567 0.185546 0.186498
O31   O     O_3   0.195131 0.214924 0.179815 -0.567215
C51   C     C_3   0.235659 0.306030 0.157238 -0.390803
H42   H     H_    0.387196 0.320655 0.157760 0.159883
H43   H     H_    0.162136 0.356368 0.196660 0.123934
H44   H     H_    0.182361 0.318092 0.092586 0.165072
O32   O     O_3   0.278748 0.203852 0.406117 -0.544004
C52   C     C_3   0.089721 0.216233 0.428100 -0.165646
H45   H     H_    0.040058 0.150832 0.453137 0.125595
H46   H     H_    0.992117 0.236009 0.375589 0.114403
H47   H     H_    0.080808 0.268934 0.477573 0.204297
O33   O     O_3   0.983304 0.683281 0.874210 -0.562257
C53   C     C_3   0.871898 0.691135 0.944211 -0.132556
H48   H     H_    0.722461 0.676304 0.929099 0.142215
H49   H     H_    0.886611 0.758195 0.975089 0.194630
H50   H     H_    0.926629 0.638130 0.987912 0.131378
H51   H     H_    0.247946 0.317337 0.323717 0.044830
O34   O     O_3   0.755723 0.784514 0.817172 -0.600462
C54   C     C_3   0.705667 0.864800 0.772623 -0.238587
H52   H     H_    0.675677 0.850210 0.705604 0.178879
H53   H     H_    0.795656 0.922922 0.785881 0.185176
H54   H     H_    0.581055 0.896007 0.800361 0.182307
H55   H     H_    0.070923 0.780814 0.592054 0.119055
O35   O     O_3   0.983606 0.915629 0.682773 -0.596752
C55   C     C_3   0.980834 0.940952 0.597248 -0.325537
H56   H     H_    0.893399 0.893481 0.559552 0.151865
H57   H     H_    0.123071 0.946376 0.571241 0.171055
H58   H     H_    0.905242 0.006609 0.589789 0.149292
H59   H     H_    0.435930 0.677799 0.722283 0.161572
H60   H     H_    0.296519 0.719677 0.883071 0.179888

loop_
_geom_bond_atom_site_label_1
_geom_bond_atom_site_label_2
_ccdc_geom_bond_type
C54   H54   S    
O24   C44   S    
O19   V4    S    
C26   C27   S    
C45   H20   S    
C27   C28   S    
C21   C22   A    
C42   H11   S    
C1    O6    A    
C1    C22   S    
O29   C49   S    
C11   O21   S    
C31   C32   A    
C35   O31   S    
C53   H49   S    
C13   C14   A    
O31   C51   S    
C43   H15   S    
C4    C9    S    
C22   C23   A    
C7    C9    S    
C23   C24   A    
C42   H10   S    
C55   H57   S    
O5    C3    A    
C17   C18   A    
O13   C40   A    
C54   H52   S    
C8    C12   S    
V2    O10   S    
C25   C38   S    
O26   C46   S    
C48   H29   S    
O11   V4    S    
C21   C28   S    
O16   V4    S    
O8    V2    S    
C28   O29   S    
C10   C39   S    
C33   C34   A    
C52   H45   S    
C49   H35   S    
C27   H32   S    
O28   C48   S    
C6    O33   S    
O21   C41   S    
O11   C38   A    
O12   V3    S    
C29   C34   A    
C36   H51   S    
C44   H17   S    
C31   H37   S    
V3    O20   S    
C13   C18   A    
C45   H21   S    
O9    C4    A    
O27   C47   S    
C12   H4    S    
O7    V1    S    
O13   V3    S    
O12   C37   A    
O23   C43   S    
C53   H50   S    
C5    H3    S    
C8    H59   S    
C6    C10   S    
C6    O34   S    
C42   H9    S    
C11   O35   S    
C55   H58   S    
C25   C26   A    
C41   H7    S    
C7    H55   S    
O15   V3    S    
C19   H2    S    
O2    C1    A    
O22   C42   S    
C51   H43   S    
C16   C17   A    
C19   O23   S    
C28   H33   S    
C18   C19   S    
C44   H19   S    
C10   C11   S    
C49   H36   S    
C35   O30   S    
C5    C6    S    
C32   H38   S    
C47   H27   S    
C2    C30   S    
O35   C55   S    
O30   C50   S    
O3    C4    A    
C33   C37   S    
O1    V2    S    
C34   C35   S    
C8    H1    S    
C35   C36   S    
O6    V2    S    
C43   H14   S    
O9    V2    S    
C29   C30   A    
O15   C39   A    
C7    H5    S    
V4    O20   S    
C50   H40   S    
O32   C52   S    
O2    V1    S    
C14   C15   A    
C30   C31   A    
O4    C2    A    
C37   O16   A    
C54   H53   S    
C32   C33   A    
C15   C16   A    
C27   O28   S    
C23   O25   S    
C3    C17   S    
C12   H60   S    
O1    C2    A    
C44   H18   S    
O33   C53   S    
O5    V1    S    
C41   H8    S    
O8    C3    A    
C29   C36   S    
C45   H22   S    
C46   H25   S    
C53   H48   S    
C46   H24   S    
C48   H31   S    
C19   C20   S    
C50   H41   S    
O14   C38   A    
C7    C11   S    
C20   O24   S    
C51   H44   S    
O4    V1    S    
C24   O27   S    
O3    V1    S    
V1    O10   S    
C55   H56   S    
O17   V4    S    
C49   H34   S    
C24   C25   A    
C16   H12   S    
C36   O32   S    
C52   H47   S    
O25   C45   S    
C46   H23   S    
C48   H30   S    
C21   C26   A    
C47   H28   S    
C10   C12   S    
O7    V2    S    
O18   C39   A    
C5    C9    S    
C14   C40   S    
O19   C40   A    
O18   V4    S    
O17   V3    S    
C41   H6    S    
C8    C9    S    
C52   H46   S    
C43   H13   S    
C47   H26   S    
O34   C54   S    
C50   H39   S    
O14   V3    S    
C15   O22   S    
C5    O26   S    
C20   H16   S    
C51   H42   S    
C13   C20   S    
