data_mof_unit_67246.cif
_audit_creation_date              2012-12-11T18:15:42-0500
_audit_creation_method            fapswitch 2.2
_symmetry_space_group_name_H-M    P1
_symmetry_Int_Tables_number       1
_space_group_crystal_system       triclinic
_cell_length_a                    20.245228
_cell_length_b                    20.436331
_cell_length_c                    8.478809
_cell_angle_alpha                 90.176798
_cell_angle_beta                  92.014879
_cell_angle_gamma                 89.621668
_cell_volume                      3505.74739384

loop_
_atom_site_label
_atom_site_type_symbol
_atom_type_description
_atom_site_fract_x
_atom_site_fract_y
_atom_site_fract_z
_atom_type_partial_charge
Ba1   Ba    Ba6+2 0.999980 0.452130 0.155200 1.646894
Ba2   Ba    Ba6+2 0.999980 0.547870 0.655200 1.647791
Ba3   Ba    Ba6+2 0.499980 0.952130 0.155200 1.646904
Ba4   Ba    Ba6+2 0.499980 0.047870 0.655200 1.647805
C1    C     C_3   0.040255 0.108908 0.359721 -0.285573
C2    C     C_R   0.114272 0.661647 0.189230 -0.281062
C3    C     C_3   0.810630 0.095652 0.586395 -0.207411
C4    C     C_1   0.081145 0.131798 0.942963 0.278180
C5    C     C_1   0.080097 0.860693 0.485338 0.298594
C6    C     C_1   0.581182 0.631845 0.942882 0.278113
C7    C     C_1   0.580090 0.360695 0.485334 0.298599
C8    C     C_1   0.977392 0.077766 0.890057 0.300508
C9    C     C_1   0.980043 0.924965 0.460454 0.260803
C10   C     C_1   0.477440 0.577781 0.890117 0.300663
C11   C     C_1   0.480037 0.424971 0.460436 0.260809
C12   C     C_R   0.612672 0.838153 0.692234 -0.272017
C13   C     C_R   0.614272 0.161647 0.189234 -0.281056
C14   C     C_R   0.121308 0.284158 0.596345 -0.001792
C15   C     C_R   0.124319 0.714509 0.090942 -0.013776
C16   C     C_R   0.621310 0.784163 0.596358 -0.001795
C17   C     C_R   0.624317 0.214510 0.090948 -0.013775
C18   C     C_R   0.163968 0.233401 0.645533 -0.104381
C19   C     C_R   0.168288 0.763889 0.139090 -0.095133
C20   C     C_R   0.663974 0.733406 0.645537 -0.104377
C21   C     C_3   0.036826 0.899859 0.905118 -0.286562
C22   C     C_R   0.668287 0.263890 0.139096 -0.095105
C23   C     C_R   0.204150 0.239969 0.784159 0.007407
C24   C     C_R   0.207319 0.757829 0.279406 0.005001
C25   C     C_R   0.704158 0.739976 0.784156 0.007447
C26   C     C_R   0.707324 0.257825 0.279403 0.004984
C27   C     C_R   0.200729 0.298808 0.875493 -0.018490
C28   C     C_R   0.202418 0.700233 0.374030 -0.014291
C29   C     C_R   0.700736 0.798813 0.875493 -0.018491
C30   C     C_R   0.702426 0.200228 0.374023 -0.014298
C31   C     C_R   0.795814 0.696815 0.953745 -0.051908
C32   C     C_3   0.540509 0.608878 0.359674 -0.285395
C33   C     C_R   0.797398 0.302180 0.450863 -0.046111
C34   C     C_R   0.295806 0.196809 0.953751 -0.051912
C35   C     C_R   0.297389 0.802187 0.450879 -0.046017
C36   C     C_R   0.789311 0.752898 0.051064 -0.001699
C37   C     C_R   0.790220 0.247149 0.550457 -0.008381
C38   C     C_R   0.289302 0.252892 0.051071 -0.001718
C39   C     C_R   0.290201 0.747161 0.550485 -0.008378
C40   C     C_R   0.847450 0.650072 0.992163 0.055216
C41   C     C_R   0.847947 0.349631 0.490643 0.056406
C42   C     C_R   0.347445 0.150069 0.992166 0.055193
C43   C     C_3   0.536824 0.399859 0.905109 -0.286573
C44   C     C_R   0.347942 0.849634 0.490655 0.056451
C45   C     C_R   0.886102 0.658177 0.130845 -0.289708
C46   C     C_R   0.885696 0.342375 0.630841 -0.288373
C47   C     C_R   0.386096 0.158173 0.130850 -0.289737
C48   C     C_R   0.385688 0.842378 0.630859 -0.288391
C49   C     C_3   0.988334 0.193983 0.817185 0.321793
C50   C     C_3   0.982278 0.813781 0.343561 0.296851
C51   C     C_3   0.488337 0.693993 0.817162 0.321843
C52   C     C_3   0.482269 0.313783 0.343556 0.296851
C53   C     C_R   0.873388 0.709159 0.234021 -0.014106
C54   C     C_R   0.151503 0.347449 0.829109 0.067096
C55   C     C_R   0.872132 0.292771 0.735584 -0.009421
C56   C     C_R   0.373381 0.209155 0.234027 -0.014077
C57   C     C_R   0.372118 0.792778 0.735612 -0.009417
C58   C     C_R   0.827008 0.756463 0.192870 -0.121567
C59   C     C_R   0.826556 0.245333 0.694245 -0.132888
C60   C     C_R   0.326999 0.256458 0.192877 -0.121568
C61   C     C_R   0.326535 0.745345 0.694279 -0.132961
C62   C     C_R   0.751926 0.690882 0.821788 -0.027734
C63   C     C_R   0.754600 0.306913 0.316943 -0.037418
C64   C     C_R   0.251917 0.190874 0.821797 -0.027765
C65   C     C_R   0.152525 0.652271 0.327995 0.070685
C66   C     C_R   0.254596 0.806916 0.316947 -0.037309
C67   C     C_3   0.023194 0.127501 0.834718 -0.169259
C68   C     C_3   0.021660 0.875774 0.384352 -0.160974
C69   C     C_3   0.523215 0.627521 0.834699 -0.169218
C70   C     C_3   0.521653 0.375776 0.384345 -0.160972
C71   C     C_3   0.810865 0.461182 0.814638 0.298433
C72   C     C_3   0.811011 0.539528 0.316227 0.295649
C73   C     C_3   0.310862 0.961183 0.814637 0.298405
C74   C     C_3   0.310995 0.039517 0.316149 0.295655
C75   C     C_3   0.748628 0.419690 0.807811 -0.371820
C76   C     C_R   0.651506 0.847451 0.829115 0.067062
C77   C     C_3   0.749144 0.582327 0.311852 -0.366050
C78   C     C_3   0.248622 0.919695 0.807814 -0.371816
C79   C     C_3   0.249150 0.082349 0.312078 -0.365912
C80   C     C_3   0.194890 0.536799 0.008195 0.293838
C81   C     C_3   0.194218 0.462011 0.506009 0.281975
C82   C     C_3   0.694884 0.036799 0.008200 0.293860
C83   C     C_3   0.694218 0.962027 0.506132 0.281925
C84   C     C_3   0.263156 0.562480 0.061510 -0.309495
C85   C     C_3   0.261929 0.434468 0.560705 -0.318920
C86   C     C_3   0.763149 0.062488 0.061513 -0.309560
C87   C     C_R   0.652528 0.152269 0.327993 0.070701
C88   C     C_3   0.761943 0.934470 0.560695 -0.318845
C89   C     C_3   0.024994 0.182393 0.365066 0.577567
C90   C     C_3   0.028651 0.827097 0.939503 0.513078
C91   C     C_3   0.525137 0.682339 0.365032 0.577278
C92   C     C_3   0.528650 0.327098 0.939499 0.513077
C93   C     C_R   0.247478 0.306098 0.004508 0.198549
C94   C     C_R   0.247862 0.694138 0.506779 0.194303
C95   C     C_R   0.747486 0.806104 0.004504 0.198513
C96   C     C_R   0.747876 0.194127 0.506760 0.194214
C97   C     C_3   0.904946 0.169010 0.332120 -0.266086
C98   C     C_R   0.112669 0.338149 0.692223 -0.272042
C99   C     C_3   0.919976 0.806310 0.810978 -0.114343
C100  C     C_3   0.405089 0.668958 0.332521 -0.266407
C101  C     C_3   0.419976 0.306304 0.810975 -0.114343
C102  C     C_1   0.269335 0.632742 0.043332 0.176093
C103  C     C_1   0.267631 0.363849 0.544113 0.190745
C104  C     C_1   0.769323 0.132748 0.043292 0.176097
C105  C     C_1   0.767631 0.863851 0.544094 0.190850
C106  C     C_3   0.319058 0.400253 0.049040 -0.216833
C107  C     C_3   0.310634 0.595670 0.586311 -0.207491
C108  C     C_3   0.819064 0.900262 0.049056 -0.216831
H1    H     H_    0.710814 0.442574 0.727104 0.136809
H2    H     H_    0.729407 0.586479 0.432102 0.111117
H3    H     H_    0.433905 0.260816 0.749977 0.193735
H4    H     H_    0.247021 0.368583 0.197651 0.226176
H5    H     H_    0.323269 0.445270 0.121189 0.116364
H6    H     H_    0.321609 0.412603 0.922306 0.131582
H7    H     H_    0.362048 0.369661 0.083947 0.103525
H8    H     H_    0.238889 0.641591 0.713234 0.229032
H9    H     H_    0.305825 0.551894 0.660813 0.128181
H10   H     H_    0.355088 0.620766 0.634164 0.078224
H11   H     H_    0.317420 0.580332 0.462505 0.127348
H12   H     H_    0.747025 0.868587 0.197651 0.226229
H13   H     H_    0.228376 0.915726 0.927481 0.111635
H14   H     H_    0.823270 0.945278 0.121209 0.116352
H15   H     H_    0.821619 0.912614 0.922327 0.131603
H16   H     H_    0.862054 0.869671 0.083968 0.103518
H17   H     H_    0.738876 0.141598 0.713227 0.229064
H18   H     H_    0.805769 0.051856 0.660799 0.128217
H19   H     H_    0.855069 0.120710 0.634457 0.078202
H20   H     H_    0.817478 0.080351 0.462583 0.127271
H21   H     H_    0.229585 0.086603 0.432477 0.111088
H22   H     H_    0.163911 0.531534 0.112623 0.012922
H23   H     H_    0.162389 0.467048 0.609227 0.013519
H24   H     H_    0.663907 0.031531 0.112629 0.012968
H25   H     H_    0.662442 0.967111 0.609448 0.013620
H26   H     H_    0.169894 0.570462 0.921961 0.042108
H27   H     H_    0.169725 0.429719 0.416936 0.068517
H28   H     H_    0.669883 0.070460 0.921966 0.042097
H29   H     H_    0.710855 0.560374 0.231430 0.140860
H30   H     H_    0.669656 0.929722 0.417178 0.068501
H31   H     H_    0.274350 0.549338 0.186424 0.089443
H32   H     H_    0.272000 0.447243 0.685974 0.091771
H33   H     H_    0.774340 0.049360 0.186436 0.089436
H34   H     H_    0.772058 0.947242 0.685956 0.091676
H35   H     H_    0.301961 0.540709 0.987917 0.133974
H36   H     H_    0.301631 0.455655 0.489844 0.128598
H37   H     H_    0.801957 0.040713 0.987940 0.133993
H38   H     H_    0.801627 0.955651 0.489758 0.128600
H39   H     H_    0.019889 0.195615 0.491535 -0.141513
H40   H     H_    0.210808 0.942581 0.727112 0.136826
H41   H     H_    0.054631 0.819877 0.055027 -0.083683
H42   H     H_    0.520020 0.695552 0.491504 -0.141206
H43   H     H_    0.554631 0.319879 0.055022 -0.083680
H44   H     H_    0.006448 0.081778 0.435847 0.074409
H45   H     H_    0.011885 0.929456 0.995689 0.091134
H46   H     H_    0.506788 0.581691 0.435902 0.074302
H47   H     H_    0.511900 0.429455 0.995703 0.091141
H48   H     H_    0.034729 0.089796 0.237433 0.122550
H49   H     H_    0.016087 0.912899 0.786819 0.123893
H50   H     H_    0.534956 0.589751 0.237402 0.122571
H51   H     H_    0.210741 0.060361 0.232053 0.140853
H52   H     H_    0.516068 0.412903 0.786833 0.123880
H53   H     H_    0.040727 0.111918 0.717823 -0.005990
H54   H     H_    0.039257 0.897296 0.273620 -0.006987
H55   H     H_    0.540733 0.611929 0.717800 -0.006043
H56   H     H_    0.539252 0.397296 0.273611 -0.006983
H57   H     H_    0.078575 0.376167 0.652352 0.048789
H58   H     H_    0.078868 0.624865 0.151221 0.048471
H59   H     H_    0.578580 0.876173 0.652360 0.048767
H60   H     H_    0.578866 0.124867 0.151227 0.048465
H61   H     H_    0.170107 0.191527 0.568578 0.064260
H62   H     H_    0.759547 0.369825 0.764274 0.083002
H63   H     H_    0.175169 0.805163 0.061499 0.061073
H64   H     H_    0.670115 0.691535 0.568576 0.064232
H65   H     H_    0.675167 0.305165 0.061508 0.061077
H66   H     H_    0.822219 0.797027 0.272344 0.096059
H67   H     H_    0.821762 0.205939 0.775521 0.106477
H68   H     H_    0.322210 0.297022 0.272350 0.096061
H69   H     H_    0.321745 0.705946 0.775546 0.106490
H70   H     H_    0.923837 0.622499 0.163622 0.062380
H71   H     H_    0.923318 0.377778 0.663537 0.059998
H72   H     H_    0.423831 0.122495 0.163628 0.062370
H73   H     H_    0.760403 0.632052 0.269410 0.085879
H74   H     H_    0.423315 0.877777 0.663548 0.060006
H75   H     H_    0.754564 0.648174 0.746522 0.097658
H76   H     H_    0.757623 0.348861 0.240085 0.097468
H77   H     H_    0.254556 0.148167 0.746531 0.097651
H78   H     H_    0.257624 0.848861 0.240080 0.097411
H79   H     H_    0.091618 0.099549 0.404851 0.081047
H80   H     H_    0.090188 0.912327 0.909282 0.078790
H81   H     H_    0.591905 0.599603 0.404670 0.081021
H82   H     H_    0.590184 0.412324 0.909227 0.078804
H83   H     H_    0.025306 0.231970 0.790082 -0.026650
H84   H     H_    0.259537 0.869829 0.764272 0.082998
H85   H     H_    0.016113 0.776650 0.292855 -0.038553
H86   H     H_    0.525295 0.731990 0.790052 -0.026679
H87   H     H_    0.516105 0.276651 0.292845 -0.038562
H88   H     H_    0.952531 0.189792 0.715725 -0.056437
H89   H     H_    0.943607 0.827804 0.254555 -0.014244
H90   H     H_    0.452536 0.689792 0.715712 -0.056465
H91   H     H_    0.443596 0.327804 0.254553 -0.014235
H92   H     H_    0.830414 0.464813 0.694719 0.014084
H93   H     H_    0.830211 0.535890 0.195832 0.014267
H94   H     H_    0.330411 0.964813 0.694718 0.014144
H95   H     H_    0.260373 0.132032 0.269319 0.085864
H96   H     H_    0.330079 0.035855 0.195646 0.014325
H97   H     H_    0.847818 0.437328 0.896083 0.059647
H98   H     H_    0.848323 0.562557 0.397647 0.066895
H99   H     H_    0.347814 0.937328 0.896083 0.059622
H100  H     H_    0.348391 0.062539 0.397364 0.066773
H101  H     H_    0.958328 0.247449 0.259598 0.242841
H102  H     H_    0.861480 0.189679 0.266618 0.162324
H103  H     H_    0.900547 0.181106 0.458018 0.073473
H104  H     H_    0.905648 0.115329 0.312490 0.119939
H105  H     H_    0.953759 0.770062 0.024054 0.132289
H106  H     H_    0.728379 0.415722 0.927476 0.111644
H107  H     H_    0.867139 0.803388 0.837125 0.077970
H108  H     H_    0.926250 0.849778 0.735453 0.135903
H109  H     H_    0.933887 0.760814 0.750003 0.193709
H110  H     H_    0.458444 0.747273 0.259230 0.243047
H111  H     H_    0.361619 0.689352 0.266531 0.162411
H112  H     H_    0.400615 0.681463 0.458163 0.073602
H113  H     H_    0.405881 0.615223 0.313937 0.119749
H114  H     H_    0.453760 0.270059 0.024053 0.132283
H115  H     H_    0.367138 0.303362 0.837128 0.077994
H116  H     H_    0.426236 0.349783 0.735461 0.135878
N1    N     N_2   0.964339 0.197915 0.276789 -0.373651
N2    N     N_2   0.251559 0.635502 0.597805 -0.394354
N3    N     N_2   0.757285 0.867968 0.079717 -0.397402
N4    N     N_2   0.751559 0.135497 0.597811 -0.394374
N5    N     N_1   0.127224 0.135165 0.027176 -0.284336
N6    N     N_1   0.126618 0.848900 0.563536 -0.276692
N7    N     N_1   0.627273 0.635236 0.027044 -0.284368
N8    N     N_1   0.626612 0.348903 0.563535 -0.276673
N9    N     N_1   0.940864 0.039002 0.933480 -0.327583
N10   N     N_1   0.947041 0.963653 0.519902 -0.334551
N11   N     N_1   0.440932 0.539012 0.933607 -0.327510
N12   N     N_2   0.959568 0.810844 0.955150 -0.472021
N13   N     N_1   0.447037 0.463664 0.519874 -0.334569
N14   N     N_2   0.464456 0.697758 0.276767 -0.373783
N15   N     N_2   0.459567 0.310842 0.955149 -0.472023
N16   N     N_1   0.275853 0.688302 0.027917 -0.282217
N17   N     N_1   0.273873 0.307989 0.531042 -0.269517
N18   N     N_1   0.775833 0.188308 0.027840 -0.282244
N19   N     N_1   0.773868 0.807993 0.531014 -0.269520
N20   N     N_2   0.257280 0.367963 0.079716 -0.397407
O1    O     O_2   0.130070 0.404060 0.104920 -0.440235
O2    O     O_3   0.951791 0.789081 0.476895 -0.598179
O3    O     O_3   0.455156 0.710390 0.955201 -0.567463
O4    O     O_3   0.451786 0.289081 0.476893 -0.598193
O5    O     O_3   0.924190 0.533610 0.949240 -0.501660
O6    O     O_3   0.924190 0.466390 0.449240 -0.500178
O7    O     O_3   0.424190 0.033610 0.949240 -0.501673
O8    O     O_3   0.424190 0.966390 0.449240 -0.500156
O9    O     O_3   0.075780 0.466370 0.861070 -0.499403
O10   O     O_3   0.075780 0.533630 0.361070 -0.498941
O11   O     O_3   0.575780 0.966370 0.861070 -0.499425
O12   O     O_2   0.130070 0.595940 0.604920 -0.439815
O13   O     O_3   0.575780 0.033630 0.361070 -0.498928
O14   O     O_3   0.022320 0.344950 0.359800 -0.494977
O15   O     O_3   0.022320 0.655050 0.859800 -0.476661
O16   O     O_3   0.522320 0.844950 0.359800 -0.494906
O17   O     O_3   0.522320 0.155050 0.859800 -0.476665
O18   O     O_2   0.147594 0.318419 0.300311 -0.472959
O19   O     O_2   0.138327 0.696628 0.773565 -0.463414
O20   O     O_2   0.647611 0.818479 0.300417 -0.472957
O21   O     O_2   0.638326 0.196629 0.773570 -0.463403
O22   O     O_3   0.205857 0.476785 0.934188 -0.634894
O23   O     O_2   0.630070 0.904060 0.104920 -0.440172
O24   O     O_3   0.205970 0.522392 0.435878 -0.640076
O25   O     O_3   0.705857 0.976786 0.934192 -0.634902
O26   O     O_3   0.705965 0.022384 0.435870 -0.640055
O27   O     O_3   0.077086 0.215555 0.295587 -0.571743
O28   O     O_3   0.056511 0.789827 0.818064 -0.562509
O29   O     O_3   0.577167 0.715582 0.295516 -0.571786
O30   O     O_3   0.556510 0.289827 0.818062 -0.562514
O31   O     O_2   0.869860 0.403670 0.205810 -0.467445
O32   O     O_2   0.869860 0.596330 0.705810 -0.463591
O33   O     O_2   0.369860 0.903670 0.205810 -0.467466
O34   O     O_2   0.630070 0.095940 0.604920 -0.439857
O35   O     O_2   0.369860 0.096330 0.705810 -0.463536
O36   O     O_3   0.977590 0.344880 0.951200 -0.475970
O37   O     O_3   0.977590 0.655120 0.451200 -0.467705
O38   O     O_3   0.477590 0.844880 0.951200 -0.475987
O39   O     O_3   0.477590 0.155120 0.451200 -0.467703
O40   O     O_2   0.869503 0.293989 0.064615 -0.469742
O41   O     O_2   0.865762 0.701333 0.557089 -0.472998
O42   O     O_2   0.369517 0.793979 0.064664 -0.469689
O43   O     O_2   0.365762 0.201330 0.557095 -0.472975
O44   O     O_3   0.793745 0.477380 0.369034 -0.636950
O45   O     O_3   0.793824 0.523434 0.869083 -0.635186
O46   O     O_3   0.293747 0.977382 0.369072 -0.636972
O47   O     O_3   0.293823 0.023436 0.869080 -0.635186
O48   O     O_3   0.955154 0.210388 0.955224 -0.567329
P1    P     P_3+3 0.136530 0.426510 0.931350 0.999827
P2    P     P_3+3 0.915913 0.713632 0.427517 0.960933
P3    P     P_3+3 0.416683 0.786518 0.926195 0.976259
P4    P     P_3+3 0.415911 0.213630 0.427519 0.960950
P5    P     P_3+3 0.084499 0.714025 0.890723 0.974101
P6    P     P_3+3 0.089778 0.290549 0.391108 0.960171
P7    P     P_3+3 0.584498 0.214026 0.890726 0.974095
P8    P     P_3+3 0.589793 0.790566 0.391120 0.960119
P9    P     P_3+3 0.136530 0.573490 0.431350 1.001158
P10   P     P_3+3 0.636530 0.926510 0.931350 0.999798
P11   P     P_3+3 0.636530 0.073490 0.431350 1.001141
P12   P     P_3+3 0.863410 0.426100 0.379280 0.967903
P13   P     P_3+3 0.863410 0.573900 0.879280 0.970329
P14   P     P_3+3 0.363410 0.926100 0.379280 0.967941
P15   P     P_3+3 0.363410 0.073900 0.879280 0.970323
P16   P     P_3+3 0.916685 0.286518 0.926181 0.976358

loop_
_geom_bond_atom_site_label_1
_geom_bond_atom_site_label_2
_ccdc_geom_bond_type
C85   H36   S    
C17   C22   A    
C91   O29   S    
C38   C60   A    
O4    P4    S    
C85   H32   S    
C106  H6    S    
C90   N12   S    
H110  N14   S    
C63   H76   S    
C6    N7    T    
C46   C55   A    
O15   P5    S    
C48   C57   A    
C10   N11   T    
C88   C105  S    
C56   P4    S    
C104  N18   T    
Ba4   O35   S    
O23   P10   D    
C23   C64   A    
O2    P2    S    
C83   O26   S    
C100  H111  S    
C4    N5    T    
Ba2   O6    S    
C3    N4    S    
Ba1   P12   S    
C13   H60   S    
O39   P4    S    
C23   C27   A    
C24   C28   A    
O33   P14   D    
C82   C86   S    
C38   C93   A    
H8    N2    S    
C31   C62   A    
Ba4   O17   S    
C7    C70   S    
C13   C17   A    
C17   P7    S    
C15   C19   A    
O16   P8    S    
C78   H13   S    
C12   C16   A    
C37   C96   A    
H105  N12   S    
C3    H20   S    
C43   H52   S    
C8    C67   S    
O17   P7    S    
C18   C23   A    
O19   P5    D    
C37   C59   A    
C33   C41   A    
C49   C67   S    
C74   H100  S    
H101  N1    S    
Ba1   O6    S    
C66   H78   S    
Ba1   O10   S    
C72   H98   S    
C4    C67   S    
O14   P6    S    
C68   H54   S    
C80   C84   S    
C21   H80   S    
C95   N3    S    
C29   C76   A    
C9    C68   S    
C55   C59   A    
C56   C60   A    
C31   C36   A    
C78   H84   S    
C99   H109  S    
C41   C46   A    
C97   H103  S    
C28   C94   A    
C57   C61   A    
C44   C48   A    
O8    P14   S    
C71   C75   S    
C101  N15   S    
C87   P11   S    
Ba3   O38   S    
Ba2   P9    S    
C25   C29   A    
O37   P2    S    
C13   C87   A    
C5    C68   S    
H114  N15   S    
C43   H47   S    
C2    C15   A    
C16   P8    S    
C108  N3    S    
C64   H77   S    
C81   O24   S    
Ba1   O31   S    
Ba4   P15   S    
Ba2   O32   S    
Ba1   O1    S    
C101  H116  S    
C45   C53   A    
C14   C98   A    
C30   C87   A    
C3    H18   S    
C79   H95   S    
C94   N2    S    
C84   H35   S    
C21   H49   S    
C99   N12   S    
C77   H2    S    
O18   P6    D    
Ba4   O34   S    
O6    P12   S    
C26   C63   A    
C99   H108  S    
O29   P8    S    
O30   P7    S    
C107  H10   S    
C48   H74   S    
Ba4   O39   S    
C26   C30   A    
C88   H34   S    
C82   O25   S    
C1    H79   S    
Ba3   O13   S    
C42   C47   A    
C29   C95   A    
O10   P9    S    
O7    P15   S    
C1    H48   S    
C19   C24   A    
C44   P14   S    
O43   P4    D    
Ba2   O37   S    
C22   C26   A    
C75   H1    S    
Ba3   P14   S    
O38   P3    S    
Ba4   O8    S    
Ba3   Ba4   S    
C18   H61   S    
C2    H58   S    
C22   H65   S    
C49   O48   S    
C14   C18   A    
C108  H14   S    
C40   P13   S    
C101  H3    S    
C24   C66   A    
C102  N16   T    
C76   P10   S    
O25   P10   S    
C50   H89   S    
O12   P9    D    
C86   C104  S    
C32   C91   S    
C90   H41   S    
C33   C63   A    
C101  H115  S    
C33   C37   A    
C74   H96   S    
C72   O44   S    
Ba1   O14   S    
C51   C69   S    
Ba2   O9    S    
C105  N19   T    
Ba3   O16   S    
C67   H53   S    
C59   H67   S    
O13   P11   S    
C47   C56   A    
C62   H75   S    
C100  H112  S    
C11   N13   T    
C57   P3    S    
C2    C65   A    
O1    P1    D    
C69   H55   S    
C70   H56   S    
O27   P6    S    
C100  H113  S    
C52   H91   S    
H17   N4    S    
C80   H22   S    
C50   H85   S    
Ba1   P1    S    
C89   O27   S    
C86   H33   S    
C90   O28   S    
C55   P16   S    
C6    C69   S    
O35   P15   D    
C19   H63   S    
C20   C25   A    
C73   C78   S    
C12   C76   A    
C74   C79   S    
H4    N20   S    
Ba2   P13   S    
C30   C96   A    
C43   C92   S    
C54   C98   A    
C84   H31   S    
C3    H19   S    
O45   P13   S    
C21   C90   S    
C83   C88   S    
C32   H50   S    
C75   H62   S    
C36   C95   A    
C106  H5    S    
Ba1   O5    S    
O26   P11   S    
C52   C70   S    
C107  H11   S    
O24   P9    S    
C47   H72   S    
O21   P7    D    
C81   C85   S    
O3    P3    S    
C106  H7    S    
C92   N15   S    
C73   O47   S    
Ba2   O15   S    
C97   H102  S    
C39   C61   A    
C85   C103  S    
C50   O2    S    
O22   P1    S    
O9    P1    S    
C8    N9    T    
C34   C64   A    
Ba4   O11   S    
C88   H38   S    
C49   H83   S    
C89   H39   S    
Ba2   O5    S    
C72   H93   S    
C106  N20   S    
C7    N8    T    
C79   H51   S    
C71   H97   S    
C5    N6    T    
C42   P15   S    
C9    N10   T    
C1    H44   S    
C80   O22   S    
Ba3   O8    S    
C91   H42   S    
O32   P13   D    
C71   O45   S    
C73   H94   S    
O31   P12   D    
C100  N14   S    
C52   O4    S    
Ba3   P10   S    
C27   C93   A    
C83   H30   S    
C108  H16   S    
H12   N3    S    
C91   N14   S    
C51   H86   S    
C11   C70   S    
C97   N1    S    
C41   P12   S    
C65   P9    S    
C78   H40   S    
C99   H107  S    
C35   C44   A    
C40   C45   A    
Ba2   O12   S    
C107  H9    S    
C43   H82   S    
C46   H71   S    
C12   H59   S    
C39   C94   A    
O20   P8    D    
C93   N20   S    
O36   P16   S    
Ba3   O23   S    
C53   C58   A    
C61   H69   S    
O41   P2    D    
C27   C54   A    
C34   C38   A    
C60   H68   S    
C74   O46   S    
C92   H43   S    
C97   H104  S    
C36   C58   A    
Ba1   Ba2   S    
C32   H81   S    
O47   P15   S    
C16   C20   A    
C108  H15   S    
C15   P5    S    
C81   H27   S    
O44   P12   S    
C82   H28   S    
C52   H87   S    
C98   H57   S    
C77   H29   S    
C80   H26   S    
C83   H25   S    
C86   H37   S    
C77   H73   S    
O11   P10   S    
C34   C42   A    
O5    P13   S    
C10   C69   S    
C96   N4    S    
C53   P2    S    
C75   H106  S    
C35   C39   A    
O48   P16   S    
C51   H90   S    
C25   C62   A    
C84   C102  S    
O46   P14   S    
C31   C40   A    
C81   H23   S    
C82   H24   S    
C21   H45   S    
C51   O3    S    
C54   P1    S    
C89   N1    S    
C49   H88   S    
C103  N17   T    
O42   P3    D    
O28   P5    S    
C72   C77   S    
C58   H66   S    
Ba1   O36   S    
C1    C89   S    
C71   H92   S    
C28   C65   A    
C32   H46   S    
C92   O30   S    
O34   P11   D    
C14   P6    S    
C35   C66   A    
Ba3   O7    S    
C79   H21   S    
C73   H99   S    
Ba4   P11   S    
C45   H70   S    
Ba3   O33   S    
C50   C68   S    
C107  N2    S    
Ba4   O7    S    
O40   P16   D    
C20   H64   S    
