data_mof_unit_31306.cif
_audit_creation_date              2012-12-11T15:37:36-0500
_audit_creation_method            fapswitch 2.2
_symmetry_space_group_name_H-M    P1
_symmetry_Int_Tables_number       1
_space_group_crystal_system       triclinic
_cell_length_a                    17.34778
_cell_length_b                    24.383314
_cell_length_c                    14.752839
_cell_angle_alpha                 90.56427
_cell_angle_beta                  125.759042
_cell_angle_gamma                 88.889984
_cell_volume                      5063.0100066

loop_
_atom_site_label
_atom_site_type_symbol
_atom_type_description
_atom_site_fract_x
_atom_site_fract_y
_atom_site_fract_z
_atom_type_partial_charge
C1    C     C_R   0.851376 0.653374 0.908581 -0.246885
C2    C     C_R   0.189779 0.371984 0.093288 -0.239799
C3    C     C_R   0.189302 0.626381 0.092518 -0.213975
C4    C     C_R   0.845260 0.349694 0.907879 -0.270361
C5    C     C_R   0.351374 0.153373 0.908578 -0.246941
C6    C     C_R   0.689779 0.871984 0.093291 -0.239775
C7    C     C_R   0.689304 0.126377 0.092520 -0.213866
C8    C     C_R   0.345253 0.849696 0.907879 -0.270314
C9    C     C_3   0.403438 0.499168 0.463905 -0.351619
C10   C     C_3   0.576642 0.501789 0.645990 -0.345328
C11   C     C_3   0.903397 0.999147 0.463936 -0.351774
C12   C     C_3   0.076629 0.001804 0.645961 -0.345315
C13   C     C_R   0.731891 0.281654 0.971468 0.144662
C14   C     C_R   0.328284 0.677747 0.032195 0.173332
C15   C     C_R   0.356134 0.320669 0.102796 0.146733
C16   C     C_R   0.811421 0.777292 0.902812 0.191789
C17   C     C_R   0.231886 0.781651 0.971452 0.144587
C18   C     C_R   0.828277 0.177740 0.032161 0.173149
C19   C     C_R   0.856137 0.820665 0.102818 0.147180
C20   C     C_R   0.311409 0.277288 0.902795 0.191763
C21   C     C_R   0.186586 0.734850 0.967312 -0.110895
C22   C     C_R   0.873682 0.224700 0.034140 -0.114513
C23   C     C_R   0.900145 0.772041 0.103386 -0.196568
C24   C     C_R   0.253412 0.318264 0.901772 -0.156447
C25   C     C_R   0.686593 0.234855 0.967344 -0.110878
C26   C     C_R   0.373684 0.724707 0.034168 -0.114487
C27   C     C_R   0.400145 0.272044 0.103370 -0.196544
C28   C     C_R   0.753428 0.818270 0.901791 -0.156465
C29   C     C_R   0.233754 0.684114 0.996369 0.061025
C30   C     C_R   0.825356 0.275170 0.003061 0.035231
C31   C     C_R   0.870716 0.746455 0.002446 0.054867
C32   C     C_R   0.268419 0.335414 0.001886 0.048044
C33   C     C_R   0.733755 0.184115 0.996374 0.061034
C34   C     C_R   0.325353 0.775172 0.003064 0.035221
C35   C     C_R   0.370712 0.246454 0.002433 0.054898
C36   C     C_R   0.768428 0.835417 0.001904 0.047966
C37   C     C_R   0.878846 0.452192 0.452499 -0.140366
C38   C     C_R   0.887020 0.551656 0.366773 -0.149208
C39   C     C_R   0.884000 0.452488 0.362274 -0.153227
C40   C     C_R   0.881221 0.551414 0.456453 -0.129584
C41   C     C_R   0.378847 0.952192 0.452499 -0.140357
C42   C     C_R   0.387021 0.051656 0.366773 -0.149241
C43   C     C_R   0.384000 0.952488 0.362273 -0.153195
C44   C     C_R   0.381222 0.051414 0.456454 -0.129511
C45   C     C_R   0.899900 0.501990 0.328321 0.131865
C46   C     C_R   0.888215 0.501479 0.507536 0.125077
C47   C     C_R   0.399900 0.001990 0.328321 0.131862
C48   C     C_R   0.388217 0.001479 0.507536 0.125112
C49   C     C_R   0.939765 0.350938 0.093830 0.690616
C50   C     C_R   0.093892 0.625330 0.905585 0.719865
C51   C     C_R   0.097589 0.374909 0.907332 0.723030
C52   C     C_R   0.949706 0.652847 0.093100 0.679201
C53   C     C_R   0.439763 0.850939 0.093831 0.690616
C54   C     C_R   0.593891 0.125332 0.905586 0.719859
C55   C     C_R   0.597594 0.874910 0.907336 0.723048
C56   C     C_R   0.449704 0.152848 0.093098 0.679202
C57   C     C_R   0.979279 0.546994 0.247977 -0.091551
C58   C     C_R   0.943124 0.454841 0.690336 -0.001052
C59   C     C_R   0.944080 0.545955 0.691800 -0.024270
C60   C     C_R   0.980253 0.454825 0.249127 -0.116884
C61   C     C_R   0.479279 0.046994 0.247977 -0.091602
C62   C     C_R   0.443126 0.954841 0.690336 -0.001062
C63   C     C_R   0.444082 0.045955 0.691800 -0.024263
C64   C     C_R   0.480253 0.954825 0.249127 -0.116832
C65   C     C_R   0.732194 0.455425 0.755555 -0.120801
C66   C     C_R   0.261046 0.545107 0.299856 -0.060406
C67   C     C_R   0.261804 0.454044 0.299469 -0.110939
C68   C     C_R   0.731899 0.546490 0.754308 -0.098723
C69   C     C_R   0.232187 0.955429 0.755533 -0.120844
C70   C     C_R   0.761027 0.045100 0.299891 -0.060091
C71   C     C_R   0.761778 0.954037 0.299482 -0.111209
C72   C     C_R   0.231897 0.046497 0.754267 -0.098747
C73   C     C_R   0.889074 0.686755 0.001594 -0.091764
C74   C     C_R   0.189454 0.361102 0.000399 -0.113845
C75   C     C_R   0.182513 0.639843 0.997648 -0.163490
C76   C     C_R   0.872374 0.321694 0.002108 -0.105733
C77   C     C_R   0.389072 0.186755 0.001589 -0.091794
C78   C     C_R   0.689459 0.861104 0.000408 -0.113800
C79   C     C_R   0.682514 0.139843 0.997650 -0.163500
C80   C     C_R   0.372368 0.821697 0.002108 -0.105736
C81   C     C_R   0.947767 0.501409 0.273054 -0.003773
C82   C     C_R   0.924251 0.500659 0.625383 -0.056149
C83   C     C_R   0.447767 0.001409 0.273054 -0.003759
C84   C     C_R   0.424253 0.000659 0.625383 -0.056126
C85   C     C_R   0.676908 0.501592 0.732442 0.216855
C86   C     C_R   0.312644 0.499276 0.357303 0.192555
C87   C     C_R   0.176900 0.001602 0.732378 0.216900
C88   C     C_R   0.812597 0.999264 0.357352 0.192654
C89   C     C_3   0.500907 0.462010 0.625347 0.725809
C90   C     C_3   0.479681 0.538803 0.485208 0.707618
C91   C     C_3   0.474804 0.451269 0.508100 0.700327
C92   C     C_3   0.505499 0.549798 0.602050 0.717658
C93   C     C_3   0.000794 0.962196 0.625616 0.726034
C94   C     C_3   0.979742 0.038609 0.484945 0.707801
C95   C     C_3   0.974629 0.951169 0.508422 0.700322
C96   C     C_3   0.005614 0.049890 0.601720 0.717388
C97   C     C_3   0.427607 0.510293 0.580988 -0.538559
C98   C     C_3   0.550963 0.490791 0.527913 -0.575392
C99   C     C_3   0.927625 0.010563 0.580958 -0.538485
C100  C     C_3   0.050890 0.990517 0.527941 -0.575442
H1    H     H_    0.806344 0.665227 0.822049 0.147654
H2    H     H_    0.244067 0.362389 0.179366 0.154140
H3    H     H_    0.245732 0.636474 0.177861 0.176139
H4    H     H_    0.800521 0.335336 0.822540 0.166227
H5    H     H_    0.306343 0.165225 0.822046 0.147700
H6    H     H_    0.744060 0.862387 0.179371 0.154140
H7    H     H_    0.745739 0.136464 0.177865 0.176076
H8    H     H_    0.300512 0.835339 0.822539 0.166182
H9    H     H_    0.967018 0.589607 0.256584 0.145758
H10   H     H_    0.919934 0.413768 0.659435 0.155863
H11   H     H_    0.921547 0.587584 0.662950 0.160793
H12   H     H_    0.970001 0.412913 0.260853 0.164306
H13   H     H_    0.467018 0.089608 0.256583 0.145762
H14   H     H_    0.419937 0.913767 0.659435 0.155852
H15   H     H_    0.421550 0.087584 0.662952 0.160802
H16   H     H_    0.470001 0.912914 0.260854 0.164304
H17   H     H_    0.708802 0.413500 0.737909 0.141220
H18   H     H_    0.275142 0.586969 0.329567 0.151159
H19   H     H_    0.276112 0.412222 0.329427 0.167279
H20   H     H_    0.708991 0.588948 0.737044 0.163050
H21   H     H_    0.208790 0.913505 0.737897 0.140998
H22   H     H_    0.775134 0.086962 0.329603 0.150821
H23   H     H_    0.776064 0.912212 0.329417 0.167549
H24   H     H_    0.209005 0.088956 0.737004 0.163294
H25   H     H_    0.375254 0.518027 0.600113 0.221950
H26   H     H_    0.601859 0.482951 0.506488 0.212177
H27   H     H_    0.875307 0.018518 0.600060 0.221969
H28   H     H_    0.101746 0.982455 0.506531 0.212145
H29   H     H_    0.114624 0.737054 0.943640 0.150662
H30   H     H_    0.945929 0.222961 0.058748 0.161674
H31   H     H_    0.955653 0.754702 0.183049 0.215907
H32   H     H_    0.197802 0.336406 0.823004 0.210674
H33   H     H_    0.614637 0.237064 0.943701 0.150638
H34   H     H_    0.445934 0.722972 0.058792 0.161701
H35   H     H_    0.455663 0.254711 0.183034 0.215896
H36   H     H_    0.697823 0.836416 0.823024 0.210680
H37   H     H_    0.877892 0.412959 0.485238 0.129530
H38   H     H_    0.891866 0.590815 0.336905 0.124055
H39   H     H_    0.885797 0.413434 0.328267 0.127143
H40   H     H_    0.882029 0.590498 0.492070 0.131194
H41   H     H_    0.377893 0.912959 0.485238 0.129526
H42   H     H_    0.391866 0.090815 0.336905 0.124047
H43   H     H_    0.385796 0.913435 0.328266 0.127150
H44   H     H_    0.382031 0.090498 0.492071 0.131186
N1    N     N_R   0.892620 0.603790 0.941800 -0.077870
N2    N     N_R   0.107380 0.396210 0.058200 -0.072056
N3    N     N_R   0.107380 0.603790 0.058200 -0.071451
N4    N     N_R   0.892620 0.396210 0.941800 -0.074838
N5    N     N_R   0.392620 0.103790 0.941800 -0.077877
N6    N     N_R   0.607380 0.896210 0.058200 -0.072060
N7    N     N_R   0.607380 0.103790 0.058200 -0.071469
N8    N     N_R   0.392620 0.896210 0.941800 -0.074828
N9    N     N_R   0.952210 0.397600 0.057910 -0.109445
N10   N     N_R   0.047790 0.602400 0.942090 -0.116253
N11   N     N_R   0.047790 0.397600 0.942090 -0.106709
N12   N     N_R   0.952210 0.602400 0.057910 -0.102383
N13   N     N_R   0.452210 0.897600 0.057910 -0.109447
N14   N     N_R   0.547790 0.102400 0.942090 -0.116256
N15   N     N_R   0.547790 0.897600 0.942090 -0.106716
N16   N     N_R   0.452210 0.102400 0.057910 -0.102383
N17   N     N_R   0.026300 0.529110 0.206760 -0.040656
N18   N     N_R   0.973700 0.470890 0.793240 -0.061356
N19   N     N_R   0.973700 0.529110 0.793240 -0.065737
N20   N     N_R   0.026300 0.470890 0.206760 -0.042674
N21   N     N_R   0.526300 0.029110 0.206760 -0.040669
N22   N     N_R   0.473700 0.970890 0.793240 -0.061357
N23   N     N_R   0.473700 0.029110 0.793240 -0.065738
N24   N     N_R   0.526300 0.970890 0.206760 -0.042672
N25   N     N_R   0.818530 0.472270 0.792960 -0.058987
N26   N     N_R   0.181470 0.527730 0.207040 -0.061149
N27   N     N_R   0.181470 0.472270 0.207040 -0.061519
N28   N     N_R   0.818530 0.527730 0.792960 -0.063110
N29   N     N_R   0.318530 0.972270 0.792960 -0.058962
N30   N     N_R   0.681470 0.027730 0.207040 -0.061137
N31   N     N_R   0.681470 0.972270 0.207040 -0.061518
N32   N     N_R   0.318530 0.027730 0.792960 -0.063111
Ni1   Ni    Ni4+2 0.934150 0.565840 0.869060 0.214072
Ni2   Ni    Ni4+2 0.065850 0.434160 0.130940 0.259014
Ni3   Ni    Ni4+2 0.065850 0.565840 0.130940 0.267492
Ni4   Ni    Ni4+2 0.934150 0.434160 0.869060 0.225161
Ni5   Ni    Ni4+2 0.434150 0.065840 0.869060 0.214103
Ni6   Ni    Ni4+2 0.565850 0.934160 0.130940 0.259052
Ni7   Ni    Ni4+2 0.565850 0.065840 0.130940 0.267459
Ni8   Ni    Ni4+2 0.434150 0.934160 0.869060 0.225161
F1    F     F_    0.999321 0.330647 0.198900 -0.714317
F2    F     F_    0.053850 0.641648 0.799158 -0.726431
F3    F     F_    0.060787 0.364302 0.799279 -0.747575
F4    F     F_    0.018768 0.670079 0.197527 -0.737573
F5    F     F_    0.499320 0.830648 0.198900 -0.714298
F6    F     F_    0.553848 0.141653 0.799161 -0.726427
F7    F     F_    0.560797 0.864305 0.799284 -0.747560
F8    F     F_    0.518764 0.170081 0.197525 -0.737598
F9    F     F_    0.514633 0.422194 0.699730 -0.685614
F10   F     F_    0.467802 0.578654 0.411737 -0.676373
F11   F     F_    0.458779 0.400066 0.459643 -0.694962
F12   F     F_    0.523336 0.600767 0.651830 -0.661154
F13   F     F_    0.014436 0.922577 0.700281 -0.685569
F14   F     F_    0.967943 0.078262 0.411187 -0.676400
F15   F     F_    0.958468 0.899867 0.460309 -0.694701
F16   F     F_    0.023571 0.100959 0.651141 -0.661318
C101  C     C_3   0.683767 0.338324 0.944612 -0.319529
C102  C     C_3   0.587771 0.341041 0.927147 -0.811181
H45   H     H_    0.534328 0.317348 0.851776 0.274707
H46   H     H_    0.594359 0.325123 0.001736 0.237701
H47   H     H_    0.562469 0.384376 0.913954 0.280015
H48   H     H_    0.731892 0.366623 0.014354 0.178788
H49   H     H_    0.672861 0.354303 0.867625 0.237205
C103  C     C_3   0.376495 0.621321 0.066121 -0.340182
C104  C     C_3   0.478620 0.618765 0.100966 -0.842356
H50   H     H_    0.481266 0.631913 0.030974 0.257052
H51   H     H_    0.525147 0.644946 0.175320 0.271974
H52   H     H_    0.506038 0.575868 0.123294 0.257557
H53   H     H_    0.377044 0.605933 0.137161 0.227100
H54   H     H_    0.333611 0.592741 0.994876 0.198829
C105  C     C_3   0.405098 0.355582 0.207593 -0.343664
C106  C     C_3   0.506464 0.369605 0.249492 -0.794137
H55   H     H_    0.552631 0.332266 0.278894 0.257558
H56   H     H_    0.506440 0.389382 0.181939 0.245521
H57   H     H_    0.536826 0.398570 0.320760 0.270269
H58   H     H_    0.367461 0.395593 0.190888 0.209330
H59   H     H_    0.407006 0.333545 0.274457 0.237743
C107  C     C_3   0.811096 0.769314 0.800514 -0.417672
C108  C     C_3   0.823828 0.823326 0.759012 -0.799176
H60   H     H_    0.758415 0.849262 0.718557 0.258061
H61   H     H_    0.884296 0.846344 0.829460 0.259509
H62   H     H_    0.838313 0.814678 0.696168 0.272320
H63   H     H_    0.871496 0.742270 0.820802 0.207817
H64   H     H_    0.743123 0.750726 0.732177 0.220742
C109  C     C_3   0.183757 0.838318 0.944594 -0.319514
C110  C     C_3   0.087798 0.841037 0.927218 -0.811093
H65   H     H_    0.034321 0.817354 0.851851 0.274598
H66   H     H_    0.094432 0.825106 0.001826 0.237695
H67   H     H_    0.062512 0.884372 0.914072 0.280271
H68   H     H_    0.231900 0.866625 0.014305 0.178850
H69   H     H_    0.172806 0.854285 0.867575 0.237032
C111  C     C_3   0.876476 0.121306 0.066044 -0.339994
C112  C     C_3   0.978574 0.118731 0.100766 -0.842019
H70   H     H_    0.981148 0.131896 0.030723 0.256944
H71   H     H_    0.025169 0.144893 0.175146 0.271917
H72   H     H_    0.005974 0.075825 0.123024 0.257565
H73   H     H_    0.877088 0.105922 0.137135 0.227260
H74   H     H_    0.833536 0.092730 0.994796 0.198780
C113  C     C_3   0.905092 0.855570 0.207628 -0.344259
C114  C     C_3   0.006474 0.869583 0.249576 -0.794503
H75   H     H_    0.052629 0.832239 0.278976 0.257641
H76   H     H_    0.006483 0.889365 0.182050 0.245704
H77   H     H_    0.036827 0.898539 0.320856 0.269943
H78   H     H_    0.867467 0.895586 0.190921 0.209292
H79   H     H_    0.906970 0.833533 0.274473 0.237616
C115  C     C_3   0.311084 0.269311 0.800497 -0.417455
C116  C     C_3   0.323819 0.323322 0.758999 -0.799570
H80   H     H_    0.258412 0.349262 0.718556 0.258079
H81   H     H_    0.384294 0.346337 0.829447 0.259491
H82   H     H_    0.338296 0.314676 0.696147 0.272335
H83   H     H_    0.371484 0.242266 0.820784 0.207808
H84   H     H_    0.243111 0.250724 0.732159 0.220763

loop_
_geom_bond_atom_site_label_1
_geom_bond_atom_site_label_2
_ccdc_geom_bond_type
N28   Ni1   S    
C16   C28   A    
C56   F8    S    
C10   C85   S    
C3    N3    A    
C103  H53   S    
C113  H79   S    
C14   C103  S    
C67   H19   S    
C41   C43   A    
C101  C102  S    
C1    N1    A    
C108  H60   S    
C59   C82   A    
C70   C88   A    
C1    C73   A    
C9    C91   S    
C94   C96   S    
C108  H62   S    
N20   Ni2   S    
C116  H80   S    
N6    Ni6   S    
C5    H5    S    
C114  H75   S    
C16   C31   A    
C40   C46   A    
C51   N11   A    
C102  H46   S    
C64   H16   S    
C49   N9    A    
C8    N8    A    
C61   N21   A    
C106  H56   S    
C62   H14   S    
C19   C36   A    
C58   C82   A    
C32   C74   S    
N12   Ni3   S    
C18   C111  S    
C31   C73   S    
N26   N27   A    
C2    H2    S    
C11   C95   S    
C113  C114  S    
C4    N4    A    
C96   C99   S    
C105  H59   S    
C104  H52   S    
C5    N5    A    
C111  C112  S    
N2    Ni2   S    
C110  H67   S    
C11   C99   S    
C111  H74   S    
C109  H68   S    
C10   C98   S    
N3    N10   A    
C24   H32   S    
N30   N31   A    
C38   C45   A    
C26   H34   S    
C89   C97   S    
C34   C80   S    
C46   C82   S    
N1    N12   A    
C43   H43   S    
C26   C34   A    
C57   H9    S    
N2    N11   A    
C20   C24   A    
N29   Ni8   S    
C13   C101  S    
C103  C104  S    
C102  H47   S    
C42   H42   S    
C59   H11   S    
C101  H48   S    
C106  H57   S    
N27   Ni2   S    
C47   C83   S    
N15   Ni8   S    
N17   Ni3   S    
C3    C75   A    
C93   C99   S    
N16   Ni7   S    
N18   Ni4   S    
C69   C87   A    
C2    N2    A    
C19   C113  S    
C39   C45   A    
C107  H64   S    
C63   H15   S    
C55   N15   A    
C10   C92   S    
C93   C95   S    
C100  H28   S    
C112  H70   S    
C72   H24   S    
N5    Ni5   S    
C68   C85   A    
C20   C35   A    
C13   C25   A    
C110  H65   S    
C42   C44   A    
C8    H8    S    
N17   N20   A    
N5    N16   A    
C63   N23   A    
C92   C97   S    
C71   H23   S    
C115  H84   S    
N32   Ni5   S    
C39   H39   S    
C30   C76   S    
C4    C76   A    
C102  H45   S    
N21   Ni7   S    
N7    N14   A    
C13   C30   A    
C15   C32   A    
C53   C80   A    
N22   Ni8   S    
C106  H55   S    
C10   C89   S    
C15   C105  S    
C52   C73   A    
N6    N15   A    
C63   C84   A    
C55   C78   A    
C17   C109  S    
C95   C100  S    
C33   C79   S    
C116  H82   S    
C99   H27   S    
C71   N31   A    
C67   N27   A    
C115  C116  S    
C21   C29   A    
C35   C77   S    
C69   N29   A    
C17   C21   A    
C56   C77   A    
C48   C84   S    
C51   C74   A    
C65   N25   A    
C94   F14   S    
C55   F7    S    
C111  H73   S    
N30   Ni7   S    
C19   C23   A    
C105  C106  S    
C24   C32   A    
C64   C83   A    
C41   H41   S    
C109  C110  S    
C60   H12   S    
C9    C86   S    
C54   N14   A    
C91   F11   S    
C60   C81   A    
C70   H22   S    
C15   C27   A    
C90   F10   S    
C69   H21   S    
C11   C88   S    
C44   H44   S    
C89   F9    S    
C104  H50   S    
C101  H49   S    
C49   C76   A    
C23   H31   S    
C37   H37   S    
C14   C26   A    
C110  H66   S    
C70   N30   A    
C21   H29   S    
C29   C75   S    
N31   Ni6   S    
C7    N7    A    
C11   C94   S    
C97   H25   S    
C62   N22   A    
C116  H81   S    
N21   N24   A    
N24   Ni6   S    
C112  H71   S    
C61   H13   S    
N22   N23   A    
C64   N24   A    
N25   N28   A    
C7    H7    S    
C12   C93   S    
N10   Ni1   S    
N8    Ni8   S    
N4    N9    A    
C14   C29   A    
C5    C77   A    
C50   F2    S    
C1    H1    S    
C72   C87   A    
C25   H33   S    
N11   Ni4   S    
C7    C79   A    
N18   N19   A    
N29   N32   A    
C3    H3    S    
C115  H83   S    
C96   F16   S    
C62   C84   A    
N9    Ni2   S    
C104  H51   S    
C67   C86   A    
C9    C97   S    
N25   Ni4   S    
C12   C87   S    
N13   Ni6   S    
C58   H10   S    
C66   N26   A    
C45   C81   S    
C103  H54   S    
C92   F12   S    
C91   C98   S    
C2    C74   A    
C16   C107  S    
C66   C86   A    
C108  H61   S    
C4    H4    S    
N7    Ni7   S    
C20   C115  S    
C61   C83   A    
C52   N12   A    
C52   F4    S    
C6    C78   A    
N19   Ni1   S    
C53   N13   A    
C114  H77   S    
N26   Ni3   S    
C28   H36   S    
C27   C35   A    
C18   C22   A    
C90   C92   S    
C37   C46   A    
C27   H35   S    
N14   Ni5   S    
C37   C39   A    
C65   C85   A    
C22   C30   A    
C105  H58   S    
C68   H20   S    
C38   C40   A    
C57   N17   A    
C68   N28   A    
C17   C34   A    
N23   Ni5   S    
C53   F5    S    
C107  H63   S    
C50   N10   A    
C93   F13   S    
C40   H40   S    
C89   C91   S    
C60   N20   A    
C41   C48   A    
C114  H76   S    
C54   F6    S    
N8    N13   A    
C9    C90   S    
C57   C81   A    
C42   C47   A    
C72   N32   A    
C94   C100  S    
C107  C108  S    
C18   C33   A    
C109  H69   S    
C12   C100  S    
C51   F3    S    
C54   C79   A    
C71   C88   A    
C6    N6    A    
N3    Ni3   S    
C98   H26   S    
C49   F1    S    
C28   C36   A    
C56   N16   A    
C113  H78   S    
C66   H18   S    
C112  H72   S    
N1    Ni1   S    
C8    C80   A    
C59   N19   A    
C65   H17   S    
C12   C96   S    
C36   C78   S    
C38   H38   S    
C95   F15   S    
C50   C75   A    
C43   C47   A    
C90   C98   S    
C22   H30   S    
C44   C48   A    
N4    Ni4   S    
C25   C33   A    
C6    H6    S    
C23   C31   A    
C58   N18   A    
