data_mof_unit_67565.cif
_audit_creation_date              2013-03-05T15:41:21-0500
_audit_creation_method            fapswitch 2.2
_symmetry_space_group_name_H-M    P1
_symmetry_Int_Tables_number       1
_space_group_crystal_system       triclinic
_cell_length_a                    10.573855
_cell_length_b                    8.743805
_cell_length_c                    7.539538
_cell_angle_alpha                 103.25694
_cell_angle_beta                  95.153347
_cell_angle_gamma                 93.244591
_cell_volume                      673.608957779

loop_
_atom_site_label
_atom_site_type_symbol
_atom_site_description
_atom_site_fract_x
_atom_site_fract_y
_atom_site_fract_z
_atom_type_partial_charge
O1    O     O_R   0.509190 0.286130 0.619780 -0.543385
O2    O     O_R   0.490810 0.713870 0.380220 -0.540391
O3    O     O_R   0.485310 0.256770 0.308360 -0.579258
O4    O     O_R   0.514690 0.743230 0.691640 -0.561792
C1    C     C_R   0.493297 0.200368 0.453701 0.752935
C2    C     C_R   0.505861 0.799548 0.545871 0.786387
O5    O     O_R   0.328790 0.514640 0.655680 -0.582314
O6    O     O_R   0.671210 0.485360 0.344320 -0.591784
O7    O     O_R   0.304910 0.485280 0.344260 -0.601170
O8    O     O_R   0.695090 0.514720 0.655740 -0.593838
C3    C     C_R   0.259543 0.499592 0.500256 0.746306
C4    C     C_R   0.740232 0.500315 0.499828 0.748447
Cu1   Cu    Cu3+1 0.514140 0.517380 0.684380 1.017305
Cu2   Cu    Cu3+1 0.485860 0.482620 0.315620 1.006009
N1    N     N_2   0.464560 0.456420 0.038510 -0.210564
N2    N     N_2   0.535440 0.543580 0.961490 -0.207733
C5    C     C_3   0.040980 0.383660 0.574036 -0.171944
C6    C     C_3   0.958052 0.616034 0.426257 -0.155304
C7    C     C_3   0.944339 0.360623 0.401655 -0.209428
C8    C     C_3   0.054507 0.639690 0.599054 -0.184500
H1    H     H_    0.892675 0.247984 0.323522 0.139306
H2    H     H_    0.102721 0.753876 0.679370 0.135524
H3    H     H_    0.080191 0.288196 0.631234 0.141734
H4    H     H_    0.916682 0.707175 0.363930 0.141490
C9    C     C_3   0.877100 0.500076 0.501022 0.036295
C10   C     C_3   0.122270 0.499966 0.499555 0.035765
C11   C     C_3   0.971134 0.523296 0.674116 -0.099836
C12   C     C_3   0.027972 0.476527 0.326437 -0.098587
H5    H     H_    0.945598 0.542207 0.816712 0.182447
H6    H     H_    0.053445 0.457775 0.183837 0.185356
C13   C     C_2   0.476771 0.032159 0.430222 0.197081
C14   C     C_2   0.522614 0.967067 0.567212 0.189903
C15   C     C_2   0.347340 0.383822 0.943572 1.119257
O9    O     O_2   0.251122 0.454789 0.960343 -0.646570
O10   O     O_R   0.339182 0.225491 0.850022 -0.760668
H7    H     H_    0.248887 0.183533 0.798189 0.278446
C16   C     C_2   0.651980 0.617742 0.057409 1.121604
O11   O     O_2   0.749154 0.548787 0.040377 -0.659117
O12   O     O_R   0.658208 0.775392 0.153052 -0.753713
H8    H     H_    0.747579 0.818116 0.209015 0.270595
O13   O     O_3   0.418648 0.938628 0.264174 -0.559662
C17   C     C_3   0.290885 0.973910 0.229679 0.127923
H9    H     H_    0.255187 0.907846 0.088164 0.184487
H10   H     H_    0.283167 0.100383 0.231294 0.141000
C18   C     C_3   0.204399 0.922176 0.361946 -0.407709
H11   H     H_    0.202478 0.792402 0.344187 0.245180
H12   H     H_    0.241201 0.979218 0.505861 0.201656
C19   C     C_3   0.069710 0.969661 0.327272 -0.975157
H13   H     H_    0.073261 0.094465 0.319328 0.256764
H14   H     H_    0.014442 0.957981 0.442417 0.249934
H15   H     H_    0.021348 0.894919 0.196720 0.270209
O14   O     O_3   0.585989 0.055680 0.730930 -0.559471
C20   C     C_3   0.718580 0.060032 0.716623 0.082109
H16   H     H_    0.745078 0.149538 0.639660 0.140413
H17   H     H_    0.749365 0.943563 0.645351 0.092133
C21   C     C_3   0.790050 0.105414 0.908828 -0.252864
H18   H     H_    0.756410 0.216502 0.987806 0.257769
H19   H     H_    0.770187 0.010727 0.981207 0.226120
C22   C     C_3   0.933314 0.128421 0.900602 -0.981102
H20   H     H_    0.968213 0.023669 0.810387 0.250024
H21   H     H_    0.984278 0.146373 0.039445 0.258355
H22   H     H_    0.955226 0.234621 0.848887 0.271587

loop_
_geom_bond_atom_site_label_1
_geom_bond_atom_site_label_2
_geom_bond_distance
_ccdc_geom_bond_type
C1    C13   1.439106 S    
C2    C14   1.435337 S    
O7    Cu2   1.945505 S    
O8    Cu1   1.945505 S    
C16   O11   1.222334 D    
C8    C11   1.544485 S    
O3    Cu2   1.962622 S    
C11   H5    1.109856 S    
C13   O13   1.396128 S    
O13   C17   1.417293 S    
N2    C16   1.412934 S    
C10   C12   1.536300 S    
C13   C14   1.355198 D    
C21   C22   1.525520 S    
C4    C9    1.446562 S    
O6    C4    1.299837 A    
O3    C1    1.298880 A    
C12   H6    1.109744 S    
C15   O9    1.222588 D    
Cu1   N2    2.039219 S    
C6    C12   1.543357 S    
C22   H20   1.111472 S    
C16   O12   1.396346 S    
C5    H3    1.107601 S    
Cu1   Cu2   2.713771 S    
C21   H18   1.111964 S    
O5    C3    1.300326 A    
C7    C12   1.543670 S    
O7    C3    1.292177 A    
O2    C2    1.291539 A    
C6    C9    1.526114 S    
C17   H10   1.110824 S    
O1    C1    1.294507 A    
C5    C10   1.529066 S    
O8    C4    1.290430 A    
C19   H14   1.109354 S    
C19   H13   1.105261 S    
C7    H1    1.109352 S    
C8    H2    1.110442 S    
C6    C8    1.547289 S    
C20   H17   1.117931 S    
O2    Cu2   1.964747 S    
C6    H4    1.105241 S    
C22   H21   1.106605 S    
C9    C11   1.534771 S    
C17   H9    1.111242 S    
C7    C9    1.525913 S    
N1    N2    1.302394 D    
C5    C11   1.544399 S    
C18   H11   1.110475 S    
O5    Cu1   1.950534 S    
O1    Cu1   1.964746 S    
O14   C20   1.414815 S    
O4    C2    1.301556 A    
C18   H12   1.109732 S    
C20   C21   1.527793 S    
O12   H8    1.013271 S    
Cu2   N1    2.039219 S    
C5    C7    1.546596 S    
C22   H22   1.107211 S    
O6    Cu2   1.950536 S    
O10   H7    1.013138 S    
C18   C19   1.522778 S    
C3    C10   1.451236 S    
C15   O10   1.396149 S    
C20   H16   1.113719 S    
N1    C15   1.412352 S    
C19   H15   1.110934 S    
C14   O14   1.388172 S    
O4    Cu1   1.962623 S    
C21   H19   1.111520 S    
C8    C10   1.531030 S    
C17   C18   1.535998 S    
