data_mof_unit_50346.cif
_audit_creation_date              2012-12-11T17:08:26-0500
_audit_creation_method            fapswitch 2.2
_symmetry_space_group_name_H-M    P1
_symmetry_Int_Tables_number       1
_space_group_crystal_system       triclinic
_cell_length_a                    7.006917
_cell_length_b                    14.54882
_cell_length_c                    16.06291
_cell_angle_alpha                 90.08841
_cell_angle_beta                  89.841029
_cell_angle_gamma                 90.219541
_cell_volume                      1637.47093542

loop_
_atom_site_label
_atom_site_type_symbol
_atom_type_description
_atom_site_fract_x
_atom_site_fract_y
_atom_site_fract_z
_atom_type_partial_charge
O1    O     O_R   0.505700 0.583890 0.413310 -0.514780
O2    O     O_R   0.175960 0.594920 0.586080 -0.546502
O3    O     O_R   0.005660 0.416110 0.586690 -0.539021
C1    C     C_R   0.344705 0.616658 0.614844 0.683970
O4    O     O_R   0.175980 0.594920 0.413930 -0.547743
O5    O     O_R   0.005680 0.416110 0.413310 -0.538763
C2    C     C_R   0.345080 0.615371 0.384050 0.732258
O6    O     O_R   0.505680 0.583890 0.586690 -0.541492
O7    O     O_3   0.339200 0.441330 0.500000 -0.377371
V1    V     V_3+5 0.064350 0.510880 0.500000 1.424010
O8    O     O_R   0.675960 0.405080 0.413920 -0.527127
C3    C     C_R   0.845065 0.382155 0.386068 0.777558
O9    O     O_R   0.675940 0.405080 0.586070 -0.550715
C4    C     C_R   0.844393 0.383211 0.614778 0.680328
V2    V     V_3+5 0.564340 0.489120 0.500000 1.449937
O10   O     O_3   0.839360 0.558670 0.500000 -0.375027
C5    C     C_R   0.018392 0.261778 0.695954 0.023198
C6    C     C_R   0.853110 0.313077 0.681747 -0.099704
C7    C     C_R   0.698653 0.298806 0.736332 -0.168108
H1    H     H_    0.573349 0.340835 0.730487 0.167371
C8    C     C_R   0.711272 0.235926 0.802921 -0.096205
H2    H     H_    0.595208 0.229504 0.846462 0.190587
C9    C     C_R   0.879275 0.186756 0.818118 -0.064432
C10   C     C_R   0.033150 0.203455 0.764802 -0.034033
C11   C     C_3   0.227278 0.239553 0.785153 0.298959
C12   C     C_3   0.215565 0.297426 0.706727 -0.465765
H3    H     H_    0.334615 0.183934 0.781849 0.023669
H4    H     H_    0.310602 0.272701 0.655950 0.138585
H5    H     H_    0.220671 0.373001 0.717143 0.195005
C13   C     C_R   0.725351 0.245695 0.190655 0.157859
C14   C     C_R   0.882261 0.187259 0.181391 -0.114586
C15   C     C_R   0.035065 0.199246 0.237237 -0.167137
H6    H     H_    0.158885 0.155567 0.232715 0.130492
C16   C     C_R   0.023360 0.262923 0.303331 -0.199605
H7    H     H_    0.139771 0.267368 0.347187 0.132009
C17   C     C_R   0.857716 0.315834 0.316001 -0.125999
C18   C     C_R   0.713147 0.308000 0.256368 0.258222
C19   C     C_3   0.505278 0.290375 0.267797 -0.427000
C20   C     C_3   0.518453 0.222760 0.195832 -0.425028
H8    H     H_    0.417739 0.351834 0.253274 0.224374
H9    H     H_    0.473604 0.256922 0.328475 0.148078
H10   H     H_    0.439218 0.245368 0.139647 0.236877
H11   H     H_    0.493513 0.150175 0.214660 0.152904
C21   C     C_R   0.506709 0.683045 0.741228 0.143120
C22   C     C_R   0.352576 0.681913 0.685796 -0.115213
C23   C     C_R   0.200916 0.742585 0.702399 -0.180957
H12   H     H_    0.078149 0.743898 0.661895 0.133743
C24   C     C_R   0.212112 0.806814 0.767971 -0.178413
H13   H     H_    0.096988 0.855317 0.776088 0.124696
C25   C     C_R   0.375638 0.812576 0.818772 -0.113631
C26   C     C_R   0.518224 0.746844 0.805867 0.150513
C27   C     C_3   0.727451 0.759711 0.793586 -0.416940
C28   C     C_3   0.715019 0.689795 0.723413 -0.411391
H14   H     H_    0.811255 0.735099 0.847758 0.201924
H15   H     H_    0.763228 0.830174 0.771759 0.155669
H16   H     H_    0.790961 0.624632 0.737191 0.186043
H17   H     H_    0.744327 0.719528 0.660938 0.162971
C29   C     C_R   0.521931 0.733644 0.299058 -0.020346
C30   C     C_R   0.355560 0.683878 0.315523 -0.096549
C31   C     C_R   0.199512 0.700708 0.263674 -0.156305
H18   H     H_    0.076847 0.657359 0.269404 0.180463
C32   C     C_R   0.209237 0.766226 0.199214 -0.129233
H19   H     H_    0.090779 0.772264 0.156768 0.147751
C33   C     C_R   0.376220 0.818336 0.185572 -0.050295
C34   C     C_R   0.529547 0.803901 0.239683 0.012268
C35   C     C_3   0.728923 0.781097 0.216024 -0.445050
C36   C     C_3   0.711973 0.698073 0.272536 0.335774
H20   H     H_    0.829980 0.834007 0.239741 0.115224
H21   H     H_    0.745492 0.764971 0.148685 0.227550
H22   H     H_    0.811634 0.696879 0.326002 0.026736
O11   O     O_R   0.229000 0.916070 0.913330 -0.545177
O12   O     O_R   0.558770 0.905070 0.086080 -0.541006
O13   O     O_R   0.729000 0.083900 0.086690 -0.541612
C37   C     C_R   0.389438 0.883739 0.115063 0.685145
O14   O     O_R   0.558720 0.905070 0.913930 -0.543368
O15   O     O_R   0.728960 0.083900 0.913310 -0.549258
C38   C     C_R   0.389658 0.883098 0.885315 0.690187
O16   O     O_R   0.229050 0.916070 0.086710 -0.552248
O17   O     O_3   0.395460 0.058650 0.000020 -0.346643
V3    V     V_3+5 0.670340 0.989120 0.000000 1.440423
O18   O     O_R   0.058670 0.094960 0.913900 -0.516099
C39   C     C_R   0.890042 0.118416 0.886540 0.730684
O19   O     O_R   0.058720 0.094960 0.086050 -0.529004
C40   C     C_R   0.890092 0.116838 0.114703 0.724229
V4    V     V_3+5 0.170330 0.010930 0.999970 1.496946
O20   O     O_3   0.895340 0.941350 0.999980 -0.382616
S1    S     S_3+6 0.696112 0.593651 0.211710 0.005134
O21   O     O_2   0.879681 0.576956 0.165696 -0.309355
O22   O     O_2   0.657483 0.513602 0.267883 -0.370155
O23   O     O_3   0.519238 0.602138 0.141382 -0.468698
H23   H     H_    0.415511 0.561715 0.162119 0.371774
S2    S     S_3+6 0.234100 0.309922 0.878174 0.025163
O24   O     O_2   0.275204 0.250781 0.952477 -0.301858
O25   O     O_2   0.389004 0.381224 0.870801 -0.332097
O26   O     O_3   0.024563 0.363609 0.893311 -0.454242
H24   H     H_    0.015594 0.408854 0.847490 0.343523

loop_
_geom_bond_atom_site_label_1
_geom_bond_atom_site_label_2
_ccdc_geom_bond_type
C35   H20   S    
S1    O21   D    
C9    C39   S    
C4    C6    S    
O26   H24   S    
O11   C38   A    
C1    O6    A    
O18   C39   A    
V4    O20   S    
C21   C22   A    
C32   H19   S    
C5    C12   S    
C17   C18   A    
C7    C8    A    
C16   H7    S    
O5    C3    A    
C19   C20   S    
C35   H21   S    
V2    O10   S    
C31   C32   A    
C6    C7    A    
V3    O20   S    
O11   V4    S    
O8    V2    S    
C21   C28   S    
C14   C15   A    
C32   C33   A    
C9    C10   A    
O1    V2    S    
C3    C17   S    
O14   V3    S    
O13   C40   A    
C27   H15   S    
C24   C25   A    
C35   C36   S    
C30   C31   A    
O9    C4    A    
C2    C30   S    
C27   H14   S    
C25   C26   A    
C20   H10   S    
C1    C22   S    
C23   C24   A    
C5    C10   A    
C26   C27   S    
C10   C11   S    
C19   H9    S    
O12   C37   A    
O15   C39   A    
O4    C2    A    
C28   H17   S    
C20   H11   S    
C29   C30   A    
C22   C23   A    
S2    O26   S    
C14   C40   S    
C13   C18   A    
C31   H18   S    
C15   C16   A    
O2    C1    A    
C18   C19   S    
C29   C34   A    
O19   C40   A    
S2    O25   D    
C5    C6    A    
O14   C38   A    
O3    C4    A    
O16   V4    S    
C24   H13   S    
O19   V4    S    
O6    V2    S    
C8    C9    A    
O2    V1    S    
C25   C38   S    
O17   V4    S    
C27   C28   S    
C21   C26   A    
O7    V1    S    
C28   H16   S    
C23   H12   S    
C11   S2    S    
O1    C2    A    
C36   S1    S    
O15   V3    S    
O5    V1    S    
O8    C3    A    
C11   H3    S    
C12   H4    S    
C36   H22   S    
C15   H6    S    
C7    H1    S    
O9    V2    S    
C11   C12   S    
O4    V1    S    
O12   V3    S    
O3    V1    S    
V1    O10   S    
C33   C34   A    
C19   H8    S    
O23   H23   S    
C13   C14   A    
S2    O24   D    
O13   V3    S    
C13   C20   S    
C16   C17   A    
O7    V2    S    
O17   V3    S    
C29   C36   S    
C12   H5    S    
C34   C35   S    
C37   O16   A    
S1    O23   S    
S1    O22   D    
C33   C37   S    
C8    H2    S    
O18   V4    S    
