data_mof_unit_6841.cif
_audit_creation_date              2013-03-05T16:00:02-0500
_audit_creation_method            fapswitch 2.2
_symmetry_space_group_name_H-M    P1
_symmetry_Int_Tables_number       1
_space_group_crystal_system       triclinic
_cell_length_a                    20.900616
_cell_length_b                    21.779254
_cell_length_c                    14.924756
_cell_angle_alpha                 90.20534
_cell_angle_beta                  130.642687
_cell_angle_gamma                 89.70174
_cell_volume                      5154.93128357

loop_
_atom_site_label
_atom_site_type_symbol
_atom_site_description
_atom_site_fract_x
_atom_site_fract_y
_atom_site_fract_z
_atom_type_partial_charge
O1    O     O_R   0.600040 0.935040 0.546740 -0.576140
O2    O     O_R   0.399960 0.064960 0.453260 -0.575872
O3    O     O_R   0.399960 0.935040 0.453260 -0.583029
O4    O     O_R   0.600040 0.064960 0.546740 -0.581768
O5    O     O_R   0.100040 0.435040 0.546740 -0.580005
O6    O     O_R   0.899960 0.564960 0.453260 -0.574894
O7    O     O_R   0.899960 0.435040 0.453260 -0.581042
O8    O     O_R   0.100040 0.564960 0.546740 -0.579288
O9    O     O_R   0.555010 0.935070 0.653220 -0.532940
O10   O     O_R   0.444990 0.064930 0.346780 -0.532526
O11   O     O_R   0.444990 0.935070 0.346780 -0.522659
O12   O     O_R   0.555010 0.064930 0.653220 -0.524685
O13   O     O_R   0.055010 0.435070 0.653220 -0.540170
O14   O     O_R   0.944990 0.564930 0.346780 -0.524639
O15   O     O_R   0.944990 0.435070 0.346780 -0.533974
O16   O     O_R   0.055010 0.564930 0.653220 -0.518439
C1    C     C_R   0.598673 0.910780 0.625934 0.849729
C2    C     C_R   0.400310 0.088588 0.372648 0.858756
C3    C     C_R   0.398896 0.912394 0.370593 0.854834
C4    C     C_R   0.602388 0.086896 0.631013 0.856807
C5    C     C_R   0.100117 0.411821 0.628025 0.850086
C6    C     C_R   0.897755 0.586949 0.369100 0.857692
C7    C     C_R   0.902297 0.410391 0.375030 0.848541
C8    C     C_R   0.099189 0.588686 0.626962 0.861908
Cu1   Cu    Cu3+1 0.526640 1.000000 0.436960 1.091678
Cu2   Cu    Cu3+1 0.473360 0.000000 0.563040 1.090532
Cu3   Cu    Cu3+1 0.026640 0.500000 0.436960 1.088915
Cu4   Cu    Cu3+1 0.973360 0.500000 0.563040 1.091970
C9    C     C_R   0.664695 0.135643 0.709624 -0.213542
C10   C     C_R   0.341274 0.860565 0.297906 -0.218564
C11   C     C_R   0.349423 0.144831 0.308993 -0.221178
C12   C     C_R   0.646766 0.852793 0.684687 -0.226527
C13   C     C_R   0.148899 0.645251 0.688923 -0.224352
C14   C     C_R   0.854946 0.352257 0.316977 -0.226835
C15   C     C_R   0.837446 0.636895 0.291815 -0.216036
C16   C     C_R   0.152521 0.356796 0.694138 -0.222166
C17   C     C_R   0.790396 0.195557 0.790115 0.245598
C18   C     C_R   0.227952 0.790038 0.233452 0.238706
C19   C     C_R   0.260721 0.231464 0.274620 0.250056
C20   C     C_R   0.741979 0.770706 0.722119 0.256594
C21   C     C_R   0.241777 0.728302 0.725314 0.256026
C22   C     C_R   0.749513 0.276943 0.266081 0.261836
C23   C     C_R   0.721697 0.706600 0.222837 0.238443
C24   C     C_R   0.248953 0.274843 0.737491 0.253119
C25   C     C_R   0.719505 0.161811 0.695508 0.237487
C26   C     C_R   0.292285 0.830802 0.319139 0.241499
C27   C     C_R   0.313077 0.181021 0.344593 0.247742
C28   C     C_R   0.689470 0.821194 0.653982 0.258130
C29   C     C_R   0.187861 0.678926 0.654934 0.252333
C30   C     C_R   0.805937 0.324312 0.340113 0.258812
C31   C     C_R   0.787859 0.667617 0.311453 0.238158
C32   C     C_R   0.193350 0.322732 0.663506 0.251654
C33   C     C_R   0.671347 0.154545 0.804699 -0.121580
C34   C     C_R   0.335269 0.840786 0.203785 -0.125904
C35   C     C_R   0.341716 0.164550 0.213784 -0.139578
C36   C     C_R   0.646938 0.827210 0.770380 -0.132016
C37   C     C_R   0.154504 0.667348 0.781551 -0.123346
C38   C     C_R   0.859760 0.323659 0.237573 -0.121288
C39   C     C_R   0.829125 0.653521 0.194216 -0.121731
C40   C     C_R   0.159583 0.337364 0.789035 -0.135887
C41   C     C_R   0.734136 0.195110 0.891025 0.058672
C42   C     C_R   0.277035 0.796442 0.123214 0.063086
C43   C     C_R   0.293204 0.215915 0.145831 0.069186
C44   C     C_R   0.695188 0.774988 0.835336 0.075179
C45   C     C_R   0.201735 0.719505 0.846056 0.065965
C46   C     C_R   0.807144 0.274254 0.166448 0.077033
C47   C     C_R   0.770156 0.697309 0.111984 0.060050
C48   C     C_R   0.211358 0.288125 0.861439 0.072948
C49   C     C_R   0.801334 0.207253 0.893281 -0.100180
C50   C     C_R   0.214882 0.778096 0.128723 -0.093630
C51   C     C_R   0.243155 0.244653 0.166839 -0.075706
C52   C     C_R   0.750345 0.750275 0.819881 -0.098442
C53   C     C_R   0.254128 0.745921 0.827641 -0.096830
C54   C     C_R   0.745501 0.254794 0.172816 -0.105680
C55   C     C_R   0.707906 0.716252 0.117105 -0.093357
C56   C     C_R   0.263774 0.260647 0.843154 -0.089206
C57   C     C_R   0.735872 0.218054 0.981866 -0.027380
C58   C     C_R   0.273861 0.775579 0.029951 -0.025842
C59   C     C_R   0.288197 0.235530 0.050666 -0.021073
C60   C     C_R   0.694198 0.749491 0.922057 -0.025188
C61   C     C_R   0.201716 0.743596 0.934408 -0.032851
C62   C     C_R   0.809925 0.246518 0.082226 -0.025018
C63   C     C_R   0.766688 0.717476 0.018198 -0.027084
C64   C     C_R   0.216659 0.269192 0.957511 -0.018298
C65   C     C_R   0.339553 0.786885 0.027092 0.275970
C66   C     C_R   0.666023 0.212315 0.976612 0.273098
C67   C     C_R   0.622916 0.753949 0.914519 0.261178
C68   C     C_R   0.351535 0.220821 0.044573 0.257876
C69   C     C_R   0.883945 0.244698 0.096112 0.256869
C70   C     C_R   0.130709 0.738576 0.927230 0.276649
C71   C     C_R   0.153513 0.283764 0.964479 0.243823
C72   C     C_R   0.833098 0.706381 0.016615 0.272673
C73   C     C_R   0.319914 0.785145 0.917038 -0.140757
C74   C     C_R   0.679904 0.216601 0.081699 -0.139316
C75   C     C_R   0.630558 0.738448 0.012724 -0.130465
C76   C     C_R   0.332522 0.224181 0.935247 -0.141824
C77   C     C_R   0.879259 0.225471 0.001535 -0.127338
C78   C     C_R   0.138323 0.754134 0.025556 -0.120308
C79   C     C_R   0.173125 0.280485 0.074542 -0.137499
C80   C     C_R   0.814976 0.709712 0.907841 -0.146073
H1    H     H_    0.374365 0.862574 0.190707 0.245639
H2    H     H_    0.628765 0.135039 0.813611 0.244464
H3    H     H_    0.611406 0.850148 0.789565 0.223701
H4    H     H_    0.371429 0.137350 0.189714 0.224665
H5    H     H_    0.902440 0.342460 0.227888 0.223433
H6    H     H_    0.123937 0.642362 0.806631 0.242551
H7    H     H_    0.126762 0.363436 0.809311 0.221360
H8    H     H_    0.866823 0.629840 0.179523 0.240497
N1    N     N_R   0.433280 0.000000 0.657760 -0.269642
N2    N     N_R   0.566720 1.000000 0.342240 -0.269616
N3    N     N_R   0.933280 0.500000 0.657760 -0.268250
N4    N     N_R   0.066720 0.500000 0.342240 -0.266802
C81   C     C_R   0.315314 0.996291 0.650277 0.251679
C82   C     C_R   0.681528 0.005256 0.342976 0.242533
C83   C     C_R   0.820122 0.481905 0.657444 0.241429
C84   C     C_R   0.185174 0.491687 0.350728 0.253462
C85   C     C_R   0.348383 0.996065 0.593871 0.018672
C86   C     C_R   0.650985 0.004690 0.403062 0.007900
C87   C     C_R   0.849505 0.492262 0.597162 0.010114
C88   C     C_R   0.151739 0.496316 0.406638 0.008978
C89   C     C_R   0.488822 0.002593 0.779714 0.485565
C90   C     C_R   0.508982 0.996758 0.219981 0.502135
C91   C     C_R   0.990689 0.501777 0.780497 0.491256
C92   C     C_R   0.011604 0.499324 0.219688 0.484103
C93   C     C_R   0.458588 0.995457 0.841692 -0.115143
C94   C     C_R   0.535912 0.004037 0.153927 -0.105442
C95   C     C_R   0.966095 0.484029 0.846807 -0.095470
C96   C     C_R   0.041977 0.485494 0.158866 -0.114749
C97   C     C_R   0.370553 0.998602 0.774137 -0.012049
C98   C     C_R   0.623908 0.000845 0.218908 -0.015027
C99   C     C_R   0.878657 0.475172 0.781392 -0.008379
C100  C     C_R   0.130232 0.485310 0.227084 0.001220
C101  C     C_R   0.512425 0.991163 0.968668 0.076211
C102  C     C_R   0.479690 0.006395 0.025783 0.090472
C103  C     C_R   0.023111 0.478047 0.975229 0.087000
C104  C     C_R   0.988480 0.474789 0.032521 0.071209
C105  C     C_R   0.392406 0.022363 0.950650 -0.019355
C106  C     C_R   0.597118 0.970563 0.041165 -0.023745
C107  C     C_R   0.904120 0.454037 0.961965 -0.023860
C108  C     C_R   0.112170 0.469682 0.050315 -0.025982
C109  C     C_R   0.338908 0.010393 0.830407 -0.129120
C110  C     C_R   0.652980 0.982946 0.161161 -0.085770
C111  C     C_R   0.850467 0.456571 0.839733 -0.076657
C112  C     C_R   0.163296 0.475183 0.172111 -0.095322
H9    H     H_    0.271790 0.017777 0.778516 0.202018
H10   H     H_    0.718679 0.970351 0.211961 0.200907
H11   H     H_    0.785960 0.441260 0.789451 0.201050
H12   H     H_    0.230674 0.468355 0.225350 0.205380
C113  C     C_1   0.368604 0.822528 0.900684 0.494794
N5    N     N_1   0.407497 0.853012 0.888216 -0.183507
C114  C     C_1   0.632734 0.177063 0.097508 0.500307
N6    N     N_1   0.596933 0.144367 0.112288 -0.162727
C115  C     C_1   0.554730 0.730845 0.996248 0.466645
N7    N     N_1   0.494557 0.723189 0.983539 -0.187155
C116  C     C_1   0.385354 0.190894 0.921477 0.431429
N8    N     N_1   0.426141 0.162875 0.909047 -0.154894
C117  C     C_1   0.956642 0.209412 0.025962 0.457572
N9    N     N_1   0.018167 0.195108 0.045800 -0.202774
C118  C     C_1   0.062498 0.759499 0.009882 0.477972
N10   N     N_1   0.002138 0.765095 0.997575 -0.175177
C119  C     C_1   0.115243 0.308424 0.084849 0.430087
N11   N     N_1   0.068808 0.331464 0.092191 -0.200444
C120  C     C_1   0.863317 0.671755 0.890792 0.503475
N12   N     N_1   0.901708 0.640625 0.877642 -0.138554
C121  C     C_1   0.353183 0.058119 0.984439 0.364515
N13   N     N_1   0.317274 0.086703 0.004778 -0.251881
C122  C     C_1   0.626708 0.927286 0.002197 0.385709
N14   N     N_1   0.652777 0.892098 0.974913 -0.249156
C123  C     C_1   0.873423 0.418094 0.007535 0.373574
N15   N     N_1   0.846082 0.388593 0.039646 -0.250784
C124  C     C_1   0.155371 0.441668 0.015396 0.360265
N16   N     N_1   0.194632 0.419008 0.994777 -0.240372
N17   N     N_R   0.311594 0.838023 0.430123 0.163944
O17   O     O_R   0.386418 0.824141 0.527838 -0.236772
O18   O     O_R   0.255479 0.859360 0.434503 -0.242187
N18   N     N_R   0.699551 0.158772 0.583423 0.157603
O19   O     O_R   0.625457 0.176127 0.488033 -0.238959
O20   O     O_R   0.755752 0.141657 0.576217 -0.244605
N19   N     N_R   0.677594 0.838194 0.551198 0.160569
O21   O     O_R   0.604669 0.830006 0.446614 -0.241657
O22   O     O_R   0.740778 0.857530 0.561229 -0.251402
N20   N     N_R   0.333403 0.169610 0.455145 0.172634
O23   O     O_R   0.409058 0.180565 0.553684 -0.239441
O24   O     O_R   0.278418 0.144113 0.457573 -0.255274
N21   N     N_R   0.813816 0.342608 0.439456 0.148847
O25   O     O_R   0.885466 0.335248 0.545961 -0.246553
O26   O     O_R   0.747353 0.357702 0.425083 -0.242681
N22   N     N_R   0.170118 0.665462 0.546470 0.163403
O27   O     O_R   0.094402 0.673779 0.446045 -0.241430
O28   O     O_R   0.230004 0.647692 0.547295 -0.249379
N23   N     N_R   0.175796 0.334258 0.554790 0.166125
O29   O     O_R   0.099558 0.327718 0.454803 -0.257223
O30   O     O_R   0.235633 0.350802 0.555090 -0.232090
N24   N     N_R   0.807780 0.662740 0.423078 0.169005
O31   O     O_R   0.881315 0.680064 0.519152 -0.229485
O32   O     O_R   0.754743 0.637958 0.430137 -0.251955
N25   N     N_R   0.281352 0.760626 0.689583 0.143572
O33   O     O_R   0.248030 0.811314 0.629633 -0.224138
O34   O     O_R   0.344984 0.736152 0.705523 -0.219193
N26   N     N_R   0.693980 0.254379 0.283329 0.145158
O35   O     O_R   0.722825 0.217817 0.371272 -0.189048
O36   O     O_R   0.618439 0.277315 0.222195 -0.252776
N27   N     N_R   0.675166 0.741723 0.245564 0.162042
O37   O     O_R   0.669412 0.801075 0.232272 -0.286202
O38   O     O_R   0.631985 0.714358 0.268318 -0.193809
N28   N     N_R   0.286435 0.239646 0.700765 0.147312
O39   O     O_R   0.254433 0.186880 0.649140 -0.235158
O40   O     O_R   0.349139 0.261820 0.712280 -0.199762
N29   N     N_R   0.845310 0.223922 0.776181 0.165902
O41   O     O_R   0.855820 0.283142 0.787512 -0.278878
O42   O     O_R   0.894461 0.190314 0.770996 -0.225423
N30   N     N_R   0.182713 0.755683 0.258577 0.162117
O43   O     O_R   0.181877 0.695994 0.253694 -0.244696
O44   O     O_R   0.134420 0.783629 0.272245 -0.200324
N31   N     N_R   0.232603 0.271871 0.319156 0.149804
O45   O     O_R   0.254386 0.329411 0.338099 -0.285511
O46   O     O_R   0.190599 0.250722 0.348818 -0.174559
N32   N     N_R   0.785949 0.741076 0.690294 0.141766
O47   O     O_R   0.752587 0.693723 0.620324 -0.218093
O48   O     O_R   0.853595 0.765808 0.718914 -0.230702
N33   N     N_R   0.426816 0.787462 0.135182 0.141986
O49   O     O_R   0.450371 0.753036 0.223331 -0.248599
O50   O     O_R   0.484788 0.814936 0.141541 -0.259952
N34   N     N_R   0.581090 0.215835 0.865112 0.136594
O51   O     O_R   0.520257 0.185199 0.846418 -0.264122
O52   O     O_R   0.563409 0.253216 0.783709 -0.250046
N35   N     N_R   0.540674 0.766692 0.803347 0.125855
O53   O     O_R   0.513482 0.736155 0.709311 -0.238661
O54   O     O_R   0.492928 0.808733 0.795865 -0.301405
N36   N     N_R   0.437306 0.209859 0.151141 0.132447
O55   O     O_R   0.480699 0.163640 0.159721 -0.349895
O56   O     O_R   0.471476 0.245615 0.242065 -0.223213
N37   N     N_R   0.965325 0.254100 0.210156 0.121081
O57   O     O_R   0.986579 0.224490 0.301730 -0.248074
O58   O     O_R   0.018950 0.291226 0.222098 -0.285114
N38   N     N_R   0.048304 0.727157 0.815117 0.127533
O59   O     O_R   0.998286 0.687201 0.805955 -0.259451
O60   O     O_R   0.022179 0.758308 0.722343 -0.248668
N39   N     N_R   0.067108 0.293001 0.858195 0.131055
O61   O     O_R   0.033617 0.256332 0.768638 -0.226203
O62   O     O_R   0.021996 0.338014 0.849130 -0.346019
N40   N     N_R   0.919978 0.704993 0.125499 0.137754
O63   O     O_R   0.978048 0.676174 0.133135 -0.262465
O64   O     O_R   0.943311 0.740273 0.212795 -0.248622
N41   N     N_R   0.427114 0.970980 0.161373 0.107156
O65   O     O_R   0.373353 0.997770 0.165387 -0.355171
O66   O     O_R   0.400712 0.926208 0.086852 -0.404788
N42   N     N_R   0.572634 0.025812 0.842590 0.109420
O67   O     O_R   0.600094 0.070186 0.918203 -0.395057
O68   O     O_R   0.626093 0.997421 0.839773 -0.354307
N43   N     N_R   0.927451 0.523229 0.153309 0.108659
O69   O     O_R   0.898935 0.563301 0.070350 -0.383456
O70   O     O_R   0.874756 0.499034 0.161420 -0.349583
N44   N     N_R   0.069789 0.532334 0.840472 0.107081
O71   O     O_R   0.090320 0.577153 0.912700 -0.349758
O72   O     O_R   0.126703 0.510075 0.838565 -0.353188
C125  C     C_1   0.709661 0.004692 0.530358 0.539592
N45   N     N_1   0.757361 0.004387 0.632603 -0.214281
C126  C     C_1   0.290787 0.997691 0.466595 0.536007
N46   N     N_1   0.243744 0.999140 0.364390 -0.221175
C127  C     C_1   0.208911 0.499785 0.533770 0.528850
N47   N     N_1   0.255648 0.502452 0.635881 -0.214079
C128  C     C_1   0.790099 0.497328 0.470232 0.539634
N48   N     N_1   0.741895 0.501232 0.368278 -0.204622
N49   N     N_R   0.225600 0.996805 0.581153 0.110863
O73   O     O_R   0.182249 0.947306 0.526234 -0.229639
O74   O     O_R   0.186424 0.048552 0.559318 -0.253027
N50   N     N_R   0.770708 0.009385 0.407541 0.130158
O75   O     O_R   0.822913 0.970758 0.491981 -0.256856
O76   O     O_R   0.799610 0.051054 0.379823 -0.272306
N51   N     N_R   0.730895 0.479522 0.593136 0.123535
O77   O     O_R   0.683562 0.440227 0.507850 -0.233730
O78   O     O_R   0.696510 0.518009 0.617905 -0.272657
N52   N     N_R   0.275037 0.493334 0.419974 0.122658
O79   O     O_R   0.323131 0.451763 0.500113 -0.233647
O80   O     O_R   0.309089 0.538152 0.406593 -0.250610

loop_
_geom_bond_atom_site_label_1
_geom_bond_atom_site_label_2
_geom_bond_distance
_ccdc_geom_bond_type
C100  C112  1.391078 A    
N24   O32   1.299981 A    
C124  N16   1.155540 T    
C18   C50   1.423732 A    
C47   C63   1.424542 A    
C121  N13   1.154792 T    
C17   C49   1.423770 A    
O2    C2    1.314648 A    
C44   C60   1.422729 A    
C123  N15   1.154052 T    
C54   C74   1.412753 A    
C34   H1    1.069324 S    
C68   N36   1.443731 S    
C120  N12   1.157819 T    
C58   C61   1.412467 A    
C53   C73   1.419429 A    
C112  H12   1.085191 S    
C71   N39   1.443882 S    
N1    C89   1.382446 A    
N34   O51   1.298092 A    
N2    C86   1.361921 A    
C102  C105  1.427489 A    
C68   C76   1.407662 A    
C119  N11   1.157043 T    
N21   O25   1.301313 A    
C12   C28   1.415773 A    
C55   C75   1.410871 A    
N43   O69   1.300345 A    
C5    C16   1.482009 S    
C83   C99   1.411470 A    
N17   O17   1.300454 A    
C111  H11   1.084877 S    
C6    C15   1.484346 S    
C10   C34   1.393235 A    
O11   C3    1.323087 A    
C117  N9    1.157070 T    
C62   C69   1.421155 A    
C81   C97   1.404430 A    
C15   C39   1.398686 A    
C95   C99   1.417127 A    
C95   C103  1.461319 A    
N4    C92   1.388498 A    
C60   C67   1.421945 A    
N31   O46   1.300328 A    
C118  N10   1.156228 T    
C59   C64   1.412069 A    
C85   C126  1.442206 S    
C83   N51   1.438991 S    
N43   O70   1.298288 A    
C76   C116  1.439917 S    
C97   C109  1.388868 A    
O11   Cu1   1.934666 S    
C13   C29   1.416117 A    
N51   O77   1.300754 A    
O6    C6    1.318276 A    
C45   C53   1.416112 A    
N38   O59   1.300478 A    
C42   C50   1.413745 A    
N22   O28   1.300570 A    
C125  N45   1.157925 T    
C69   N37   1.435912 S    
N25   O34   1.300346 A    
C110  H10   1.084888 S    
N20   O23   1.300832 A    
C91   N44   1.434147 S    
N44   O72   1.299555 A    
C66   C74   1.399728 A    
C39   C47   1.400156 A    
O5    Cu3   1.938880 S    
C33   C41   1.401440 A    
C38   C46   1.406198 A    
C89   N42   1.438506 S    
O6    Cu4   1.938879 S    
N39   O61   1.301413 A    
C41   C57   1.421420 A    
N26   O35   1.300752 A    
C67   C75   1.409161 A    
C11   C35   1.391053 A    
N40   O64   1.301815 A    
C114  N6    1.156421 T    
C36   C44   1.404560 A    
O13   Cu4   1.928721 S    
O3    C3    1.313767 A    
N52   O79   1.301086 A    
C64   C71   1.423946 A    
O14   Cu3   1.928720 S    
C9    C33   1.393449 A    
N49   O73   1.300527 A    
N52   O80   1.301149 A    
O16   Cu4   1.934663 S    
C16   C32   1.409550 A    
C109  H9    1.084816 S    
C92   C96   1.436816 A    
C39   H8    1.074679 S    
C20   N32   1.430684 S    
C24   C32   1.407702 A    
O15   C7    1.326494 A    
C37   H6    1.077486 S    
C56   C76   1.416953 A    
C101  C106  1.416184 A    
O16   C8    1.323529 A    
C11   C27   1.413209 A    
N41   O65   1.298924 A    
O1    Cu1   1.938880 S    
C82   C98   1.408287 A    
N50   O75   1.301242 A    
N25   O33   1.300609 A    
C35   C43   1.401729 A    
C65   C73   1.410403 A    
C60   C63   1.415876 A    
C96   C100  1.411595 A    
C21   C29   1.411457 A    
C59   C68   1.419701 A    
N42   O68   1.298586 A    
O9    Cu2   1.928721 S    
O4    Cu1   1.941961 S    
C81   N49   1.435366 S    
C4    C9    1.488187 S    
N17   O18   1.299898 A    
Cu4   N3    2.059826 S    
C23   C55   1.423618 A    
C103  C108  1.426319 A    
O10   C2    1.322798 A    
C87   C128  1.441723 S    
C22   C54   1.421569 A    
C27   N20   1.432951 S    
N3    C91   1.390502 A    
N23   O29   1.299793 A    
C48   C64   1.426543 A    
C86   C125  1.441632 S    
C103  C104  1.437814 A    
C69   C77   1.411899 A    
C21   N25   1.430900 S    
C106  C110  1.385348 A    
C25   N18   1.437830 S    
C122  N14   1.154322 T    
N4    C88   1.364557 A    
C72   C80   1.408458 A    
N28   O39   1.300766 A    
C43   C59   1.421633 A    
C34   C42   1.399079 A    
C74   C114  1.443077 S    
C51   C79   1.420627 A    
C35   H4    1.072808 S    
O7    Cu4   1.941963 S    
C84   C88   1.397530 A    
C9    C25   1.415485 A    
N22   O27   1.301053 A    
O15   Cu3   1.934666 S    
C32   N23   1.434154 S    
C77   C117  1.448451 S    
C90   C94   1.427843 A    
N36   O56   1.301425 A    
N31   O45   1.301306 A    
N23   O30   1.300517 A    
C89   C93   1.429191 A    
N33   O49   1.301869 A    
C63   C72   1.422932 A    
C82   N50   1.439531 S    
C72   N40   1.447334 S    
C46   C62   1.427483 A    
N27   O38   1.300528 A    
C91   C95   1.435466 A    
N35   O53   1.301249 A    
C84   C100  1.408057 A    
C33   H2    1.071810 S    
C7    C14   1.490420 S    
O12   C4    1.323961 A    
C24   N28   1.432458 S    
N29   O41   1.301283 A    
C26   N17   1.435022 S    
C70   N38   1.440606 S    
C107  C111  1.386979 A    
N39   O62   1.301371 A    
C48   C56   1.419234 A    
C78   C118  1.447495 S    
C84   N52   1.438326 S    
C24   C56   1.429891 A    
N37   O58   1.299959 A    
Cu2   N1    2.059826 S    
C17   N29   1.435772 S    
N3    C87   1.360621 A    
C82   C86   1.399189 A    
C40   H7    1.072257 S    
Cu1   N2    2.059825 S    
C22   C30   1.408177 A    
C90   N41   1.436973 S    
C81   C85   1.394374 A    
C73   C113  1.446268 S    
C58   C65   1.423898 A    
O9    C1    1.325163 A    
N18   O19   1.301390 A    
N35   O54   1.301040 A    
N50   O76   1.301367 A    
Cu3   N4    2.059825 S    
C108  C124  1.436708 S    
C83   C87   1.400040 A    
N41   O66   1.300248 A    
C15   C31   1.412357 A    
C101  C102  1.435323 A    
C1    C12   1.490218 S    
C67   N35   1.437957 S    
N1    C85   1.364556 A    
C47   C55   1.411590 A    
C61   C70   1.421432 A    
C17   C25   1.416956 A    
C126  N46   1.157923 T    
C105  C121  1.435940 S    
C116  N8    1.154683 T    
C99   C111  1.393825 A    
N42   O67   1.300455 A    
O10   Cu1   1.928720 S    
C19   C27   1.414947 A    
C52   C80   1.419276 A    
C93   C101  1.445184 A    
N51   O78   1.301288 A    
C105  C109  1.387253 A    
C20   C28   1.410414 A    
N29   O42   1.300920 A    
C13   C37   1.393318 A    
C20   C52   1.424408 A    
N40   O63   1.300934 A    
C42   C58   1.422620 A    
O3    Cu2   1.941963 S    
C108  C112  1.389214 A    
C36   H3    1.074812 S    
C37   C45   1.399115 A    
C16   C40   1.392165 A    
C31   N24   1.434346 S    
N34   O52   1.301736 A    
O2    Cu2   1.938879 S    
C57   C66   1.416245 A    
C14   C30   1.416907 A    
C79   C119  1.446223 S    
C92   N43   1.438875 S    
O1    C1    1.313629 A    
C8    C13   1.485205 S    
C10   C26   1.414235 A    
N32   O48   1.300442 A    
C38   H5    1.075409 S    
C41   C49   1.409201 A    
O14   C6    1.318312 A    
N44   O71   1.301247 A    
C96   C104  1.453707 A    
Cu1   Cu2   2.740548 S    
C104  C107  1.417099 A    
N33   O50   1.300953 A    
N49   O74   1.300852 A    
C71   C79   1.412400 A    
C113  N5    1.157486 T    
O13   C5    1.319872 A    
C23   N27   1.437398 S    
C30   N21   1.436176 S    
C19   N31   1.435595 S    
C23   C31   1.412663 A    
N32   O47   1.300594 A    
C127  N47   1.157922 T    
C29   N22   1.435172 S    
C75   C115  1.447211 S    
C57   C62   1.416582 A    
C66   N34   1.441397 S    
O7    C7    1.312743 A    
C128  N48   1.157853 T    
C22   N26   1.432140 S    
O8    C8    1.313029 A    
N38   O60   1.301399 A    
C107  C123  1.436806 S    
C80   C120  1.446956 S    
N28   O40   1.301114 A    
C44   C52   1.418071 A    
C12   C36   1.394737 A    
N36   O55   1.300898 A    
C98   C110  1.393310 A    
N20   O24   1.300550 A    
C18   C26   1.412775 A    
N21   O26   1.300512 A    
C40   C48   1.400603 A    
N30   O44   1.300693 A    
C21   C53   1.424607 A    
N19   O21   1.301134 A    
O4    C4    1.314580 A    
C93   C97   1.410437 A    
O5    C5    1.315046 A    
N30   O43   1.301344 A    
C94   C102  1.453846 A    
N26   O36   1.301239 A    
C88   C127  1.442264 S    
O12   Cu2   1.934663 S    
Cu3   Cu4   2.740548 S    
C14   C38   1.397104 A    
O8    Cu3   1.941961 S    
C94   C98   1.415460 A    
C45   C61   1.417686 A    
C106  C122  1.437948 S    
C2    C11   1.487516 S    
N24   O31   1.300729 A    
N27   O37   1.301496 A    
C18   N30   1.437248 S    
C115  N7    1.156141 T    
C3    C10   1.484901 S    
C65   N33   1.447875 S    
C43   C51   1.415387 A    
C70   C78   1.409400 A    
C28   N19   1.434933 S    
N2    C90   1.386449 A    
C50   C78   1.413143 A    
N37   O57   1.301386 A    
C49   C77   1.412321 A    
N18   O20   1.299997 A    
N19   O22   1.300579 A    
C19   C51   1.427510 A    
C46   C54   1.419174 A    
