data_mof_unit_25595.cif
_audit_creation_date              2012-12-10T19:29:25-0500
_audit_creation_method            fapswitch 2.2
_symmetry_space_group_name_H-M    P1
_symmetry_Int_Tables_number       1
_space_group_crystal_system       triclinic
_cell_length_a                    22.274636
_cell_length_b                    22.291718
_cell_length_c                    14.962532
_cell_angle_alpha                 90.00082
_cell_angle_beta                  90.066796
_cell_angle_gamma                 90.00004
_cell_volume                      7429.48915731

loop_
_atom_site_label
_atom_site_type_symbol
_atom_type_description
_atom_site_fract_x
_atom_site_fract_y
_atom_site_fract_z
_atom_type_partial_charge
C1    C     C_R   0.418803 0.918805 0.499947 0.893239
C2    C     C_R   0.581199 0.081193 0.500053 0.893280
C3    C     C_R   0.581199 0.918807 0.500052 0.893239
C4    C     C_R   0.418801 0.081193 0.499948 0.893288
C5    C     C_R   0.918801 0.418807 0.499947 0.893281
C6    C     C_R   0.081198 0.581194 0.500053 0.893241
C7    C     C_R   0.081199 0.418807 0.500052 0.893287
C8    C     C_R   0.918801 0.581193 0.499948 0.893239
C9    C     C_1   0.337010 0.163166 0.499562 0.125024
C10   C     C_1   0.662987 0.836832 0.500435 0.125026
C11   C     C_1   0.662988 0.163168 0.500440 0.125022
C12   C     C_1   0.337018 0.836825 0.499555 0.125066
C13   C     C_1   0.837014 0.663170 0.499564 0.125024
C14   C     C_1   0.162989 0.336833 0.500437 0.125024
C15   C     C_1   0.162979 0.663177 0.500441 0.125073
C16   C     C_1   0.837011 0.336833 0.499560 0.125023
C17   C     C_1   0.499771 1.000000 0.189890 0.218052
C18   C     C_1   0.500228 1.000000 0.810110 0.218021
C19   C     C_1   0.999772 0.500001 0.189890 0.218024
C20   C     C_1   0.000228 0.499999 0.810110 0.218049
C21   C     C_3   0.471718 0.951478 0.970273 0.497211
C22   C     C_3   0.528281 0.048521 0.029727 0.497167
C23   C     C_3   0.528175 0.951416 0.029724 0.497203
C24   C     C_3   0.471824 0.048583 0.970276 0.497164
C25   C     C_3   0.971582 0.451559 0.970273 0.497165
C26   C     C_3   0.028420 0.548441 0.029727 0.497215
C27   C     C_3   0.028038 0.451337 0.029724 0.497168
C28   C     C_3   0.971964 0.548663 0.970276 0.497209
C29   C     C_3   0.702902 0.730180 0.549365 -0.053178
C30   C     C_3   0.296924 0.269646 0.450115 -0.053253
C31   C     C_3   0.297326 0.729940 0.451333 -0.053158
C32   C     C_3   0.702962 0.269762 0.549551 -0.053248
C33   C     C_3   0.203074 0.230352 0.549885 -0.053236
C34   C     C_3   0.797100 0.769822 0.450633 -0.053164
C35   C     C_3   0.797037 0.230240 0.450449 -0.053264
C36   C     C_3   0.202670 0.770062 0.548660 -0.053192
C37   C     C_3   0.227175 0.199592 0.464675 0.424731
C38   C     C_3   0.772700 0.800284 0.535893 0.424700
C39   C     C_3   0.772743 0.199675 0.535693 0.424732
C40   C     C_3   0.227473 0.800114 0.463336 0.424700
C41   C     C_3   0.727302 0.699718 0.464106 0.424697
C42   C     C_3   0.272823 0.300407 0.535325 0.424731
C43   C     C_3   0.272522 0.699891 0.536657 0.424700
C44   C     C_3   0.727255 0.300327 0.464307 0.424736
C45   C     C_1   0.374496 0.125566 0.499806 -0.162018
C46   C     C_1   0.625502 0.874433 0.500193 -0.162029
C47   C     C_1   0.625502 0.125567 0.500196 -0.162005
C48   C     C_1   0.374502 0.874428 0.499802 -0.162008
C49   C     C_1   0.874498 0.625568 0.499807 -0.162035
C50   C     C_1   0.125503 0.374434 0.500194 -0.162022
C51   C     C_1   0.125497 0.625573 0.500197 -0.161998
C52   C     C_1   0.874497 0.374434 0.499804 -0.161999
C53   C     C_3   0.267702 0.239748 0.584049 0.433105
C54   C     C_3   0.732593 0.760547 0.415895 0.433121
C55   C     C_3   0.732486 0.239557 0.415916 0.433118
C56   C     C_3   0.267012 0.760949 0.584164 0.433130
C57   C     C_3   0.767409 0.739456 0.584103 0.433120
C58   C     C_3   0.232296 0.260250 0.415951 0.433103
C59   C     C_3   0.232983 0.739055 0.415825 0.433149
C60   C     C_3   0.767513 0.260445 0.584084 0.433117
C61   C     C_3   0.291804 0.208648 0.499179 -0.144968
C62   C     C_3   0.708192 0.791349 0.500817 -0.144981
C63   C     C_3   0.708192 0.208652 0.500820 -0.144983
C64   C     C_3   0.291814 0.791341 0.499176 -0.144970
C65   C     C_3   0.791809 0.708653 0.499182 -0.144981
C66   C     C_3   0.208194 0.291351 0.500821 -0.144966
C67   C     C_3   0.208182 0.708663 0.500816 -0.144977
C68   C     C_3   0.791806 0.291350 0.499179 -0.144983
C69   C     C_3   0.441802 0.000063 0.029787 -0.488983
C70   C     C_3   0.558197 0.999936 0.970213 -0.489001
C71   C     C_3   0.941803 0.500229 0.029787 -0.489001
C72   C     C_3   0.058198 0.499771 0.970213 -0.488983
C73   C     C_3   0.499322 0.000000 0.089779 -0.160384
C74   C     C_3   0.500677 0.999999 0.910220 -0.160376
C75   C     C_3   0.999323 0.500003 0.089779 -0.160377
C76   C     C_3   0.000678 0.499997 0.910221 -0.160384
H1    H     H_    0.605260 0.999885 0.945977 0.176091
H2    H     H_    0.394739 0.000114 0.054023 0.176106
H3    H     H_    0.105261 0.499587 0.945977 0.176104
H4    H     H_    0.894740 0.500413 0.054023 0.176091
N1    N     N_1   0.500020 1.000000 0.268010 -0.094623
N2    N     N_1   0.499980 0.000000 0.731990 -0.094631
N3    N     N_1   0.000020 0.500000 0.268010 -0.094630
N4    N     N_1   0.999980 0.500000 0.731990 -0.094624
O1    O     O_R   0.438390 0.938390 0.574460 -0.595838
O2    O     O_R   0.561610 0.061610 0.425540 -0.595768
O3    O     O_R   0.561610 0.938390 0.425540 -0.595770
O4    O     O_R   0.438390 0.061610 0.574460 -0.595722
O5    O     O_R   0.938390 0.438390 0.574460 -0.595780
O6    O     O_R   0.061610 0.561610 0.425540 -0.595842
O7    O     O_R   0.061610 0.438390 0.425540 -0.595711
O8    O     O_R   0.938390 0.561610 0.574460 -0.595760
O9    O     O_R   0.438400 0.938390 0.425520 -0.617225
O10   O     O_R   0.561600 0.061610 0.574480 -0.617300
O11   O     O_R   0.561600 0.938390 0.574480 -0.617339
O12   O     O_R   0.438400 0.061610 0.425520 -0.617349
O13   O     O_R   0.938400 0.438390 0.425520 -0.617281
O14   O     O_R   0.061600 0.561610 0.574480 -0.617214
O15   O     O_R   0.061600 0.438390 0.574480 -0.617369
O16   O     O_R   0.938400 0.561610 0.425520 -0.617356
Zn1   Zn    Zn3+2 0.500000 1.000000 0.599450 1.009601
Zn2   Zn    Zn3+2 0.500000 0.000000 0.400550 1.009645
Zn3   Zn    Zn3+2 0.000000 0.500000 0.599450 1.009641
Zn4   Zn    Zn3+2 0.000000 0.500000 0.400550 1.009606
O17   O     O_3   0.210097 0.144392 0.425941 -0.590324
C77   C     C_3   0.147324 0.142123 0.414733 -0.295678
H5    H     H_    0.127132 0.186205 0.396471 0.164753
H6    H     H_    0.126017 0.124167 0.476134 0.182588
H7    H     H_    0.137012 0.110427 0.359676 0.179685
O18   O     O_3   0.789640 0.855349 0.575186 -0.590373
C78   C     C_3   0.852374 0.857577 0.586901 -0.295582
H8    H     H_    0.873897 0.875743 0.525806 0.182603
H9    H     H_    0.872500 0.813433 0.604986 0.164822
H10   H     H_    0.862492 0.889084 0.642279 0.179650
O19   O     O_3   0.789735 0.144564 0.574790 -0.590335
C79   C     C_3   0.852482 0.142326 0.586332 -0.295673
H11   H     H_    0.872630 0.186451 0.604468 0.164770
H12   H     H_    0.873933 0.124228 0.525134 0.182588
H13   H     H_    0.862669 0.110761 0.641607 0.179651
O20   O     O_3   0.210728 0.854992 0.423287 -0.590449
C80   C     C_3   0.148043 0.857211 0.411009 -0.295795
H14   H     H_    0.126300 0.875719 0.471703 0.182691
H15   H     H_    0.127948 0.812988 0.393274 0.164806
H16   H     H_    0.138165 0.888428 0.355174 0.179621
O21   O     O_3   0.710360 0.644654 0.424811 -0.590375
C81   C     C_3   0.647627 0.642425 0.413102 -0.295578
H17   H     H_    0.627497 0.686571 0.395033 0.164808
H18   H     H_    0.626106 0.624251 0.474194 0.182607
H19   H     H_    0.637507 0.610926 0.357714 0.179647
O22   O     O_3   0.289900 0.355608 0.574058 -0.590324
C82   C     C_3   0.352674 0.357880 0.585258 -0.295684
H20   H     H_    0.373977 0.375833 0.523852 0.182597
H21   H     H_    0.372868 0.313799 0.603527 0.164747
H22   H     H_    0.362988 0.389581 0.640308 0.179692
O23   O     O_3   0.289272 0.645016 0.576711 -0.590409
C83   C     C_3   0.351947 0.642847 0.589128 -0.295609
H23   H     H_    0.371996 0.687085 0.606891 0.164865
H24   H     H_    0.373763 0.624347 0.528488 0.182609
H25   H     H_    0.361792 0.611646 0.644996 0.179600
O24   O     O_3   0.710265 0.355439 0.425210 -0.590340
C84   C     C_3   0.647517 0.357681 0.413679 -0.295695
H26   H     H_    0.626071 0.375770 0.474887 0.182593
H27   H     H_    0.627368 0.313559 0.395525 0.164782
H28   H     H_    0.637327 0.389259 0.358420 0.179661
C85   C     C_3   0.649203 0.711038 0.605582 -0.839858
H29   H     H_    0.656578 0.664994 0.631514 0.262387
H30   H     H_    0.643053 0.742229 0.662489 0.235078
H31   H     H_    0.607780 0.712143 0.564423 0.222649
C86   C     C_3   0.350424 0.288587 0.393331 -0.839695
H32   H     H_    0.342958 0.334540 0.367097 0.262379
H33   H     H_    0.391990 0.287626 0.434175 0.222667
H34   H     H_    0.356373 0.257196 0.336621 0.235083
C87   C     C_3   0.351293 0.710519 0.395904 -0.839852
H35   H     H_    0.344027 0.664359 0.370362 0.262402
H36   H     H_    0.357743 0.741446 0.338753 0.235095
H37   H     H_    0.392511 0.711796 0.437505 0.222618
C88   C     C_3   0.649335 0.288834 0.605972 -0.839692
H38   H     H_    0.656741 0.334848 0.632003 0.262374
H39   H     H_    0.607859 0.287773 0.564929 0.222657
H40   H     H_    0.643262 0.257576 0.662816 0.235106
C89   C     C_3   0.149573 0.211410 0.606666 -0.839725
H41   H     H_    0.157041 0.165457 0.632900 0.262382
H42   H     H_    0.143622 0.242801 0.663376 0.235071
H43   H     H_    0.108008 0.212370 0.565819 0.222668
C90   C     C_3   0.850799 0.788963 0.394416 -0.839880
H44   H     H_    0.843425 0.835008 0.368485 0.262388
H45   H     H_    0.892222 0.787857 0.435574 0.222652
H46   H     H_    0.856948 0.757773 0.337508 0.235068
C91   C     C_3   0.850665 0.211166 0.394032 -0.839657
H47   H     H_    0.843257 0.165153 0.367997 0.262377
H48   H     H_    0.856743 0.242425 0.337192 0.235112
H49   H     H_    0.892138 0.212222 0.435080 0.222653
C92   C     C_3   0.148713 0.789470 0.604124 -0.839942
H50   H     H_    0.155977 0.835633 0.629660 0.262373
H51   H     H_    0.107483 0.788182 0.562551 0.222639
H52   H     H_    0.142294 0.758544 0.661283 0.235144
O25   O     O_3   0.711409 0.777283 0.330469 -0.586385
C93   C     C_3   0.728329 0.734297 0.266095 -0.227977
H53   H     H_    0.692749 0.699788 0.259574 0.177413
H54   H     H_    0.772046 0.712104 0.280295 0.155513
H55   H     H_    0.732494 0.757044 0.200467 0.172091
O26   O     O_3   0.289186 0.223311 0.669438 -0.586432
C94   C     C_3   0.272490 0.266522 0.733608 -0.227930
H56   H     H_    0.228717 0.288656 0.719585 0.155530
H57   H     H_    0.308086 0.301059 0.739572 0.177445
H58   H     H_    0.268569 0.244006 0.799445 0.172096
O27   O     O_3   0.287795 0.778091 0.669630 -0.586334
C95   C     C_3   0.270565 0.735416 0.734279 -0.228006
H59   H     H_    0.306126 0.700957 0.741574 0.177347
H60   H     H_    0.226931 0.713131 0.719831 0.155521
H61   H     H_    0.266058 0.758483 0.799609 0.172081
O28   O     O_3   0.711195 0.222925 0.330502 -0.586397
C96   C     C_3   0.728038 0.265988 0.266199 -0.227974
H62   H     H_    0.771771 0.288167 0.280344 0.155534
H63   H     H_    0.692450 0.300503 0.259864 0.177411
H64   H     H_    0.732126 0.243320 0.200499 0.172079
O29   O     O_3   0.210813 0.276687 0.330562 -0.586430
C97   C     C_3   0.227509 0.233477 0.266391 -0.227921
H65   H     H_    0.191905 0.198949 0.260409 0.177429
H66   H     H_    0.271273 0.211329 0.280429 0.155537
H67   H     H_    0.231449 0.255996 0.200558 0.172099
O30   O     O_3   0.788592 0.722722 0.669530 -0.586386
C98   C     C_3   0.771667 0.765706 0.733904 -0.227978
H68   H     H_    0.727954 0.787904 0.719695 0.155516
H69   H     H_    0.807249 0.800212 0.740435 0.177405
H70   H     H_    0.767494 0.742958 0.799529 0.172097
O31   O     O_3   0.788802 0.277076 0.669497 -0.586398
C99   C     C_3   0.771960 0.234013 0.733801 -0.227967
H71   H     H_    0.807560 0.199512 0.740159 0.177399
H72   H     H_    0.728238 0.211816 0.719640 0.155539
H73   H     H_    0.767849 0.256687 0.799494 0.172067
O32   O     O_3   0.212190 0.721896 0.330370 -0.586316
C100  C     C_3   0.229374 0.764585 0.265720 -0.228057
H74   H     H_    0.273142 0.786667 0.279942 0.155457
H75   H     H_    0.193927 0.799190 0.258752 0.177528
H76   H     H_    0.233588 0.741582 0.200297 0.172111
O33   O     O_3   0.555799 0.900077 0.066573 -0.596417
C101  C     C_3   0.585737 0.868158 0.998720 -0.278763
H77   H     H_    0.625165 0.893721 0.973874 0.160410
H78   H     H_    0.555179 0.856501 0.942501 0.187328
H79   H     H_    0.602709 0.825482 0.027286 0.185412
O34   O     O_3   0.444201 0.099922 0.933427 -0.596399
C102  C     C_3   0.414259 0.131839 0.001279 -0.278580
H80   H     H_    0.444813 0.143491 0.057506 0.187328
H81   H     H_    0.374828 0.106277 0.026114 0.160374
H82   H     H_    0.397292 0.174518 0.972716 0.185464
O35   O     O_3   0.443981 0.900200 0.933420 -0.596436
C103  C     C_3   0.413976 0.868343 0.001271 -0.278846
H83   H     H_    0.374607 0.893993 0.026128 0.160462
H84   H     H_    0.444511 0.856615 0.057484 0.187367
H85   H     H_    0.396907 0.825707 0.972699 0.185344
O36   O     O_3   0.556017 0.099800 0.066580 -0.596398
C104  C     C_3   0.586025 0.131655 0.998729 -0.278625
H86   H     H_    0.555493 0.143378 0.942510 0.187344
H87   H     H_    0.625396 0.106006 0.973882 0.160390
H88   H     H_    0.603089 0.174293 0.027298 0.185429
O37   O     O_3   0.055517 0.399920 0.066573 -0.596422
C105  C     C_3   0.085363 0.367916 0.998719 -0.278634
H89   H     H_    0.124863 0.393367 0.973873 0.160370
H90   H     H_    0.054772 0.356346 0.942500 0.187351
H91   H     H_    0.102214 0.325192 0.027286 0.185466
O38   O     O_3   0.944486 0.600081 0.933428 -0.596437
C106  C     C_3   0.914632 0.632080 0.001280 -0.278779
H92   H     H_    0.945215 0.643641 0.057513 0.187337
H93   H     H_    0.875126 0.606629 0.026104 0.160405
H94   H     H_    0.897789 0.674809 0.972718 0.185410
O39   O     O_3   0.943698 0.400360 0.933419 -0.596380
C107  C     C_3   0.913607 0.368586 0.001272 -0.278616
H95   H     H_    0.874314 0.394347 0.026139 0.160397
H96   H     H_    0.944113 0.356766 0.057477 0.187338
H97   H     H_    0.896413 0.326001 0.972697 0.185435
O40   O     O_3   0.056301 0.599641 0.066580 -0.596410
C108  C     C_3   0.086402 0.631409 0.998730 -0.278818
H98   H     H_    0.055905 0.643219 0.942509 0.187346
H99   H     H_    0.125701 0.605648 0.973887 0.160468
H100  H     H_    0.103587 0.674000 0.027299 0.185332

loop_
_geom_bond_atom_site_label_1
_geom_bond_atom_site_label_2
_ccdc_geom_bond_type
O15   Zn3   S    
C98   H68   S    
C23   O33   S    
C58   O29   S    
C9    C45   T    
C81   H17   S    
O12   Zn2   S    
C33   C53   S    
C26   C72   S    
C91   H47   S    
C11   C47   T    
C102  H80   S    
O7    Zn4   S    
C72   C76   S    
C82   H22   S    
C85   H31   S    
C103  H84   S    
C89   H41   S    
C102  H82   S    
C86   H32   S    
O23   C83   S    
C13   C65   S    
C92   H50   S    
C107  H95   S    
C98   H69   S    
C105  H91   S    
C90   H44   S    
C31   C43   S    
C95   H61   S    
C9    C61   S    
C6    O14   A    
C55   O28   S    
C72   H3    S    
C11   C63   S    
C86   H33   S    
C42   C53   S    
C29   C85   S    
C108  H98   S    
C12   C64   S    
C27   C75   S    
C100  H76   S    
C77   H5    S    
C39   C60   S    
O14   Zn3   S    
O3    Zn2   S    
O16   Zn4   S    
C88   H40   S    
C79   H11   S    
C20   C76   S    
C95   H60   S    
C31   C87   S    
C31   C59   S    
O18   C78   S    
C103  H83   S    
C80   H16   S    
O8    Zn3   S    
C89   H42   S    
C4    O12   A    
C53   C61   S    
C58   C66   S    
C88   H38   S    
C78   H8    S    
O10   Zn1   S    
C99   H71   S    
C96   H63   S    
C55   C63   S    
C57   O30   S    
C70   C74   S    
C56   C64   S    
C5    C52   S    
C69   C73   S    
C97   H65   S    
C25   C71   S    
C15   C51   T    
C6    C51   S    
C38   O18   S    
C34   C90   S    
C104  H86   S    
C37   C58   S    
C96   H62   S    
C107  H97   S    
C12   C48   T    
N1    Zn2   S    
C59   C67   S    
C96   H64   S    
C92   H51   S    
C15   C67   S    
C36   C92   S    
C44   O24   S    
C40   C59   S    
O37   C105  S    
O5    Zn3   S    
C70   H1    S    
C17   C73   S    
C91   H48   S    
C23   C70   S    
C69   H2    S    
C10   C62   S    
C28   O38   S    
C23   C73   S    
C83   H25   S    
C19   N3    T    
C34   C65   S    
C8    C49   S    
C71   H4    S    
C85   H30   S    
C107  H96   S    
C24   C69   S    
C93   H53   S    
C4    C45   S    
C100  H75   S    
C54   O25   S    
C1    O1    A    
C97   H66   S    
C21   O35   S    
C98   H70   S    
C105  H90   S    
C36   C67   S    
N3    Zn4   S    
C3    O3    A    
O31   C99   S    
O13   Zn4   S    
C41   O21   S    
C2    O10   A    
O24   C84   S    
C7    C50   S    
C83   H24   S    
O30   C98   S    
C86   H34   S    
C57   C65   S    
C108  H99   S    
C30   C86   S    
C41   C65   S    
C54   C62   S    
C81   H19   S    
C106  H93   S    
O33   C101  S    
C100  H74   S    
C35   C55   S    
C21   C74   S    
C106  H92   S    
C20   N4    T    
C33   C37   S    
C21   C69   S    
C95   H59   S    
C7    O15   A    
C33   C89   S    
C94   H56   S    
C37   O17   S    
C36   C56   S    
C38   C57   S    
C18   C74   S    
C101  H78   S    
O35   C103  S    
C56   O27   S    
C36   C40   S    
C106  H94   S    
C7    O7    A    
C33   C66   S    
C97   H67   S    
O38   C106  S    
C14   C66   S    
C78   H9    S    
C87   H37   S    
C43   O23   S    
C104  H87   S    
O6    Zn4   S    
C80   H14   S    
C13   C49   T    
C26   O40   S    
C8    O8    A    
C25   O39   S    
C43   C67   S    
C40   O20   S    
C29   C57   S    
C34   C54   S    
C90   H46   S    
C39   O19   S    
C21   C23   S    
C99   H73   S    
O21   C81   S    
C35   C91   S    
C91   H49   S    
C22   C24   S    
C84   H28   S    
C28   C71   S    
C87   H36   S    
C32   C60   S    
C10   C46   T    
C82   H20   S    
O2    Zn2   S    
C85   H29   S    
C89   H43   S    
O1    Zn1   S    
C59   O32   S    
C27   O37   S    
C101  H79   S    
C32   C88   S    
C92   H52   S    
C1    O9    A    
C29   C62   S    
C81   H18   S    
C37   C61   S    
C29   C41   S    
C34   C38   S    
C31   C64   S    
C60   O31   S    
O4    Zn1   S    
C16   C52   T    
C32   C63   S    
C5    O13   A    
C83   H23   S    
C82   H21   S    
C90   H45   S    
C40   C64   S    
O9    Zn2   S    
C108  H100  S    
C93   H54   S    
O39   C107  S    
C102  H81   S    
C1    C48   S    
C4    O4    A    
C24   O34   S    
C2    C47   S    
C25   C27   S    
C39   C63   S    
O17   C77   S    
C3    C46   S    
C26   C28   S    
C42   O22   S    
C79   H13   S    
C94   H58   S    
C16   C68   S    
C26   C75   S    
C25   C76   S    
C84   H27   S    
O22   C82   S    
C8    O16   A    
O27   C95   S    
C99   H72   S    
C6    O6    A    
C84   H26   S    
O28   C96   S    
C71   C75   S    
C44   C55   S    
C24   C74   S    
C101  H77   S    
C14   C50   T    
C77   H6    S    
C35   C68   S    
C19   C75   S    
C35   C39   S    
C30   C58   S    
C105  H89   S    
O36   C104  S    
C18   N2    T    
N2    Zn1   S    
C79   H12   S    
C2    O2    A    
C78   H10   S    
C17   N1    T    
O29   C97   S    
C104  H88   S    
C41   C54   S    
C80   H15   S    
C93   H55   S    
C44   C68   S    
C60   C68   S    
O11   Zn1   S    
C43   C56   S    
C22   O36   S    
O32   C100  S    
C32   C44   S    
C94   H57   S    
C88   H39   S    
O25   C93   S    
C30   C61   S    
C42   C66   S    
N4    Zn3   S    
O20   C80   S    
C30   C42   S    
C3    O11   A    
C22   C73   S    
O19   C79   S    
C87   H35   S    
C53   O26   S    
O34   C102  S    
C22   C70   S    
C103  H85   S    
C5    O5    A    
C27   C72   S    
O26   C94   S    
O40   C108  S    
C38   C62   S    
C77   H7    S    
C28   C76   S    
