data_mof_unit_63198.cif
_audit_creation_date              2012-12-10T17:00:06-0500
_audit_creation_method            fapswitch 2.2
_symmetry_space_group_name_H-M    P1
_symmetry_Int_Tables_number       1
_space_group_crystal_system       triclinic
_cell_length_a                    13.172257
_cell_length_b                    13.171566
_cell_length_c                    16.06619
_cell_angle_alpha                 80.354443
_cell_angle_beta                  100.442924
_cell_angle_gamma                 90.8766
_cell_volume                      2702.2201954

loop_
_atom_site_label
_atom_site_type_symbol
_atom_type_description
_atom_site_fract_x
_atom_site_fract_y
_atom_site_fract_z
_atom_type_partial_charge
C1    C     C_R   0.462672 0.777136 0.468878 0.517473
C2    C     C_2   0.055032 0.517470 0.494004 -0.144508
C3    C     C_2   0.888005 0.551650 0.530198 -0.100900
C4    C     C_R   0.537361 0.223463 0.531942 0.510282
C5    C     C_2   0.944526 0.498833 0.490315 -0.148939
C6    C     C_R   0.777034 0.533770 0.524066 0.516384
C7    C     C_R   0.223353 0.466288 0.475121 0.510985
C8    C     C_R   0.515863 0.487641 0.726887 0.509181
C9    C     C_R   0.484067 0.512429 0.273091 0.508334
C10   C     C_1   0.521643 0.483178 0.817336 0.030161
C11   C     C_2   0.530164 0.476631 0.984104 -0.129122
C12   C     C_1   0.470662 0.522792 0.106086 -0.049191
C13   C     C_2   0.462526 0.529066 0.014779 -0.007179
C14   C     C_1   0.380709 0.592450 0.958804 0.234135
C15   C     C_1   0.525925 0.479882 0.893267 -0.029508
C16   C     C_1   0.477110 0.517814 0.182423 0.015277
C17   C     C_2   0.552563 0.112685 0.543889 -0.078081
C18   C     C_2   0.482515 0.055150 0.503352 -0.146011
C19   C     C_2   0.443484 0.888113 0.459312 -0.101613
C20   C     C_2   0.502228 0.944619 0.510529 -0.147953
C21   C     C_2   0.112554 0.452629 0.466074 -0.078401
H1    H     H_    0.079230 0.384601 0.442453 0.095351
H2    H     H_    0.590666 0.429758 0.028132 0.128348
H3    H     H_    0.566871 0.909220 0.558104 0.163917
H4    H     H_    0.412483 0.090437 0.462883 0.133934
H5    H     H_    0.379903 0.923620 0.410753 0.112585
H6    H     H_    0.625391 0.079297 0.580485 0.097470
H7    H     H_    0.909151 0.439934 0.454905 0.162890
H8    H     H_    0.090328 0.582273 0.521782 0.136943
H9    H     H_    0.923491 0.609442 0.566722 0.114914
N1    N     N_1   0.315244 0.643163 0.914003 -0.284939
O1    O     O_3   0.500000 0.500000 0.500000 -0.443694
O2    O     O_R   0.564890 0.556920 0.685230 -0.534878
O3    O     O_R   0.419250 0.562810 0.301190 -0.532588
O4    O     O_R   0.461010 0.422870 0.688230 -0.532680
O5    O     O_R   0.554850 0.457400 0.325340 -0.537165
O6    O     O_R   0.732880 0.470090 0.478000 -0.539830
O7    O     O_R   0.260330 0.535210 0.424090 -0.531145
O8    O     O_R   0.533020 0.732860 0.528350 -0.538658
O9    O     O_R   0.473780 0.261850 0.569570 -0.530319
O10   O     O_R   0.406490 0.723840 0.419860 -0.534479
O11   O     O_R   0.586720 0.281460 0.482230 -0.534597
O12   O     O_R   0.723810 0.584530 0.562340 -0.535648
O13   O     O_R   0.282980 0.410180 0.535580 -0.531141
Zn1   Zn    Zn3+2 0.592010 0.428480 0.447310 0.944725
Zn2   Zn    Zn3+2 0.579060 0.591980 0.567800 0.950609
Zn3   Zn    Zn3+2 0.430650 0.400450 0.572090 0.954869
Zn4   Zn    Zn3+2 0.398290 0.579090 0.412800 0.954400

loop_
_geom_bond_atom_site_label_1
_geom_bond_atom_site_label_2
_ccdc_geom_bond_type
O9    Zn3   S    
O11   Zn1   S    
C4    O9    A    
C13   C14   S    
C9    O5    A    
C5    H7    S    
C11   C13   D    
O1    Zn1   S    
O7    Zn4   S    
C19   C20   D    
O13   Zn3   S    
C14   N1    T    
C6    O12   A    
C3    C6    S    
O4    Zn3   S    
C2    C21   D    
C17   C18   D    
C6    O6    A    
O5    Zn1   S    
C21   H1    S    
O2    Zn2   S    
O1    Zn4   S    
C18   H4    S    
C4    O11   A    
O8    Zn2   S    
C4    C17   S    
C3    H9    S    
C11   H2    S    
O12   Zn2   S    
C7    O7    A    
C18   C20   S    
C8    O2    A    
C2    H8    S    
C9    O3    A    
O1    Zn3   S    
C1    C19   S    
C2    C5    S    
O3    Zn4   S    
C1    O8    A    
O6    Zn1   S    
C17   H6    S    
C20   H3    S    
C11   C15   S    
C12   C13   S    
C8    C10   S    
C1    O10   A    
C19   H5    S    
C7    O13   A    
C10   C15   T    
C7    C21   S    
O1    Zn2   S    
O10   Zn4   S    
C12   C16   T    
C9    C16   S    
C3    C5    D    
C8    O4    A    
