data_mof_unit_35017.cif
_audit_creation_date              2012-10-26T18:50:44-0400
_audit_creation_method            fapswitch 2.2
_symmetry_space_group_name_H-M    P1
_symmetry_Int_Tables_number       1
_space_group_crystal_system       triclinic
_cell_length_a                    12.315854
_cell_length_b                    13.156919
_cell_length_c                    17.200982
_cell_angle_alpha                 104.63291
_cell_angle_beta                  75.15253
_cell_angle_gamma                 116.633978
_cell_volume                      2377.47866571

loop_
_atom_site_label
_atom_site_type_symbol
_atom_type_description
_atom_site_fract_x
_atom_site_fract_y
_atom_site_fract_z
_atom_type_partial_charge
C1    C     C_R   0.144382 0.713631 0.506915 0.591906
C2    C     C_R   0.011914 0.489467 0.261285 0.019865
C3    C     C_R   0.731500 0.978332 0.385484 -0.096841
C4    C     C_R   0.990116 0.506732 0.652533 0.539156
C5    C     C_R   0.774308 0.164408 0.470220 0.004126
C6    C     C_R   0.180408 0.915427 0.563763 -0.131355
C7    C     C_R   0.258690 0.030260 0.581703 -0.129117
C8    C     C_R   0.383946 0.067447 0.551649 -0.094292
C9    C     C_R   0.433170 0.990516 0.499333 -0.025445
C10   C     C_R   0.350281 0.876950 0.472434 -0.026747
C11   C     C_R   0.561667 0.023205 0.471906 -0.036013
C12   C     C_R   0.896277 0.531798 0.798690 -0.133310
C13   C     C_R   0.604507 0.946499 0.412645 -0.000944
C14   C     C_R   0.520009 0.841188 0.378988 0.401217
C15   C     C_R   0.394500 0.808038 0.406711 0.404512
C16   C     C_R   0.855875 0.286169 0.487909 0.540003
C17   C     C_R   0.649243 0.130156 0.501839 -0.107935
C18   C     C_R   0.815955 0.087155 0.413670 -0.147154
C19   C     C_R   0.225352 0.837046 0.511401 0.023667
C20   C     C_R   0.643217 0.674770 0.630060 -0.117898
C21   C     C_R   0.249578 0.352079 0.389649 0.074292
C22   C     C_R   0.348134 0.319970 0.365862 -0.143595
C23   C     C_R   0.915019 0.494652 0.157332 -0.109467
C24   C     C_R   0.448247 0.375916 0.407341 -0.111060
C25   C     C_R   0.450942 0.465247 0.473635 -0.013177
C26   C     C_R   0.347568 0.494971 0.495820 0.138334
C27   C     C_R   0.551529 0.525772 0.518819 -0.060719
C28   C     C_R   0.010963 0.495094 0.347520 0.570177
C29   C     C_R   0.546481 0.614456 0.584861 0.047737
C30   C     C_R   0.444846 0.642012 0.605433 0.314113
C31   C     C_R   0.347924 0.583278 0.562013 -0.070849
C32   C     C_R   0.657713 0.502450 0.501700 0.047862
C33   C     C_R   0.744440 0.647360 0.610156 0.021227
C34   C     C_R   0.914328 0.496811 0.238417 -0.131584
C35   C     C_R   0.995555 0.524252 0.739140 0.012861
C36   C     C_R   0.103575 0.539717 0.762934 -0.111015
C37   C     C_R   0.112518 0.563120 0.844947 -0.109192
C38   C     C_R   0.013249 0.570110 0.904105 0.043979
C39   C     C_R   0.904666 0.553344 0.880940 -0.114426
C40   C     C_3   0.039957 0.697291 0.044552 -0.258684
C41   C     C_3   0.928163 0.726239 0.062314 -0.429533
C42   C     C_R   0.108553 0.476582 0.201300 -0.103805
C43   C     C_R   0.109005 0.474517 0.119770 -0.114215
C44   C     C_R   0.013723 0.486437 0.098247 0.026855
C45   C     C_2   0.018683 0.581609 0.989996 0.005161
C46   C     C_2   0.016871 0.490677 0.013771 -0.129307
Cu1   Cu    Cu3+1 0.900140 0.524980 0.518800 0.938274
Cu2   Cu    Cu3+1 0.099860 0.475020 0.481200 0.990008
F1    F     F_    0.558734 0.770749 0.317528 -0.609446
F2    F     F_    0.316838 0.713182 0.363786 -0.585804
F3    F     F_    0.438295 0.726440 0.668645 -0.655427
H1    H     H_    0.181679 0.534741 0.718361 0.147824
H2    H     H_    0.837398 0.504644 0.283100 0.134896
H3    H     H_    0.640866 0.742734 0.680599 0.166770
H4    H     H_    0.669562 0.436941 0.452605 0.120069
H5    H     H_    0.172184 0.308095 0.357200 0.114574
H6    H     H_    0.521857 0.347405 0.386292 0.098672
H7    H     H_    0.346904 0.251429 0.315127 0.103553
H8    H     H_    0.274319 0.609985 0.583189 0.190892
H9    H     H_    0.184164 0.469686 0.217415 0.158051
H10   H     H_    0.014925 0.414823 0.969333 0.117105
H11   H     H_    0.825734 0.554431 0.926303 0.115791
H12   H     H_    0.184792 0.466564 0.073874 0.116331
H13   H     H_    0.839219 0.500474 0.140655 0.123937
H14   H     H_    0.811938 0.519761 0.781753 0.129221
H15   H     H_    0.195957 0.573887 0.862506 0.125795
H16   H     H_    0.915189 0.744334 0.006511 0.154192
H17   H     H_    0.843659 0.654331 0.085443 0.158822
H18   H     H_    0.942990 0.804555 0.109233 0.149799
H19   H     H_    0.064323 0.701020 0.103312 0.166751
H20   H     H_    0.120059 0.765446 0.013877 0.151660
H21   H     H_    0.912820 0.112694 0.388436 0.119883
H22   H     H_    0.765542 0.920766 0.340301 0.173042
H23   H     H_    0.622947 0.190210 0.549036 0.123966
H24   H     H_    0.084905 0.887318 0.592982 0.126966
H25   H     H_    0.438919 0.157591 0.569111 0.106678
H26   H     H_    0.222802 0.090177 0.621689 0.119509
H27   H     H_    0.819365 0.693645 0.644731 0.121790
N1    N     N_R   0.749710 0.562810 0.547300 -0.233653
N2    N     N_R   0.249640 0.437820 0.453210 -0.221794
O1    O     O_R   0.025490 0.682370 0.523640 -0.513383
O2    O     O_R   0.194150 0.640180 0.491890 -0.461084
O3    O     O_R   0.905900 0.523560 0.631310 -0.507023
O4    O     O_R   0.074570 0.481370 0.599560 -0.536242
O5    O     O_R   0.805850 0.359820 0.508110 -0.513691
O6    O     O_R   0.974510 0.317630 0.476360 -0.513367
O7    O     O_R   0.925430 0.518630 0.400440 -0.513287
O8    O     O_R   0.094100 0.476440 0.368690 -0.469996

loop_
_geom_bond_atom_site_label_1
_geom_bond_atom_site_label_2
_ccdc_geom_bond_type
C30   F3    S    
C40   H20   S    
C27   C29   A    
C35   C36   A    
Cu1   N1    S    
C43   H12   S    
C7    C8    A    
C41   H16   S    
C45   C46   D    
C6    C19   A    
C29   C30   A    
C40   H19   S    
Cu1   O5    S    
C36   C37   A    
C10   C15   A    
C30   C31   A    
C33   H27   S    
C14   F1    S    
C5    C17   A    
C1    O1    A    
C8    H25   S    
C3    C18   A    
C15   F2    S    
C31   H8    S    
C38   C45   S    
C11   C17   A    
C8    C9    A    
C5    C16   S    
C28   O8    A    
Cu2   O8    S    
Cu1   O3    S    
C9    C10   A    
C32   H4    S    
C3    C13   A    
C7    H26   S    
C2    C34   A    
C4    C35   S    
C26   C31   A    
C21   C22   A    
C16   O6    A    
C44   C46   S    
C41   H17   S    
C20   C29   A    
C18   H21   S    
C40   C45   S    
C1    C19   S    
C46   H10   S    
C6    H24   S    
C38   C39   A    
C24   C25   A    
C20   H3    S    
C42   H9    S    
C33   N1    A    
C5    C18   A    
C25   C26   A    
C26   N2    A    
C23   C44   A    
Cu2   O4    S    
Cu1   O7    S    
C43   C44   A    
C37   C38   A    
Cu1   Cu2   S    
C4    O4    A    
C10   C19   A    
C23   C34   A    
C37   H15   S    
C28   O7    A    
C12   C35   A    
C9    C11   A    
C20   C33   A    
C40   C41   S    
C16   O5    A    
C22   C24   A    
C42   C43   A    
C41   H18   S    
C24   H6    S    
C39   H11   S    
C23   H13   S    
C27   C32   A    
C36   H1    S    
C22   H7    S    
C21   H5    S    
C6    C7    A    
C25   C27   A    
C12   H14   S    
Cu2   N2    S    
C12   C39   A    
C1    O2    A    
C32   N1    A    
C11   C13   A    
C17   H23   S    
C4    O3    A    
C2    C42   A    
C21   N2    A    
Cu2   O2    S    
Cu2   O6    S    
Cu1   O1    S    
C3    H22   S    
C34   H2    S    
C14   C15   A    
C2    C28   S    
C13   C14   A    
