data_mof_unit_8896.cif
_audit_creation_date              2012-12-10T16:39:35-0500
_audit_creation_method            fapswitch 2.2
_symmetry_space_group_name_H-M    P1
_symmetry_Int_Tables_number       1
_space_group_crystal_system       triclinic
_cell_length_a                    16.797746
_cell_length_b                    16.760566
_cell_length_c                    16.618987
_cell_angle_alpha                 65.361152
_cell_angle_beta                  65.867887
_cell_angle_gamma                 65.852659
_cell_volume                      3717.14695919

loop_
_atom_site_label
_atom_site_type_symbol
_atom_type_description
_atom_site_fract_x
_atom_site_fract_y
_atom_site_fract_z
_atom_type_partial_charge
C1    C     C_R   0.327344 0.932390 0.465614 -0.125061
C2    C     C_R   0.328134 0.459919 0.942118 -0.106397
C3    C     C_R   0.518725 0.404507 0.036505 0.004129
C4    C     C_R   0.091063 0.429429 0.563902 0.003051
C5    C     C_R   0.085027 0.514322 0.380016 0.006377
C6    C     C_R   0.087209 0.666777 0.530155 -0.103252
C7    C     C_R   0.062636 0.285184 0.421934 -0.106355
C8    C     C_R   0.464353 0.946791 0.469363 -0.023799
C9    C     C_R   0.551301 0.985912 0.556401 -0.024035
C10   C     C_R   0.078891 0.423892 0.424306 -0.029504
C11   C     C_R   0.089173 0.522366 0.522123 -0.023667
C12   C     C_R   0.449553 0.455185 0.991834 -0.018991
C13   C     C_R   0.549715 0.545398 0.008214 -0.022485
C14   C     C_R   0.010935 0.159120 0.423764 0.980974
C15   C     C_R   0.690173 0.986724 0.570162 -0.115903
C16   C     C_R   0.043226 0.820201 0.560039 0.979285
C17   C     C_R   0.179516 0.439720 0.958605 0.947244
C18   C     C_R   0.820474 0.560351 0.041239 0.990351
C19   C     C_R   0.439759 0.957366 0.180085 0.985946
C20   C     C_R   0.561092 0.039431 0.819877 0.980241
C21   C     C_R   0.570396 0.824224 0.018116 0.998142
C22   C     C_R   0.429639 0.175909 0.981643 1.004228
C23   C     C_R   0.043635 0.559782 0.820402 0.962513
C24   C     C_R   0.010754 0.423963 0.158916 0.973881
C25   C     C_R   0.823942 0.018697 0.570036 1.020064
C26   C     C_R   0.063476 0.420530 0.284965 -0.109622
C27   C     C_R   0.179473 0.959689 0.438958 0.932127
C28   C     C_R   0.418978 0.933020 0.423164 -0.087024
C29   C     C_R   0.594591 0.006672 0.599256 -0.076255
C30   C     C_R   0.067842 0.376628 0.377240 -0.072979
C31   C     C_R   0.088489 0.573326 0.572848 -0.081655
C32   C     C_R   0.401618 0.409670 0.981114 -0.086183
C33   C     C_R   0.597919 0.590804 0.018700 -0.086554
C34   C     C_R   0.278834 0.931903 0.412451 -0.200127
C35   C     C_R   0.730083 0.019931 0.606911 -0.235995
C36   C     C_R   0.040813 0.376197 0.243027 -0.222559
C37   C     C_R   0.089202 0.530661 0.666250 -0.123528
C38   C     C_R   0.076683 0.586336 0.719041 -0.208139
C39   C     C_R   0.390756 0.270455 0.979475 -0.247155
C40   C     C_R   0.609205 0.729824 0.020117 -0.235268
C41   C     C_R   0.590586 0.056145 0.720210 -0.178263
C42   C     C_R   0.412060 0.927387 0.281784 -0.216154
C43   C     C_R   0.721399 0.590210 0.060798 -0.185581
C44   C     C_R   0.278523 0.410050 0.938741 -0.171423
C45   C     C_R   0.075421 0.719213 0.586301 -0.221715
C46   C     C_R   0.040285 0.243350 0.376745 -0.223735
C47   C     C_R   0.446756 0.061308 0.703063 0.643357
C48   C     C_R   0.426162 0.313244 0.010450 -0.116598
C49   C     C_R   0.561578 0.900071 0.304533 0.628387
C50   C     C_R   0.102501 0.701928 0.432644 0.626574
C51   C     C_R   0.084648 0.238557 0.507414 0.580295
C52   C     C_R   0.690419 0.444037 0.094046 0.610583
C53   C     C_R   0.309107 0.556413 0.905700 0.645959
C54   C     C_R   0.288213 0.933799 0.559174 0.666520
C55   C     C_R   0.740899 0.935658 0.505307 0.592895
C56   C     C_R   0.486083 0.264382 0.066884 0.596417
C57   C     C_R   0.513485 0.736142 0.932885 0.592924
C58   C     C_R   0.085958 0.504950 0.237438 0.583329
C59   C     C_R   0.573535 0.687187 0.989251 -0.116451
C60   C     C_R   0.106366 0.433712 0.701524 0.619039
C61   C     C_R   0.323855 0.921075 0.325244 0.545917
C62   C     C_R   0.678426 0.059418 0.677172 0.513597
C63   C     C_R   0.039542 0.285869 0.285621 0.528747
C64   C     C_R   0.082134 0.675218 0.675334 0.554358
C65   C     C_R   0.319622 0.320457 0.940526 0.543475
C66   C     C_R   0.680392 0.679787 0.058982 0.531821
C67   C     C_R   0.697678 0.926206 0.454528 -0.004362
C68   C     C_R   0.325815 0.966676 0.595667 -0.000134
C69   C     C_R   0.102892 0.384277 0.652769 -0.019537
C70   C     C_R   0.542895 0.043232 0.674324 -0.100519
C71   C     C_R   0.091403 0.553763 0.285416 -0.002709
C72   C     C_R   0.464011 0.691616 0.923750 -0.003416
C73   C     C_R   0.535398 0.308978 0.076107 -0.004691
C74   C     C_R   0.608015 0.906844 0.354619 -0.020172
C75   C     C_R   0.405671 0.030111 0.667974 -0.002690
C76   C     C_R   0.360793 0.601713 0.911012 -0.024785
C77   C     C_R   0.638571 0.398851 0.088863 -0.019318
C78   C     C_R   0.091865 0.286473 0.555418 0.000363
C79   C     C_R   0.099696 0.652573 0.383311 -0.015239
C80   C     C_R   0.748009 0.890493 0.379312 -0.168393
C81   C     C_R   0.464924 0.921072 0.334520 -0.097431
C82   C     C_R   0.275902 0.994184 0.675806 -0.166784
C83   C     C_R   0.112588 0.289688 0.690839 -0.140733
C84   C     C_R   0.104927 0.641136 0.239711 -0.168254
C85   C     C_R   0.397511 0.741139 0.876174 -0.171684
C86   C     C_R   0.602045 0.259441 0.123450 -0.165819
C87   C     C_R   0.703605 0.883287 0.328329 -0.159231
C88   C     C_R   0.314072 0.030092 0.708903 -0.185599
C89   C     C_R   0.345823 0.696889 0.870810 -0.148865
C90   C     C_R   0.653696 0.303678 0.128842 -0.160724
C91   C     C_R   0.106994 0.241485 0.642878 -0.168856
C92   C     C_R   0.671554 0.540472 0.057546 -0.117377
C93   C     C_R   0.108716 0.690015 0.288082 -0.157191
C94   C     C_R   0.558012 0.936690 0.433645 0.008074
C95   C     C_R   0.457467 0.996298 0.591682 0.005235
C96   C     C_R   0.085668 0.380344 0.515101 0.006099
C97   C     C_R   0.089696 0.563664 0.428974 0.005666
C98   C     C_R   0.429828 0.551036 0.956014 0.005401
C99   C     C_R   0.569395 0.449570 0.044051 0.004765
C100  C     C_R   0.602346 0.951031 0.480540 0.004281
C101  C     C_R   0.415506 0.971165 0.551541 -0.002128
C102  C     C_R   0.480512 0.596110 0.963553 0.005154
F1    F     F_    0.278769 0.911810 0.279139 -0.599576
F2    F     F_    0.109184 0.145667 0.540038 -0.677737
F3    F     F_    0.753057 0.394946 0.141951 -0.650361
F4    F     F_    0.246547 0.605422 0.857684 -0.630167
F5    F     F_    0.221727 0.893071 0.618822 -0.624459
F6    F     F_    0.829776 0.886831 0.497470 -0.671329
F7    F     F_    0.491785 0.175595 0.118666 -0.675998
F8    F     F_    0.507831 0.824923 0.881071 -0.682591
F9    F     F_    0.112455 0.535829 0.143738 -0.672063
F10   F     F_    0.136228 0.385337 0.777830 -0.621636
F11   F     F_    0.715642 0.093741 0.710116 -0.629427
F12   F     F_    0.034970 0.239117 0.238169 -0.625500
F13   F     F_    0.086735 0.722039 0.722692 -0.583087
F14   F     F_    0.285007 0.280824 0.910510 -0.573908
F15   F     F_    0.715056 0.719337 0.089037 -0.599518
F16   F     F_    0.392143 0.113949 0.760329 -0.631215
F17   F     F_    0.611359 0.863789 0.233252 -0.633224
F18   F     F_    0.130858 0.778391 0.383157 -0.634905
H1    H     H_    0.273024 0.054152 0.768751 0.195979
H2    H     H_    0.383840 0.814651 0.844567 0.198760
H3    H     H_    0.111116 0.672755 0.166579 0.198295
H4    H     H_    0.123042 0.252809 0.758596 0.207485
H5    H     H_    0.744339 0.858421 0.268956 0.207687
H6    H     H_    0.117671 0.757774 0.250745 0.205434
H7    H     H_    0.113150 0.169045 0.675278 0.187451
H8    H     H_    0.705533 0.263011 0.164489 0.204732
H9    H     H_    0.294190 0.737530 0.834887 0.221581
H10   H     H_    0.206141 0.991802 0.710431 0.194891
H11   H     H_    0.821775 0.870726 0.357928 0.195295
H12   H     H_    0.615944 0.185894 0.154743 0.197799
O1    O     O_R   0.982940 0.138950 0.510160 -0.578070
O2    O     O_R   0.982940 0.510160 0.138950 -0.586993
O3    O     O_R   0.861050 0.017060 0.489840 -0.596183
O4    O     O_R   0.138950 0.982940 0.510160 -0.566834
O5    O     O_R   0.867700 0.025880 0.612340 -0.567180
O6    O     O_R   0.132300 0.974120 0.387660 -0.564343
O7    O     O_R   0.025880 0.612340 0.867700 -0.550999
O8    O     O_R   0.974120 0.387660 0.132300 -0.537169
O9    O     O_R   0.612340 0.867700 0.025880 -0.551052
O10   O     O_R   0.387660 0.132300 0.974120 -0.550588
O11   O     O_R   0.387660 0.974120 0.132300 -0.579693
O12   O     O_R   0.017060 0.861050 0.489840 -0.553987
O13   O     O_R   0.612340 0.025880 0.867700 -0.591746
O14   O     O_R   0.132300 0.387660 0.974120 -0.567879
O15   O     O_R   0.867700 0.612340 0.025880 -0.572928
O16   O     O_R   0.974120 0.132300 0.387660 -0.560864
O17   O     O_R   0.025880 0.867700 0.612340 -0.561756
O18   O     O_R   0.138950 0.510160 0.982940 -0.567674
O19   O     O_R   0.861050 0.489840 0.017060 -0.604360
O20   O     O_R   0.510160 0.982940 0.138950 -0.550735
O21   O     O_R   0.489840 0.017060 0.861050 -0.556180
O22   O     O_R   0.489840 0.861050 0.017060 -0.602561
O23   O     O_R   0.510160 0.138950 0.982940 -0.601029
O24   O     O_R   0.017060 0.489840 0.861050 -0.606641
Zn1   Zn    Zn3+2 0.004880 0.004880 0.583590 1.161890
Zn2   Zn    Zn3+2 0.995120 0.995120 0.416410 1.153879
Zn3   Zn    Zn3+2 0.004880 0.583590 0.004880 1.157895
Zn4   Zn    Zn3+2 0.995120 0.416410 0.995120 1.143980
Zn5   Zn    Zn3+2 0.583590 0.004880 0.004880 1.140264
Zn6   Zn    Zn3+2 0.416410 0.995120 0.995120 1.152120

loop_
_geom_bond_atom_site_label_1
_geom_bond_atom_site_label_2
_ccdc_geom_bond_type
O9    Zn5   S    
C6    C45   A    
C32   C48   A    
C74   C94   A    
C17   O18   A    
O15   Zn3   S    
C50   C79   A    
C72   C85   A    
C75   C95   A    
C14   C46   S    
O23   Zn5   S    
C84   H3    S    
C24   C36   S    
C91   H7    S    
C54   F5    S    
C69   C83   A    
C27   O4    A    
C23   O7    A    
C16   O12   A    
C35   C62   A    
C79   C93   A    
C80   C87   A    
C58   C71   A    
C57   C59   A    
C54   C68   A    
C76   C98   A    
C14   O16   A    
C89   H9    S    
C2    C32   A    
C49   C81   A    
O6    Zn2   S    
C93   H6    S    
C3    C12   A    
C4    C96   A    
C63   F12   S    
C53   F4    S    
C47   F16   S    
C78   C96   A    
C66   F15   S    
C1    C28   A    
C21   O22   A    
C15   C29   A    
C16   O17   A    
C10   C96   A    
C83   H4    S    
C82   H10   S    
C36   C63   A    
C8    C101  A    
C9    C95   A    
O11   Zn6   S    
C12   C98   A    
O20   Zn5   S    
C19   C42   S    
C9    C29   A    
C76   C89   A    
O2    Zn3   S    
C11   C31   A    
C33   C59   A    
C40   C59   A    
C40   C66   A    
C23   O24   A    
C12   C32   A    
C39   C65   A    
C44   C65   A    
C42   C81   A    
C41   C62   A    
C3    C73   A    
C15   C35   A    
C4    C69   A    
C79   C97   A    
C1    C34   A    
C20   C41   S    
C38   C64   A    
C22   O23   A    
C27   C34   S    
C77   C90   A    
C27   O6    A    
O18   Zn3   S    
C58   F9    S    
C7    C46   A    
O24   Zn4   S    
C8    C94   A    
C68   C101  A    
C72   C102  A    
C62   F11   S    
C80   H11   S    
C18   O15   A    
C20   O21   A    
C33   C92   A    
C2    C44   A    
C85   C89   A    
C18   O19   A    
C51   F2    S    
C98   C102  A    
C34   C61   A    
C24   O8    A    
C31   C37   A    
C15   C55   A    
C13   C99   A    
C77   C99   A    
C25   O5    A    
C1    C54   A    
C47   C70   A    
C13   C33   A    
C37   C38   A    
C60   F10   S    
C7    C51   A    
C10   C30   A    
C57   F8    S    
C94   C100  A    
C22   O10   A    
C19   O20   A    
C85   H2    S    
O16   Zn2   S    
C6    C50   A    
C4    C11   A    
C26   C58   A    
C42   C61   A    
C55   F6    S    
C67   C100  A    
C25   C35   S    
O4    Zn1   S    
C26   C36   A    
C5    C97   A    
C52   F3    S    
C26   C30   A    
C9    C100  A    
C86   C90   A    
C74   C87   A    
C65   F14   S    
C50   F18   S    
C52   C92   A    
C53   C76   A    
O12   Zn2   S    
C52   C77   A    
C56   F7    S    
C87   H5    S    
C71   C84   A    
C24   O2    A    
C48   C56   A    
C19   O11   A    
C56   C73   A    
C61   F1    S    
C28   C81   A    
C49   C74   A    
O22   Zn6   S    
C67   C80   A    
C88   H1    S    
C47   C75   A    
C2    C53   A    
C64   F13   S    
C16   C45   S    
O10   Zn6   S    
C55   C67   A    
C14   O1    A    
C78   C91   A    
C23   C38   S    
C83   C91   A    
C46   C63   A    
C45   C64   A    
C43   C92   A    
O5    Zn1   S    
O21   Zn6   S    
C11   C97   A    
C68   C82   A    
O19   Zn4   S    
C17   O14   A    
C17   C44   S    
C21   O9    A    
C5    C10   A    
C5    C71   A    
C18   C43   S    
O8    Zn4   S    
C86   H12   S    
C49   F17   S    
C21   C40   S    
O13   Zn5   S    
C60   C69   A    
C43   C66   A    
C82   C88   A    
C22   C39   S    
C6    C31   A    
C29   C70   A    
O1    Zn1   S    
C84   C93   A    
C57   C72   A    
C25   O3    A    
C73   C86   A    
C51   C78   A    
C37   C60   A    
O7    Zn3   S    
C3    C99   A    
C75   C88   A    
O14   Zn4   S    
C8    C28   A    
C7    C30   A    
O3    Zn2   S    
C90   H8    S    
C20   O13   A    
C41   C70   A    
C13   C102  A    
O17   Zn1   S    
C95   C101  A    
C39   C48   A    
