data_mof_unit_16349.cif
_audit_creation_date              2012-12-11T18:13:28-0500
_audit_creation_method            fapswitch 2.2
_symmetry_space_group_name_H-M    P1
_symmetry_Int_Tables_number       1
_space_group_crystal_system       triclinic
_cell_length_a                    8.219478
_cell_length_b                    12.84128
_cell_length_c                    18.708019
_cell_angle_alpha                 99.745405
_cell_angle_beta                  91.173468
_cell_angle_gamma                 98.564967
_cell_volume                      1922.29162312

loop_
_atom_site_label
_atom_site_type_symbol
_atom_type_description
_atom_site_fract_x
_atom_site_fract_y
_atom_site_fract_z
_atom_type_partial_charge
Ba1   Ba    Ba6+2 0.852780 0.548340 0.465070 1.627152
Ba2   Ba    Ba6+2 0.337060 0.451750 0.534940 1.633065
C1    C     C_3   0.641899 0.903018 0.249016 -0.253560
C2    C     C_R   0.891740 0.391583 0.093801 0.031645
C3    C     C_R   0.728228 0.348574 0.070935 -0.085451
C4    C     C_3   0.096195 0.767026 0.262015 0.463399
C5    C     C_R   0.667383 0.355413 0.001826 -0.092427
C6    C     C_R   0.769362 0.404375 0.953789 0.029771
C7    C     C_R   0.933483 0.448341 0.975945 0.013932
C8    C     C_R   0.709779 0.408362 0.883746 -0.112201
C9    C     C_R   0.812771 0.453200 0.833703 -0.043296
C10   C     C_R   0.976356 0.501371 0.856478 -0.005151
C11   C     C_R   0.035963 0.498410 0.927908 -0.008208
C12   C     C_3   0.658676 0.811982 0.290856 0.285832
C13   C     C_R   0.758353 0.448998 0.761014 -0.004621
C14   C     C_R   0.866466 0.490032 0.712081 -0.294947
C15   C     C_R   0.024503 0.544555 0.734126 0.045352
C16   C     C_3   0.056156 0.800516 0.189530 -0.311344
C17   C     C_R   0.080662 0.551674 0.808029 -0.046028
C18   C     C_R   0.158689 0.485662 0.068910 -0.007831
C19   C     C_R   0.218146 0.483003 0.140366 -0.006191
C20   C     C_R   0.111006 0.437819 0.189949 -0.041596
C21   C     C_R   0.951914 0.386506 0.163843 -0.047834
C22   C     C_R   0.238609 0.604568 0.834955 -0.038661
C23   C     C_3   0.482360 0.286236 0.315262 0.354805
C24   C     C_R   0.301028 0.595718 0.903959 0.035598
C25   C     C_R   0.199502 0.542714 0.950737 0.006304
C26   C     C_R   0.261635 0.534824 0.020658 0.013801
C27   C     C_R   0.465351 0.637291 0.926425 -0.076577
C28   C     C_3   0.234940 0.784826 0.619580 0.282540
C29   C     C_R   0.528219 0.626547 0.994428 -0.067577
C30   C     C_R   0.426856 0.576577 0.042256 0.041293
C31   C     C_R   0.383588 0.527870 0.162466 -0.048268
C32   C     C_R   0.487674 0.570131 0.111753 -0.090458
C33   C     C_R   0.436245 0.535462 0.235985 0.010736
C34   C     C_3   0.453194 0.248513 0.233787 -0.396276
C35   C     C_R   0.326416 0.498130 0.285321 -0.301088
C36   C     C_R   0.166109 0.447987 0.264065 0.039679
C37   C     C_R   0.748149 0.180191 0.536114 -0.228728
C38   C     C_R   0.426505 0.806795 0.471500 -0.284224
C39   C     C_R   0.412952 0.974344 0.432238 -0.114887
C40   C     C_3   0.251046 0.906071 0.635439 -0.348792
C41   C     C_R   0.339997 0.871515 0.437823 0.004209
C42   C     C_R   0.577622 0.847481 0.508691 0.060892
C43   C     C_R   0.641990 0.958547 0.514350 -0.052876
C44   C     C_R   0.557003 0.024067 0.476137 -0.078865
C45   C     C_3   0.063660 0.239368 0.735993 0.364787
C46   C     C_R   0.615068 0.136482 0.487366 0.044545
C47   C     C_R   0.847729 0.115486 0.562322 0.002887
C48   C     C_R   0.790794 0.005627 0.554918 -0.092998
C49   C     C_3   0.025041 0.200107 0.366452 0.394937
C50   C     C_3   0.946716 0.084177 0.345873 -0.295271
C51   C     C_3   0.730265 0.708372 0.682671 0.315340
C52   C     C_3   0.752809 0.746220 0.764336 -0.403427
C53   C     C_1   0.537794 0.867471 0.182099 0.341425
C54   C     C_1   0.349664 0.012948 0.371118 0.327270
C55   C     C_3   0.083404 0.214782 0.812130 -0.365119
C56   C     C_3   0.557648 0.183958 0.704001 0.352411
C57   C     C_3   0.602671 0.104168 0.749620 -0.410401
C58   C     C_R   0.994674 0.442188 0.046329 0.007607
H1    H     H_    0.757193 0.840558 0.334149 0.084188
H2    H     H_    0.629761 0.638860 0.671944 0.064482
H3    H     H_    0.589810 0.967077 0.283814 0.061504
H4    H     H_    0.857780 0.812775 0.776738 0.129098
H5    H     H_    0.777945 0.679978 0.791874 0.056204
H6    H     H_    0.639106 0.774605 0.785726 0.118794
H7    H     H_    0.544020 0.791768 0.318564 -0.009282
H8    H     H_    0.369974 0.314044 0.337846 -0.045773
H9    H     H_    0.584385 0.354225 0.324917 0.082493
H10   H     H_    0.343148 0.185548 0.222640 0.127992
H11   H     H_    0.432659 0.315749 0.206443 0.051141
H12   H     H_    0.343607 0.938559 0.680640 0.111265
H13   H     H_    0.562153 0.215371 0.210927 0.125692
H14   H     H_    0.764377 0.937422 0.233281 0.069204
H15   H     H_    0.141764 0.873382 0.182814 0.136288
H16   H     H_    0.144977 0.315531 0.732889 0.094808
H17   H     H_    0.933614 0.249176 0.726618 -0.075413
H18   H     H_    0.213861 0.208479 0.824549 0.149806
H19   H     H_    0.045743 0.279505 0.852475 0.071255
H20   H     H_    0.004899 0.138102 0.816533 0.111278
H21   H     H_    0.671939 0.216990 0.679807 -0.062480
H22   H     H_    0.469012 0.141549 0.659126 0.077119
H23   H     H_    0.290934 0.940108 0.586898 0.083294
H24   H     H_    0.695842 0.145162 0.793033 0.114354
H25   H     H_    0.654637 0.039224 0.714884 0.089939
H26   H     H_    0.013992 0.691551 0.265925 0.096996
H27   H     H_    0.491871 0.069081 0.775314 0.130951
H28   H     H_    0.646666 0.310337 0.106741 0.064631
H29   H     H_    0.540421 0.321789 0.985791 0.072731
H30   H     H_    0.824045 0.483281 0.656118 0.066931
H31   H     H_    0.582848 0.374689 0.868797 0.110005
H32   H     H_    0.871044 0.344849 0.198087 0.108419
H33   H     H_    0.317589 0.649658 0.801863 0.096983
H34   H     H_    0.130546 0.930296 0.650921 0.142617
H35   H     H_    0.546157 0.676986 0.890983 0.061537
H36   H     H_    0.655837 0.658827 0.010060 0.072200
H37   H     H_    0.615761 0.601130 0.126145 0.114957
H38   H     H_    0.367659 0.507567 0.341686 0.070622
H39   H     H_    0.864744 0.958644 0.580696 0.107916
H40   H     H_    0.785370 0.266054 0.547817 0.056842
H41   H     H_    0.371995 0.724664 0.471260 0.067389
H42   H     H_    0.067944 0.735151 0.143599 0.072035
H43   H     H_    0.929596 0.818500 0.186540 0.132394
H44   H     H_    0.355488 0.761751 0.605005 0.006552
H45   H     H_    0.159049 0.203593 0.364576 0.069111
H46   H     H_    0.143199 0.754718 0.573618 0.078349
H47   H     H_    0.882885 0.286321 0.435676 0.176135
H48   H     H_    0.074542 0.285794 0.468711 0.243253
H49   H     H_    0.292272 0.707934 0.213659 0.153817
H50   H     H_    0.282143 0.700623 0.301120 0.111826
H51   H     H_    0.810945 0.078525 0.346869 0.093735
H52   H     H_    0.987771 0.037286 0.385543 0.128908
H53   H     H_    0.982676 0.051128 0.290829 0.119836
H54   H     H_    0.846486 0.684454 0.661777 0.013322
N1    N     N_3   0.974717 0.238995 0.438677 -0.513261
N2    N     N_1   0.456883 0.840091 0.128961 -0.314774
N3    N     N_3   0.267516 0.750455 0.263685 -0.514867
N4    N     N_1   0.295950 0.036915 0.319696 -0.296935
O1    O     O_2   0.873090 0.425890 0.325140 -0.448793
O2    O     O_2   0.186388 0.121125 0.551087 -0.471232
O3    O     O_3   0.107695 0.155268 0.685489 -0.597239
O4    O     O_3   0.122420 0.434370 0.414380 -0.510831
O5    O     O_3   0.578370 0.633800 0.536380 -0.490879
O6    O     O_2   0.341510 0.231850 0.465510 -0.489411
O7    O     O_3   0.522994 0.200900 0.346219 -0.633883
O8    O     O_2   0.418758 0.455576 0.756185 -0.495935
O9    O     O_3   0.482777 0.261788 0.748030 -0.597559
O10   O     O_3   0.659500 0.627100 0.368810 -0.480816
O11   O     O_2   0.773092 0.537866 0.244965 -0.496279
O12   O     O_3   0.690804 0.792758 0.650629 -0.640906
O13   O     O_3   0.971032 0.256455 0.315336 -0.632568
O14   O     O_3   0.701843 0.724967 0.242822 -0.622220
O15   O     O_2   0.848200 0.768190 0.534530 -0.469861
O16   O     O_3   0.081160 0.685950 0.404810 -0.489851
O17   O     O_2   0.008095 0.877257 0.456356 -0.489493
O18   O     O_3   0.069250 0.849014 0.318849 -0.603651
O19   O     O_2   0.316610 0.574140 0.674900 -0.468721
O20   O     O_3   0.067290 0.565720 0.585630 -0.500035
O21   O     O_3   0.530210 0.372990 0.631200 -0.468825
O22   O     O_3   0.186430 0.745282 0.682248 -0.638373
O23   O     O_3   0.611340 0.366290 0.463630 -0.483261
O24   O     O_3   0.108550 0.314140 0.595200 -0.495943
P1    P     P_3+3 0.041040 0.394770 0.336330 0.959397
P2    P     P_3+3 0.672880 0.754030 0.556100 0.968017
P3    P     P_3+3 0.124561 0.821565 0.404423 0.954251
P4    P     P_3+3 0.148670 0.605320 0.663680 0.968609
P5    P     P_3+3 0.060170 0.176388 0.597966 0.952237
P6    P     P_3+3 0.640495 0.604909 0.273929 0.929436
P7    P     P_3+3 0.524310 0.231880 0.441020 0.942074
P8    P     P_3+3 0.548509 0.387385 0.725081 0.948102

loop_
_geom_bond_atom_site_label_1
_geom_bond_atom_site_label_2
_ccdc_geom_bond_type
O6    P7    D    
C14   H30   S    
C16   H15   S    
O1    P1    D    
C36   P1    S    
C55   H19   S    
Ba1   O10   S    
C57   H25   S    
H49   N3    S    
C5    C6    A    
C52   H5    S    
C12   O14   S    
C51   C52   S    
C51   H54   S    
C48   H39   S    
Ba1   P1    S    
Ba2   O21   S    
H48   N1    S    
C33   C35   A    
C22   C24   A    
C45   H16   S    
C56   H22   S    
O9    P8    S    
Ba1   O1    S    
C45   O3    S    
C19   C31   A    
C53   N2    T    
C50   H52   S    
C12   H7    S    
C13   C14   A    
C20   C36   A    
C32   H37   S    
C47   P5    S    
Ba1   Ba2   S    
C16   H42   S    
C1    H14   S    
C7    C11   A    
Ba1   O4    S    
O11   P6    D    
C4    O18   S    
C31   C33   A    
C38   H41   S    
C3    H28   S    
C1    C53   S    
C38   C41   A    
C14   C15   A    
O17   P3    D    
O5    P2    S    
C39   C44   A    
O3    P5    S    
C18   C58   A    
O12   P2    S    
C4    N3    S    
O18   P3    S    
C21   H32   S    
C34   H11   S    
C49   H45   S    
C33   P6    S    
C56   O9    S    
C46   P7    S    
C28   H46   S    
C39   C41   A    
C55   H20   S    
C23   H8    S    
C9    C13   A    
O4    P1    S    
Ba1   O15   S    
O24   P5    S    
H50   N3    S    
C35   H38   S    
C34   H10   S    
Ba2   O4    S    
C4    C16   S    
C44   C46   A    
C28   O22   S    
O23   P7    S    
C49   C50   S    
Ba2   O20   S    
O19   P4    D    
C26   C30   A    
C57   H24   S    
C34   H13   S    
C56   H21   S    
O22   P4    S    
C3    C5    A    
C2    C21   A    
C49   O13   S    
C6    C7    A    
C18   C26   A    
C50   H51   S    
C56   C57   S    
C50   H53   S    
C12   H1    S    
C49   N1    S    
O14   P6    S    
Ba1   O5    S    
C39   C54   S    
C35   C36   A    
C41   P3    S    
C45   C55   S    
C51   H2    S    
C29   C30   A    
C42   P2    S    
C2    C58   A    
C40   H12   S    
C31   C32   A    
C24   C25   A    
C10   C11   A    
H47   N1    S    
C1    C12   S    
O7    P7    S    
O2    P5    D    
C37   C47   A    
C8    H31   S    
Ba2   O6    S    
Ba2   O24   S    
C23   H9    S    
C45   H17   S    
Ba1   O16   S    
O13   P1    S    
C42   C43   A    
C27   H35   S    
O16   P3    S    
O15   P2    D    
C40   H34   S    
Ba2   O19   S    
C54   N4    T    
C55   H18   S    
O10   P6    S    
C40   H23   S    
C2    C3    A    
C9    C10   A    
C52   H6    S    
C1    H3    S    
Ba2   P4    S    
O21   P8    S    
C4    H26   S    
C7    C58   A    
C17   C22   A    
C27   C29   A    
Ba1   P2    S    
C22   H33   S    
O8    P8    D    
C37   H40   S    
C52   H4    S    
C43   C48   A    
O20   P4    S    
C10   C17   A    
C23   O7    S    
C15   C17   A    
C15   P4    S    
C28   C40   S    
C16   H43   S    
C57   H27   S    
Ba1   O23   S    
C8    C9    A    
C23   C34   S    
C43   C44   A    
C38   C42   A    
C18   C19   A    
C24   C27   A    
C6    C8    A    
C47   C48   A    
C28   H44   S    
C25   C26   A    
Ba2   O23   S    
C20   C21   A    
C11   C25   A    
C51   O12   S    
C19   C20   A    
C13   P8    S    
Ba2   O5    S    
Ba1   O20   S    
C29   H36   S    
C30   C32   A    
C37   C46   A    
C5    H29   S    
