data_mof_unit_39044.cif
_audit_creation_date              2012-12-11T15:07:05-0500
_audit_creation_method            fapswitch 2.2
_symmetry_space_group_name_H-M    P1
_symmetry_Int_Tables_number       1
_space_group_crystal_system       triclinic
_cell_length_a                    19.665648
_cell_length_b                    11.275914
_cell_length_c                    18.716375
_cell_angle_alpha                 90.001284
_cell_angle_beta                  90.21999
_cell_angle_gamma                 90.000387
_cell_volume                      4150.29104239

loop_
_atom_site_label
_atom_site_type_symbol
_atom_type_description
_atom_site_fract_x
_atom_site_fract_y
_atom_site_fract_z
_atom_type_partial_charge
C1    C     C_R   0.761857 0.522459 0.638700 0.538463
C2    C     C_R   0.238146 0.522470 0.361296 0.538435
C3    C     C_R   0.261856 0.022464 0.638702 0.538456
C4    C     C_R   0.738147 0.022470 0.361296 0.538452
C5    C     C_3   0.808611 0.128845 0.450221 -0.248239
C6    C     C_3   0.191394 0.128838 0.549778 -0.248249
C7    C     C_3   0.308609 0.628848 0.450217 -0.248229
C8    C     C_3   0.691387 0.628806 0.549776 -0.248204
C9    C     C_3   0.745377 0.054920 0.437501 0.043996
C10   C     C_3   0.254627 0.054916 0.562496 0.044020
C11   C     C_3   0.245375 0.554922 0.437498 0.043997
C12   C     C_3   0.754627 0.554903 0.562495 0.044001
C13   C     C_3   0.758163 0.088499 0.575073 0.058097
C14   C     C_3   0.241848 0.088485 0.424920 0.058113
C15   C     C_3   0.258165 0.588506 0.575068 0.058056
C16   C     C_3   0.741848 0.588477 0.424920 0.058101
C17   C     C_3   0.751046 0.955685 0.562709 -0.264436
C18   C     C_3   0.248977 0.955674 0.437289 -0.264509
C19   C     C_3   0.251027 0.455699 0.562707 -0.264434
C20   C     C_3   0.748978 0.455666 0.437285 -0.264492
C21   C     C_3   0.820735 0.130963 0.531008 -0.210380
C22   C     C_3   0.179277 0.130963 0.468987 -0.210355
C23   C     C_3   0.320740 0.630955 0.531004 -0.210392
C24   C     C_3   0.679275 0.630945 0.468986 -0.210356
C25   C     C_3   0.008035 0.204241 0.459644 0.253487
C26   C     C_3   0.991979 0.204238 0.540354 0.253479
C27   C     C_3   0.508035 0.704240 0.459647 0.253492
C28   C     C_3   0.491983 0.704238 0.540360 0.253477
C29   C     C_3   0.064323 0.406330 0.474676 -0.291253
C30   C     C_3   0.935655 0.406286 0.525321 -0.291234
C31   C     C_3   0.564325 0.906325 0.474675 -0.291236
C32   C     C_3   0.435652 0.906282 0.525319 -0.291229
C33   C     C_3   0.941304 0.387233 0.444487 -0.275332
C34   C     C_3   0.058687 0.387268 0.555507 -0.275309
C35   C     C_3   0.441305 0.887232 0.444486 -0.275319
C36   C     C_3   0.558681 0.887278 0.555508 -0.275293
C37   C     C_3   0.010952 0.332608 0.431025 0.041682
C38   C     C_3   0.989045 0.332607 0.568973 0.041697
C39   C     C_3   0.510952 0.832607 0.431026 0.041689
C40   C     C_3   0.489042 0.832608 0.568973 0.041708
C41   C     C_3   0.814249 0.016314 0.045517 -0.225566
C42   C     C_3   0.185740 0.016318 0.954479 -0.225510
C43   C     C_3   0.314258 0.516331 0.045523 -0.225524
C44   C     C_3   0.685745 0.516298 0.954482 -0.225521
C45   C     C_R   0.773438 0.119736 0.650077 0.530956
C46   C     C_R   0.226573 0.119710 0.349911 0.530930
C47   C     C_R   0.273436 0.619732 0.650076 0.530932
C48   C     C_R   0.726573 0.619709 0.349910 0.530929
C49   C     C_3   0.819493 0.030695 0.966191 -0.227411
C50   C     C_3   0.180507 0.030680 0.033809 -0.227402
C51   C     C_3   0.319496 0.530707 0.966195 -0.227413
C52   C     C_3   0.680510 0.530660 0.033812 -0.227398
C53   C     C_3   0.683451 0.030371 0.030863 -0.216105
C54   C     C_3   0.316546 0.030393 0.969120 -0.216077
C55   C     C_3   0.183457 0.530406 0.030882 -0.216080
C56   C     C_3   0.816548 0.530375 0.969125 -0.216092
C57   C     C_3   0.753950 0.204268 0.061732 -0.261148
C58   C     C_3   0.246041 0.204291 0.938275 -0.261138
C59   C     C_3   0.253964 0.704303 0.061738 -0.261145
C60   C     C_3   0.746044 0.704269 0.938276 -0.261134
C61   C     C_3   0.747372 0.070967 0.074735 0.060968
C62   C     C_3   0.252619 0.070987 0.925259 0.060998
C63   C     C_3   0.247383 0.571003 0.074745 0.060992
C64   C     C_3   0.752622 0.570970 0.925262 0.060987
C65   C     C_3   0.759753 0.105466 0.935978 0.061350
C66   C     C_3   0.240247 0.105456 0.064022 0.061341
C67   C     C_3   0.259759 0.605484 0.935985 0.061333
C68   C     C_3   0.740248 0.605443 0.064025 0.061349
C69   C     C_3   0.695895 0.031010 0.948927 -0.260313
C70   C     C_3   0.304111 0.031017 0.051059 -0.260332
C71   C     C_3   0.195897 0.531039 0.948944 -0.260325
C72   C     C_3   0.804113 0.531005 0.051064 -0.260329
C73   C     C_3   0.749055 0.223101 0.979546 -0.218387
C74   C     C_3   0.250936 0.223100 0.020466 -0.218334
C75   C     C_3   0.249070 0.723125 0.979550 -0.218356
C76   C     C_3   0.750937 0.723083 0.020465 -0.218338
C77   C     C_3   0.004568 0.478435 0.040050 -0.227763
C78   C     C_3   0.995422 0.478434 0.959954 -0.227775
C79   C     C_3   0.504570 0.978432 0.040051 -0.227765
C80   C     C_3   0.495421 0.978432 0.959954 -0.227770
C81   C     C_3   0.063937 0.274541 0.026588 -0.214882
C82   C     C_3   0.936068 0.274530 0.973409 -0.214901
C83   C     C_3   0.563935 0.774535 0.026591 -0.214889
C84   C     C_3   0.436070 0.774529 0.973408 -0.214900
C85   C     C_3   0.941724 0.292258 0.055242 -0.262329
C86   C     C_3   0.058282 0.292276 0.944755 -0.262326
C87   C     C_3   0.441722 0.792259 0.055242 -0.262327
C88   C     C_3   0.558283 0.792273 0.944758 -0.262327
C89   C     C_R   0.968851 0.342104 0.644857 0.567507
C90   C     C_R   0.031147 0.342105 0.355142 0.567490
C91   C     C_R   0.468849 0.842105 0.644856 0.567513
C92   C     C_R   0.531147 0.842104 0.355142 0.567479
C93   C     C_3   0.010779 0.350094 0.069271 0.062256
C94   C     C_3   0.989221 0.350095 0.930728 0.062251
C95   C     C_3   0.510777 0.850092 0.069272 0.062254
C96   C     C_3   0.489223 0.850093 0.930728 0.062240
C97   C     C_R   0.760603 0.534261 0.848814 0.536028
C98   C     C_R   0.239402 0.534285 0.151192 0.535993
C99   C     C_R   0.260601 0.034272 0.848811 0.536017
C100  C     C_R   0.739386 0.034225 0.151175 0.536065
C101  C     C_R   0.774247 0.133090 0.858977 0.530604
C102  C     C_R   0.225758 0.133076 0.141027 0.530583
C103  C     C_R   0.274250 0.633099 0.858981 0.530608
C104  C     C_R   0.725757 0.633074 0.141027 0.530585
C105  C     C_R   0.968339 0.353008 0.854158 0.536202
C106  C     C_R   0.031661 0.353007 0.145841 0.536201
C107  C     C_R   0.468341 0.853007 0.854158 0.536197
C108  C     C_R   0.531659 0.853007 0.145843 0.536192
C109  C     C_3   0.685738 0.131207 0.465773 -0.230242
C110  C     C_3   0.314262 0.131222 0.534228 -0.230204
C111  C     C_3   0.185735 0.631208 0.465765 -0.230199
C112  C     C_3   0.814257 0.631222 0.534229 -0.230210
C113  C     C_3   0.690825 0.144160 0.547133 -0.226462
C114  C     C_3   0.309184 0.144142 0.452867 -0.226485
C115  C     C_3   0.190839 0.644204 0.547126 -0.226458
C116  C     C_3   0.809182 0.644140 0.452869 -0.226487
C117  C     C_3   0.754798 0.936946 0.481343 -0.224254
C118  C     C_3   0.245196 0.936940 0.518646 -0.224306
C119  C     C_3   0.254788 0.436951 0.481344 -0.224256
C120  C     C_3   0.745204 0.436925 0.518644 -0.224288
Cr1   Cr    Cr6+3 0.885690 0.492860 0.745310 0.998694
Cr2   Cr    Cr6+3 0.114310 0.492860 0.254690 0.998692
Cr3   Cr    Cr6+3 0.385690 0.992860 0.745310 0.998691
Cr4   Cr    Cr6+3 0.614310 0.992860 0.254690 0.998696
Cr5   Cr    Cr6+3 0.729880 0.332270 0.748190 1.009196
Cr6   Cr    Cr6+3 0.270120 0.332270 0.251810 1.009195
Cr7   Cr    Cr6+3 0.229880 0.832270 0.748190 1.009205
Cr8   Cr    Cr6+3 0.770120 0.832270 0.251810 1.009194
Cr9   Cr    Cr6+3 0.888120 0.178590 0.753010 1.031184
Cr10  Cr    Cr6+3 0.111880 0.178590 0.246990 1.031197
Cr11  Cr    Cr6+3 0.388120 0.678590 0.753010 1.031180
Cr12  Cr    Cr6+3 0.611880 0.678590 0.246990 1.031186
H1    H     H_    0.636774 0.095722 0.450010 0.138020
H2    H     H_    0.363236 0.095794 0.550017 0.138016
H3    H     H_    0.136764 0.595683 0.450012 0.138024
H4    H     H_    0.863235 0.595804 0.550018 0.138018
H5    H     H_    0.860599 0.063413 0.541449 0.155734
H6    H     H_    0.139407 0.063426 0.458544 0.155746
H7    H     H_    0.360600 0.563396 0.541439 0.155741
H8    H     H_    0.639404 0.563409 0.458534 0.155743
H9    H     H_    0.807388 0.906974 0.471114 0.135095
H10   H     H_    0.192588 0.907038 0.528830 0.135074
H11   H     H_    0.307376 0.406967 0.471121 0.135095
H12   H     H_    0.692605 0.406985 0.528839 0.135056
H13   H     H_    0.792685 0.907016 0.590231 0.125770
H14   H     H_    0.207380 0.906972 0.409743 0.125750
H15   H     H_    0.292653 0.407013 0.590239 0.125758
H16   H     H_    0.707376 0.406971 0.409740 0.125757
H17   H     H_    0.055764 0.162662 0.450476 0.172685
H18   H     H_    0.944257 0.162630 0.549515 0.172702
H19   H     H_    0.555764 0.662661 0.450476 0.172687
H20   H     H_    0.444265 0.662611 0.549533 0.172709
H21   H     H_    0.616157 0.891674 0.455953 0.113146
H22   H     H_    0.383821 0.891606 0.544036 0.113156
H23   H     H_    0.116156 0.391710 0.455947 0.113154
H24   H     H_    0.883827 0.391606 0.544040 0.113155
H25   H     H_    0.599587 0.828349 0.575280 0.161952
H26   H     H_    0.400414 0.828276 0.424710 0.161948
H27   H     H_    0.099590 0.328323 0.575268 0.161937
H28   H     H_    0.900413 0.328278 0.424712 0.161948
H29   H     H_    0.936499 0.473143 0.416072 0.125990
H30   H     H_    0.063498 0.473181 0.583925 0.126006
H31   H     H_    0.436501 0.973143 0.416071 0.125989
H32   H     H_    0.563480 0.973197 0.583919 0.125996
H33   H     H_    0.948820 0.500475 0.534698 0.149249
H34   H     H_    0.051124 0.500510 0.465306 0.149240
H35   H     H_    0.448818 0.000471 0.534694 0.149245
H36   H     H_    0.551143 0.000509 0.465295 0.149241
H37   H     H_    0.819455 0.922499 0.058475 0.137565
H38   H     H_    0.180521 0.922492 0.941508 0.137570
H39   H     H_    0.319463 0.422506 0.058480 0.137573
H40   H     H_    0.680530 0.422474 0.941512 0.137570
H41   H     H_    0.686527 0.220055 0.440719 0.111491
H42   H     H_    0.313449 0.220087 0.559270 0.111464
H43   H     H_    0.186514 0.720058 0.440684 0.111477
H44   H     H_    0.813436 0.720087 0.559271 0.111466
H45   H     H_    0.858891 0.058479 0.071777 0.117933
H46   H     H_    0.141093 0.058507 0.928228 0.117898
H47   H     H_    0.358906 0.558495 0.071780 0.117908
H48   H     H_    0.641098 0.558482 0.928231 0.117907
H49   H     H_    0.868948 0.069022 0.954105 0.133743
H50   H     H_    0.131047 0.068988 0.045908 0.133755
H51   H     H_    0.368953 0.569017 0.954103 0.133742
H52   H     H_    0.631047 0.568957 0.045909 0.133753
H53   H     H_    0.820460 0.941951 0.940413 0.117072
H54   H     H_    0.179555 0.941928 0.059577 0.117051
H55   H     H_    0.320455 0.441961 0.940420 0.117064
H56   H     H_    0.679561 0.441908 0.059580 0.117049
H57   H     H_    0.662087 0.947830 0.050208 0.110893
H58   H     H_    0.337920 0.947856 0.949760 0.110929
H59   H     H_    0.162096 0.447862 0.050232 0.110935
H60   H     H_    0.837911 0.447836 0.949770 0.110928
H61   H     H_    0.702974 0.939946 0.928469 0.109654
H62   H     H_    0.297044 0.939946 0.071510 0.109649
H63   H     H_    0.202967 0.439970 0.928489 0.109654
H64   H     H_    0.797048 0.439933 0.071517 0.109643
H65   H     H_    0.712674 0.252854 0.089578 0.110980
H66   H     H_    0.287337 0.252878 0.910441 0.110956
H67   H     H_    0.212676 0.752886 0.089582 0.110958
H68   H     H_    0.787339 0.752854 0.910442 0.110963
H69   H     H_    0.802860 0.237685 0.083083 0.109656
H70   H     H_    0.197125 0.237722 0.916916 0.109625
H71   H     H_    0.302879 0.737722 0.083094 0.109628
H72   H     H_    0.697129 0.737693 0.916916 0.109631
H73   H     H_    0.780450 0.295602 0.961322 0.108374
H74   H     H_    0.219530 0.295585 0.038700 0.108368
H75   H     H_    0.280472 0.795624 0.961325 0.108363
H76   H     H_    0.719530 0.795567 0.038695 0.108361
H77   H     H_    0.696130 0.250615 0.968834 0.117534
H78   H     H_    0.303859 0.250630 0.031193 0.117526
H79   H     H_    0.196146 0.750647 0.968831 0.117532
H80   H     H_    0.803859 0.750613 0.031192 0.117532
H81   H     H_    0.644015 0.098026 0.041130 0.118933
H82   H     H_    0.355973 0.098081 0.958856 0.118922
H83   H     H_    0.144023 0.598065 0.041153 0.118933
H84   H     H_    0.855980 0.598040 0.958855 0.118927
H85   H     H_    0.685810 0.236681 0.562836 0.143845
H86   H     H_    0.314226 0.236630 0.437146 0.143856
H87   H     H_    0.185899 0.736744 0.562789 0.143838
H88   H     H_    0.814221 0.736630 0.437147 0.143852
H89   H     H_    0.651681 0.070150 0.920352 0.111061
H90   H     H_    0.348325 0.070172 0.079628 0.111052
H91   H     H_    0.151685 0.570187 0.920374 0.111067
H92   H     H_    0.848326 0.570164 0.079631 0.111056
H93   H     H_    0.048418 0.532826 0.053938 0.133116
H94   H     H_    0.951571 0.532809 0.946065 0.133115
H95   H     H_    0.548422 0.032810 0.053936 0.133120
H96   H     H_    0.451560 0.032793 0.946070 0.133117
H97   H     H_    0.960929 0.524419 0.065393 0.116115
H98   H     H_    0.039055 0.524431 0.934612 0.116120
H99   H     H_    0.460935 0.024426 0.065397 0.116115
H100  H     H_    0.539051 0.024441 0.934608 0.116121
H101  H     H_    0.615407 0.784257 0.046529 0.110997
H102  H     H_    0.384596 0.784244 0.953474 0.111007
H103  H     H_    0.115414 0.284273 0.046522 0.110988
H104  H     H_    0.884592 0.284236 0.953477 0.111002
H105  H     H_    0.599855 0.849128 0.924765 0.109569
H106  H     H_    0.400147 0.849100 0.075241 0.109556
H107  H     H_    0.099853 0.349128 0.924760 0.109560
H108  H     H_    0.900151 0.349098 0.075244 0.109562
H109  H     H_    0.938237 0.205701 0.083303 0.112457
H110  H     H_    0.061776 0.205725 0.916689 0.112450
H111  H     H_    0.438236 0.705706 0.083305 0.112452
H112  H     H_    0.561779 0.705721 0.916690 0.112451
H113  H     H_    0.949570 0.180985 0.962906 0.121498
H114  H     H_    0.050448 0.180989 0.037088 0.121491
H115  H     H_    0.449572 0.680984 0.962906 0.121502
H116  H     H_    0.550446 0.680984 0.037091 0.121491
H117  H     H_    0.646730 0.100812 0.572676 0.111643
H118  H     H_    0.353270 0.100785 0.427344 0.111621
H119  H     H_    0.146727 0.600969 0.572701 0.111679
H120  H     H_    0.853271 0.600787 0.427346 0.111626
H121  H     H_    0.721181 0.866431 0.463695 0.110773
H122  H     H_    0.278773 0.866379 0.536312 0.110767
H123  H     H_    0.221167 0.366447 0.463697 0.110774
H124  H     H_    0.778793 0.366381 0.536306 0.110783
H125  H     H_    0.702445 0.922400 0.584607 0.106220
H126  H     H_    0.297588 0.922420 0.415432 0.106252
H127  H     H_    0.202416 0.422449 0.584599 0.106240
H128  H     H_    0.797588 0.422414 0.415420 0.106247
H129  H     H_    0.851946 0.086821 0.422851 0.231541
H130  H     H_    0.148062 0.086800 0.577139 0.231552
H131  H     H_    0.351943 0.586829 0.422840 0.231546
H132  H     H_    0.648058 0.586739 0.577128 0.231571
H133  H     H_    0.802651 0.219466 0.428413 0.107359
H134  H     H_    0.197344 0.219455 0.571596 0.107378
H135  H     H_    0.302644 0.719474 0.428414 0.107346
H136  H     H_    0.697323 0.719421 0.571604 0.107402
H137  H     H_    0.839395 0.217423 0.548881 0.094131
H138  H     H_    0.160629 0.217428 0.451121 0.094162
H139  H     H_    0.339402 0.717416 0.548875 0.094145
H140  H     H_    0.660631 0.717416 0.451127 0.094166
O1    O     O_R   0.957210 0.449410 0.665480 -0.539433
O2    O     O_R   0.042790 0.449410 0.334520 -0.539435
O3    O     O_R   0.457210 0.949410 0.665480 -0.539435
O4    O     O_R   0.542790 0.949410 0.334520 -0.539434
O5    O     O_R   0.736260 0.212010 0.826560 -0.510765
O6    O     O_R   0.263740 0.212010 0.173440 -0.510764
O7    O     O_R   0.236260 0.712010 0.826560 -0.510761
O8    O     O_R   0.763740 0.712010 0.173440 -0.510777
O9    O     O_R   0.832520 0.095300 0.836000 -0.533841
O10   O     O_R   0.167480 0.095300 0.164000 -0.533844
O11   O     O_R   0.332520 0.595300 0.836000 -0.533840
O12   O     O_R   0.667480 0.595300 0.164000 -0.533842
O13   O     O_R   0.946380 0.253940 0.826940 -0.509894
O14   O     O_R   0.053620 0.253940 0.173060 -0.509893
O15   O     O_R   0.446380 0.753940 0.826940 -0.509893
O16   O     O_R   0.553620 0.753940 0.173060 -0.509897
O17   O     O_3   0.834560 0.334570 0.748840 -0.284928
O18   O     O_3   0.165440 0.334570 0.251160 -0.284905
O19   O     O_3   0.334560 0.834570 0.748840 -0.284923
O20   O     O_3   0.665440 0.834570 0.251160 -0.284921
O21   O     O_R   0.820730 0.541240 0.668250 -0.514506
O22   O     O_R   0.179270 0.541240 0.331750 -0.514512
O23   O     O_R   0.320730 0.041240 0.668250 -0.514509
O24   O     O_R   0.679270 0.041240 0.331750 -0.514498
O25   O     O_R   0.714240 0.455060 0.663710 -0.516419
O26   O     O_R   0.285760 0.455060 0.336290 -0.516419
O27   O     O_R   0.214240 0.955060 0.663710 -0.516409
O28   O     O_R   0.785760 0.955060 0.336290 -0.516410
O29   O     O_R   0.736780 0.204870 0.675910 -0.515406
O30   O     O_R   0.263220 0.204870 0.324090 -0.515403
O31   O     O_R   0.236780 0.704870 0.675910 -0.515394
O32   O     O_R   0.763220 0.704870 0.324090 -0.515402
O33   O     O_R   0.833070 0.087590 0.673490 -0.521912
O34   O     O_R   0.166930 0.087590 0.326510 -0.521899
O35   O     O_R   0.333070 0.587590 0.673490 -0.521903
O36   O     O_R   0.666930 0.587590 0.326510 -0.521902
O37   O     O_R   0.946890 0.246800 0.676300 -0.468520
O38   O     O_R   0.053110 0.246800 0.323700 -0.468507
O39   O     O_R   0.446890 0.746800 0.676300 -0.468532
O40   O     O_R   0.553110 0.746800 0.323700 -0.468512
O41   O     O_R   0.956650 0.457120 0.827980 -0.531656
O42   O     O_R   0.043350 0.457120 0.172020 -0.531656
O43   O     O_R   0.456650 0.957120 0.827980 -0.531654
O44   O     O_R   0.543350 0.957120 0.172020 -0.531659
O45   O     O_R   0.820220 0.548390 0.818890 -0.509525
O46   O     O_R   0.179780 0.548390 0.181110 -0.509525
O47   O     O_R   0.320220 0.048390 0.818890 -0.509526
O48   O     O_R   0.679780 0.048390 0.181110 -0.509531
O49   O     O_R   0.713680 0.462770 0.826210 -0.527009
O50   O     O_R   0.286320 0.462770 0.173790 -0.527003
O51   O     O_R   0.213680 0.962770 0.826210 -0.527009
O52   O     O_R   0.786320 0.962770 0.173790 -0.527021
F1    F     F_    0.962065 0.136831 0.421715 -0.694183
F2    F     F_    0.037957 0.136851 0.578284 -0.694197
F3    F     F_    0.462064 0.636828 0.421721 -0.694195
F4    F     F_    0.537972 0.636873 0.578289 -0.694224

loop_
_geom_bond_atom_site_label_1
_geom_bond_atom_site_label_2
_ccdc_geom_bond_type
C78   H94   S    
C5    H133  S    
C82   C94   S    
C119  H11   S    
C120  H12   S    
C21   H5    S    
C53   C69   S    
C104  O8    A    
C56   H60   S    
C43   C63   S    
C44   C64   S    
Cr6   O6    S    
C102  O10   A    
C84   H115  S    
C112  H4    S    
C63   C98   S    
C51   H51   S    
Cr2   O2    S    
C19   H127  S    
C26   F2    S    
C109  H41   S    
C28   C40   S    
C72   H92   S    
C30   C38   S    
C113  H85   S    
C42   H38   S    
C75   H75   S    
C56   C72   S    
C45   O33   A    
C8    H132  S    
C18   C118  S    
C81   C86   S    
C29   H23   S    
C30   H24   S    
C83   C88   S    
C87   H106  S    
C48   O32   A    
C5    H129  S    
C41   C49   S    
Cr8   O28   S    
Cr1   O45   S    
Cr2   O42   S    
Cr3   O47   S    
Cr4   O48   S    
C26   C38   S    
Cr10  O34   S    
C14   C114  S    
C41   H37   S    
C60   C76   S    
C35   H31   S    
Cr8   O52   S    
C55   H59   S    
C29   H34   S    
C33   H29   S    
C44   H40   S    
C88   H112  S    
C54   C70   S    
C48   O36   A    
C68   C72   S    
C23   H139  S    
C69   H61   S    
C13   C21   S    
C99   O47   A    
C79   H99   S    
C32   H22   S    
C64   C97   S    
C17   H13   S    
C15   C115  S    
C20   C120  S    
C1    O25   A    
C54   H82   S    
C43   H39   S    
C57   H65   S    
C59   C63   S    
C52   H52   S    
Cr4   O20   S    
C72   H64   S    
C57   C61   S    
C82   C85   S    
Cr6   O50   S    
C77   H97   S    
Cr11  O19   S    
C60   C64   S    
Cr9   O13   S    
C13   C45   S    
C102  O6    A    
C78   C94   S    
C91   O3    A    
C69   H89   S    
C95   C108  S    
C60   H68   S    
C62   C99   S    
C107  O43   A    
C5    C21   S    
C58   H70   S    
C79   H95   S    
C31   C36   S    
C47   O35   A    
C4    O28   A    
C97   O45   A    
C55   C71   S    
C90   O38   A    
Cr1   O21   S    
C107  O15   A    
Cr2   O18   S    
C65   C101  S    
Cr10  O14   S    
Cr3   O23   S    
Cr11  O11   S    
C67   C103  S    
C66   C70   S    
Cr5   O5    S    
C37   C90   S    
C24   H140  S    
C41   H45   S    
C42   H46   S    
C55   H83   S    
C115  H119  S    
C66   C74   S    
C113  H117  S    
C25   H17   S    
C57   C73   S    
C53   C61   S    
C60   H72   S    
C83   H101  S    
C55   C63   S    
C6    H134  S    
C56   C64   S    
C7    H131  S    
Cr7   O51   S    
C116  H88   S    
C42   C62   S    
C33   H28   S    
Cr5   O29   S    
C34   H27   S    
C76   H80   S    
C50   H50   S    
C1    C12   S    
Cr9   O33   S    
C80   H100  S    
C2    C11   S    
Cr3   O3    S    
C110  H42   S    
C6    H130  S    
Cr9   O37   S    
C25   C26   S    
C105  O13   A    
C84   H102  S    
C5    C9    S    
C108  O16   A    
C93   C106  S    
C71   H63   S    
C8    C12   S    
C90   O2    A    
C51   C67   S    
C43   H47   S    
C7    H135  S    
C36   H25   S    
C42   C50   S    
C49   H49   S    
C112  H44   S    
Cr2   O46   S    
Cr3   O43   S    
C110  H2    S    
C61   C100  S    
C67   C75   S    
C17   H125  S    
C50   H54   S    
C112  C116  S    
C58   C74   S    
Cr10  O38   S    
Cr11  O35   S    
C53   H81   S    
C54   H58   S    
C81   H114  S    
C30   H33   S    
C34   H30   S    
C68   C76   S    
C1    O21   A    
C98   O46   A    
C85   H108  S    
C14   C22   S    
C3    O23   A    
C7    C23   S    
C8    C24   S    
C40   C91   S    
C101  O9    A    
C56   H84   S    
Cr7   O27   S    
C46   O30   A    
C99   O51   A    
Cr8   O20   S    
C114  H86   S    
C49   H53   S    
C57   H69   S    
C52   H56   S    
Cr7   O7    S    
C4    C9    S    
Cr4   O24   S    
C53   H57   S    
Cr8   O8    S    
C86   H110  S    
C58   C62   S    
C89   O1    A    
C88   C96   S    
C94   C105  S    
C77   H93   S    
C82   H104  S    
C12   C112  S    
C44   H48   S    
C21   H137  S    
C14   C46   S    
C77   C78   S    
C15   C19   S    
C75   H79   S    
C101  O5    A    
C92   O40   A    
C25   F1    S    
C6    C22   S    
C27   F3    S    
Cr5   O17   S    
C2    O22   A    
C73   H73   S    
Cr6   O18   S    
Cr2   O22   S    
C103  O7    A    
Cr3   O19   S    
C46   O34   A    
C82   H113  S    
C17   C117  S    
C19   C119  S    
C81   H103  S    
Cr12  O36   S    
C16   C116  S    
C76   H76   S    
C9    C109  S    
C27   C39   S    
C26   H18   S    
C105  O41   A    
C54   C62   S    
C18   H14   S    
C109  H1    S    
C29   C34   S    
C108  O44   A    
C33   C37   S    
C41   C61   S    
C117  H9    S    
C79   C95   S    
Cr5   O25   S    
Cr6   O30   S    
C70   H62   S    
C85   H109  S    
C86   H107  S    
C80   H96   S    
Cr12  O12   S    
C96   C107  S    
C91   O39   A    
C100  O52   A    
C39   C92   S    
C73   H77   S    
C27   H19   S    
C106  O14   A    
C14   C18   S    
C68   C104  S    
C119  H123  S    
C6    C10   S    
C13   C17   S    
C78   H98   S    
C22   H6    S    
Cr5   O49   S    
C19   H15   S    
C35   H26   S    
C104  O12   A    
C43   C51   S    
Cr11  O39   S    
C65   C69   S    
C77   C93   S    
C70   H90   S    
C10   C110  S    
C67   C71   S    
C111  H3    S    
Cr1   O1    S    
C18   H126  S    
C51   H55   S    
C3    O27   A    
C59   H71   S    
C31   H36   S    
C32   H35   S    
C29   C37   S    
C36   H32   S    
C11   C111  S    
C9    C117  S    
C66   C102  S    
C35   C39   S    
C84   C87   S    
C15   C47   S    
C8    H136  S    
C11   C119  S    
C16   C48   S    
C28   F4    S    
C7    C11   S    
C38   C89   S    
C49   C65   S    
C74   H78   S    
C111  H43   S    
C23   H7    S    
Cr7   O31   S    
Cr8   O32   S    
Cr1   O41   S    
C114  H118  S    
C65   C73   S    
C84   C96   S    
Cr4   O44   S    
C86   C94   S    
C25   C37   S    
C12   C120  S    
C59   H67   S    
C83   H116  S    
Cr12  O20   S    
C80   C96   S    
C118  H122  S    
C52   C68   S    
C16   C20   S    
C22   H138  S    
C15   C23   S    
Cr9   O17   S    
C16   C24   S    
C115  H87   S    
C85   C93   S    
C2    O26   A    
C103  O11   A    
C31   H21   S    
C71   H91   S    
C117  H121  S    
C32   C35   S    
C36   C40   S    
C97   O49   A    
Cr7   O19   S    
C116  H120  S    
C87   C95   S    
C120  H124  S    
C10   C118  S    
C81   C93   S    
C87   H111  S    
C83   C95   S    
Cr10  O18   S    
C20   H16   S    
Cr12  O40   S    
Cr9   O9    S    
C50   C66   S    
C100  O48   A    
C20   H128  S    
C28   H20   S    
C45   O29   A    
C92   O4    A    
C24   H8    S    
C59   C75   S    
C106  O42   A    
C74   H74   S    
C110  C114  S    
C58   H66   S    
C30   C33   S    
C34   C38   S    
C47   O31   A    
C4    O24   A    
C118  H10   S    
C89   O37   A    
Cr6   O26   S    
C109  C113  S    
Cr1   O17   S    
Cr10  O10   S    
C3    C10   S    
Cr11  O15   S    
Cr4   O4    S    
C44   C52   S    
Cr12  O16   S    
C88   H105  S    
C31   C39   S    
C32   C40   S    
C79   C80   S    
C98   O50   A    
C27   C28   S    
C111  C115  S    
C13   C113  S    
