data_mof_unit_8739.cif
_audit_creation_date              2013-03-05T16:10:40-0500
_audit_creation_method            fapswitch 2.2
_symmetry_space_group_name_H-M    P1
_symmetry_Int_Tables_number       1
_space_group_crystal_system       triclinic
_cell_length_a                    9.827703
_cell_length_b                    10.836913
_cell_length_c                    15.508974
_cell_angle_alpha                 90.531268
_cell_angle_beta                  67.994316
_cell_angle_gamma                 91.342513
_cell_volume                      1530.9811283

loop_
_atom_site_label
_atom_site_type_symbol
_atom_site_description
_atom_site_fract_x
_atom_site_fract_y
_atom_site_fract_z
_atom_type_partial_charge
O1    O     O_R   0.385370 0.683250 0.500010 -0.616768
O2    O     O_R   0.614630 0.316750 0.499990 -0.618128
O3    O     O_R   0.614700 0.683220 0.500000 -0.622889
O4    O     O_R   0.385300 0.316780 0.500000 -0.621493
C1    C     C_R   0.501497 0.740329 0.501467 0.876456
C2    C     C_R   0.496687 0.259740 0.501520 0.875798
O5    O     O_R   0.319830 0.500020 0.632250 -0.624815
O6    O     O_R   0.680170 0.499980 0.367750 -0.621931
O7    O     O_R   0.549160 0.499990 0.632240 -0.631035
O8    O     O_R   0.450840 0.500010 0.367760 -0.623633
C3    C     C_R   0.408509 0.498037 0.675933 0.865121
C4    C     C_R   0.591311 0.498527 0.323985 0.878180
Zn1   Zn    Zn3+2 0.346870 0.500020 0.500000 0.934452
Zn2   Zn    Zn3+2 0.653130 0.499980 0.500000 0.932259
C5    C     C_R   0.350553 0.487914 0.776859 -0.058520
C6    C     C_R   0.645428 0.478351 0.223877 -0.057676
C7    C     C_R   0.158168 0.514209 0.927579 -0.218512
C8    C     C_R   0.813126 0.383048 0.084174 -0.224071
C9    C     C_R   0.204958 0.515545 0.831034 -0.207408
C10   C     C_R   0.780041 0.422820 0.175517 -0.211180
C11   C     C_R   0.445902 0.451796 0.819039 -0.272287
C12   C     C_R   0.547024 0.496367 0.180249 -0.266066
C13   C     C_R   0.401522 0.448712 0.915579 0.097092
C14   C     C_R   0.571259 0.446543 0.092770 0.097787
C15   C     C_R   0.256412 0.484309 0.970165 0.179132
C16   C     C_R   0.709489 0.394521 0.042398 0.178403
C17   C     C_R   0.501703 0.421539 0.958563 0.068917
C18   C     C_R   0.462180 0.449805 0.053863 0.071824
C19   C     C_R   0.314472 0.478578 0.107535 -0.233457
C20   C     C_R   0.640403 0.368950 0.909543 -0.240118
C21   C     C_R   0.212873 0.493585 0.066194 -0.251015
C22   C     C_R   0.741464 0.353975 0.951608 -0.246360
H1    H     H_    0.101525 0.517824 0.109177 0.147929
H2    H     H_    0.846024 0.312598 0.912317 0.149656
H3    H     H_    0.449817 0.548251 0.216932 0.148552
H4    H     H_    0.557642 0.433088 0.774999 0.150789
H5    H     H_    0.856820 0.406640 0.209060 0.147252
H6    H     H_    0.129395 0.542429 0.798968 0.150198
H7    H     H_    0.047169 0.541256 0.968736 0.150735
H8    H     H_    0.917595 0.340251 0.047212 0.146524
H9    H     H_    0.273476 0.487344 0.182230 0.136025
H10   H     H_    0.672011 0.334509 0.839410 0.143274
C23   C     C_R   0.626013 0.943949 0.505831 0.101671
C24   C     C_R   0.365720 0.056425 0.507573 0.103229
C25   C     C_R   0.615777 0.070376 0.506470 -0.256007
C26   C     C_R   0.375269 0.929874 0.507983 -0.255047
H11   H     H_    0.708866 0.125163 0.507504 0.171615
H12   H     H_    0.280322 0.875127 0.510117 0.172710
C27   C     C_R   0.490180 0.127247 0.505368 -0.085927
C28   C     C_R   0.503267 0.872936 0.505244 -0.087006
C29   C     C_R   0.974459 0.477469 0.420071 -0.100292
C30   C     C_R   0.025468 0.521443 0.580110 -0.100989
H13   H     H_    0.957324 0.459285 0.356152 0.125103
H14   H     H_    0.042578 0.539170 0.644079 0.131119
C31   C     C_R   0.118119 0.477043 0.420151 -0.090922
C32   C     C_R   0.881634 0.520803 0.580189 -0.079175
H15   H     H_    0.208778 0.457623 0.356157 0.131879
H16   H     H_    0.790887 0.538786 0.644497 0.139918
N1    N     N_R   0.142780 0.500030 0.500020 -0.071917
N2    N     N_R   0.857220 0.499970 0.499980 -0.072532
C33   C     C_3   0.769467 0.893812 0.506290 -0.392667
C34   C     C_3   0.754074 0.853418 0.604289 -0.309281
C35   C     C_3   0.903253 0.824542 0.607792 -0.911786
H17   H     H_    0.966995 0.765424 0.548235 0.275098
H18   H     H_    0.967548 0.910714 0.604581 0.260550
H19   H     H_    0.887763 0.776535 0.673852 0.246327
H20   H     H_    0.704153 0.928442 0.654950 0.214683
H21   H     H_    0.681119 0.770504 0.626437 0.242253
H22   H     H_    0.812828 0.819641 0.454079 0.221245
H23   H     H_    0.857392 0.966614 0.482844 0.181692
C36   C     C_3   0.221408 0.107503 0.509160 -0.392232
C37   C     C_3   0.124153 0.151818 0.606914 -0.315183
C38   C     C_3   0.977023 0.197100 0.608829 -0.886011
H24   H     H_    0.994476 0.267107 0.553902 0.277874
H25   H     H_    0.910565 0.119515 0.596936 0.254916
H26   H     H_    0.914646 0.239003 0.677591 0.242143
H27   H     H_    0.103412 0.074568 0.657205 0.209565
H28   H     H_    0.179473 0.227694 0.630640 0.243220
H29   H     H_    0.240160 0.179885 0.455623 0.222213
H30   H     H_    0.158386 0.034705 0.488048 0.178959

loop_
_geom_bond_atom_site_label_1
_geom_bond_atom_site_label_2
_geom_bond_distance
_ccdc_geom_bond_type
C24   C27   1.418273 A    
C33   H23   1.113207 S    
C35   H18   1.106084 S    
C16   C22   1.392054 A    
C31   N1    1.368044 A    
C38   H24   1.107729 S    
C8    C16   1.405197 A    
C36   H29   1.108724 S    
C11   H4    1.076716 S    
O5    C3    1.289410 A    
C12   H3    1.079070 S    
C37   H27   1.111610 S    
C34   H20   1.112204 S    
O1    C1    1.292896 A    
C18   C19   1.417122 A    
C9    H6    1.083172 S    
C14   C16   1.416344 A    
C24   C36   1.526046 S    
C7    H7    1.083066 S    
O4    Zn1   2.030027 S    
C8    H8    1.083572 S    
C37   H28   1.109240 S    
C3    C5    1.455549 S    
C4    C6    1.456538 S    
C30   H14   1.081397 S    
C6    C12   1.390277 A    
C21   H1    1.083705 S    
C13   C17   1.417578 A    
C29   C31   1.412428 A    
C6    C10   1.400069 A    
C35   H19   1.110296 S    
C17   C20   1.418651 A    
C38   H25   1.108687 S    
O2    C2    1.293016 A    
C36   H30   1.112423 S    
C24   C26   1.377060 A    
C25   H11   1.084010 S    
C26   H12   1.083998 S    
O4    C2    1.277612 A    
C32   N2    1.368176 A    
C29   H13   1.081589 S    
C22   H2    1.084251 S    
C5    C9    1.399084 A    
O7    Zn2   1.918289 S    
C34   C35   1.527021 S    
C30   N1    1.363783 A    
C23   C25   1.375788 A    
C25   C27   1.398337 A    
O6    C4    1.291088 A    
O7    C3    1.291233 A    
O3    Zn2   2.030027 S    
O8    C4    1.290523 A    
C31   H15   1.079529 S    
C38   H26   1.110595 S    
C12   C14   1.392545 A    
C1    C28   1.437672 S    
O1    Zn1   2.012658 S    
C23   C33   1.525235 S    
C33   H22   1.108493 S    
O6    Zn2   1.966982 S    
C19   H9    1.078577 S    
C15   C21   1.390294 A    
C14   C18   1.414723 A    
C37   C38   1.527499 S    
O3    C1    1.278393 A    
O8    Zn1   1.918292 S    
C23   C28   1.418483 A    
Zn1   N1    2.005623 S    
Zn2   N2    2.005622 S    
C26   C28   1.400263 A    
C34   H21   1.109223 S    
C7    C15   1.403539 A    
C11   C13   1.394253 A    
C36   C37   1.537763 S    
C19   C21   1.387006 A    
C20   C22   1.390507 A    
C10   H5    1.082962 S    
C5    C11   1.393035 A    
C7    C9    1.392020 A    
C32   H16   1.079830 S    
C8    C10   1.395846 A    
C13   C15   1.419234 A    
C2    C27   1.436534 S    
C33   C34   1.536685 S    
O2    Zn2   2.012658 S    
C35   H17   1.109172 S    
O5    Zn1   1.966981 S    
C17   C18   1.412860 A    
C20   H10   1.078693 S    
C29   N2    1.363955 A    
C30   C32   1.412947 A    
