data_mof_unit_65700.cif
_audit_creation_date              2012-12-10T20:49:15-0500
_audit_creation_method            fapswitch 2.2
_symmetry_space_group_name_H-M    P1
_symmetry_Int_Tables_number       1
_space_group_crystal_system       triclinic
_cell_length_a                    19.208735
_cell_length_b                    19.198554
_cell_length_c                    19.465166
_cell_angle_alpha                 89.709262
_cell_angle_beta                  94.47033
_cell_angle_gamma                 84.986472
_cell_volume                      7128.63409376

loop_
_atom_site_label
_atom_site_type_symbol
_atom_type_description
_atom_site_fract_x
_atom_site_fract_y
_atom_site_fract_z
_atom_type_partial_charge
C1    C     C_R   0.492387 0.689217 0.507109 0.508428
C2    C     C_2   0.493260 0.520479 0.018333 -0.129228
C3    C     C_2   0.519927 0.467318 0.981324 -0.132890
C4    C     C_R   0.507169 0.310752 0.492752 0.507153
C5    C     C_R   0.513753 0.484902 0.763196 0.040092
C6    C     C_R   0.510186 0.234011 0.491020 0.028102
C7    C     C_R   0.463027 0.198844 0.527023 -0.162379
C8    C     C_R   0.466080 0.126241 0.527055 -0.092257
C9    C     C_R   0.516721 0.087094 0.490883 0.228970
C10   C     C_R   0.563894 0.122250 0.455243 -0.104525
C11   C     C_R   0.560524 0.195194 0.454847 -0.137459
C12   C     C_R   0.488415 0.515379 0.093220 0.028987
C13   C     C_R   0.536973 0.873322 0.546926 0.009520
C14   C     C_R   0.541011 0.800259 0.545458 -0.157384
C15   C     C_R   0.479038 0.912555 0.512043 0.211737
C16   C     C_R   0.689717 0.491650 0.507176 0.506205
C17   C     C_R   0.487926 0.765954 0.509639 0.015896
C18   C     C_R   0.430002 0.805481 0.476293 -0.152529
C19   C     C_R   0.425362 0.878140 0.478278 -0.121182
C20   C     C_R   0.233766 0.509932 0.489230 0.047899
C21   C     C_R   0.198013 0.448321 0.486388 -0.029674
C22   C     C_R   0.125226 0.454408 0.490223 -0.078457
C23   C     C_R   0.483451 0.577145 0.131126 -0.118439
C24   C     C_R   0.087633 0.520437 0.496167 0.211441
C25   C     C_R   0.123574 0.580531 0.496501 -0.116972
C26   C     C_R   0.195882 0.575482 0.492623 -0.157516
C27   C     C_R   0.876996 0.537323 0.532974 -0.089497
C28   C     C_R   0.310346 0.507305 0.492176 0.500134
C29   C     C_R   0.804417 0.540806 0.536277 -0.152174
C30   C     C_R   0.912304 0.479274 0.502455 0.225311
C31   C     C_R   0.766438 0.486936 0.508643 0.031389
C32   C     C_R   0.802120 0.428629 0.479788 -0.142964
C33   C     C_R   0.874457 0.424722 0.477401 -0.110963
C34   C     C_R   0.482243 0.574277 0.202444 -0.133071
C35   C     C_R   0.508601 0.491134 0.688210 0.504514
C36   C     C_R   0.491121 0.507801 0.311766 0.505440
C37   C     C_R   0.486568 0.509527 0.236680 0.030681
C38   C     C_R   0.488125 0.447241 0.198649 -0.016774
C39   C     C_R   0.488185 0.450574 0.127190 -0.107076
C40   C     C_1   0.487709 0.379570 0.231500 0.204807
C41   C     C_1   0.591357 0.906824 0.586058 0.230893
C42   C     C_3   0.235092 0.375883 0.478501 -0.253233
C43   C     C_3   0.263612 0.366766 0.407252 -0.290840
C44   C     C_3   0.302719 0.294698 0.400808 -0.440197
C45   C     C_R   0.539950 0.534012 0.875378 -0.109716
C46   C     C_R   0.536988 0.539578 0.803918 -0.124062
C47   C     C_R   0.495775 0.423714 0.794563 -0.120002
C48   C     C_R   0.500127 0.417624 0.865978 -0.113662
C49   C     C_R   0.520626 0.473273 0.906533 0.039031
H1    H     H_    0.485580 0.370333 0.889616 0.110144
H2    H     H_    0.551545 0.586976 0.780540 0.131766
H3    H     H_    0.905189 0.579777 0.554065 0.138287
H4    H     H_    0.095415 0.631545 0.500615 0.124673
H5    H     H_    0.222711 0.622879 0.494556 0.126576
H6    H     H_    0.774065 0.385991 0.458806 0.138824
H7    H     H_    0.098059 0.407276 0.488863 0.133054
H8    H     H_    0.901139 0.379507 0.454664 0.119871
H9    H     H_    0.478664 0.380538 0.763896 0.132053
H10   H     H_    0.538289 0.417114 0.004878 0.120635
H11   H     H_    0.482183 0.627609 0.105663 0.110117
H12   H     H_    0.585628 0.770249 0.572041 0.138312
H13   H     H_    0.557342 0.576923 0.906239 0.111775
H14   H     H_    0.480295 0.622528 0.231150 0.126478
H15   H     H_    0.475134 0.570020 0.992850 0.122150
H16   H     H_    0.487414 0.402378 0.098695 0.107275
H17   H     H_    0.348087 0.287835 0.439961 0.164584
H18   H     H_    0.267202 0.253040 0.407996 0.152173
H19   H     H_    0.322506 0.289492 0.348815 0.160973
H20   H     H_    0.219341 0.373057 0.366741 0.166171
H21   H     H_    0.300175 0.406869 0.397993 0.171128
H22   H     H_    0.277637 0.365320 0.520044 0.181218
H23   H     H_    0.603297 0.092928 0.427530 0.126822
H24   H     H_    0.198303 0.335093 0.484882 0.126957
H25   H     H_    0.597693 0.221085 0.426890 0.144603
H26   H     H_    0.387936 0.780261 0.449034 0.141206
H27   H     H_    0.429169 0.101027 0.555921 0.138872
H28   H     H_    0.380210 0.907930 0.452520 0.126305
H29   H     H_    0.423659 0.227408 0.555397 0.132108
H30   H     H_    0.777902 0.586158 0.558918 0.135434
N1    N     N_2   0.522628 0.012821 0.490138 -0.223684
N2    N     N_2   0.471653 0.986391 0.512392 -0.256383
N3    N     N_2   0.014108 0.528486 0.502433 -0.245016
N4    N     N_2   0.985572 0.472726 0.496511 -0.253754
N5    N     N_1   0.487339 0.325431 0.257837 -0.298525
N6    N     N_1   0.634955 0.933688 0.617435 -0.286278
O1    O     O_3   0.500000 0.500000 0.500000 -0.438729
O2    O     O_R   0.546320 0.532340 0.658770 -0.543405
O3    O     O_R   0.450550 0.549430 0.344370 -0.545956
O4    O     O_R   0.467400 0.453980 0.652500 -0.546041
O5    O     O_R   0.535730 0.464240 0.344360 -0.526831
O6    O     O_R   0.656240 0.454400 0.463600 -0.546694
O7    O     O_R   0.340160 0.549180 0.454800 -0.545507
O8    O     O_R   0.536860 0.652450 0.548350 -0.544549
O9    O     O_R   0.466740 0.343960 0.533260 -0.556114
O10   O     O_R   0.451210 0.659450 0.463610 -0.547438
O11   O     O_R   0.545190 0.344140 0.454780 -0.534609
O12   O     O_R   0.656710 0.532590 0.548340 -0.542790
O13   O     O_R   0.346890 0.463830 0.533270 -0.548612
Zn1   Zn    Zn3+2 0.558280 0.441710 0.441700 0.952701
Zn2   Zn    Zn3+2 0.558950 0.553420 0.562770 0.937552
Zn3   Zn    Zn3+2 0.446190 0.441460 0.553820 0.924591
Zn4   Zn    Zn3+2 0.436580 0.563410 0.441710 0.934015

loop_
_geom_bond_atom_site_label_1
_geom_bond_atom_site_label_2
_ccdc_geom_bond_type
C18   H26   S    
C27   C29   A    
C34   C37   A    
C40   N5    T    
C44   H17   S    
C2    C12   S    
C13   C41   S    
C3    C49   S    
C7    C8    A    
C15   N2    S    
C45   C46   A    
C36   O3    A    
C16   C31   S    
C15   C19   A    
C5    C47   A    
C12   C23   A    
C36   C37   S    
C25   H4    S    
C38   C39   A    
C16   O12   A    
C36   O5    A    
O11   Zn1   S    
C45   H13   S    
C8    H27   S    
C18   C19   A    
C30   N4    S    
C19   H28   S    
C24   N3    S    
C42   H22   S    
C4    O11   A    
C35   O2    A    
C47   C48   A    
O9    Zn3   S    
C8    C9    A    
O1    Zn2   S    
C9    C10   A    
C32   H6    S    
O10   Zn4   S    
O7    Zn4   S    
C48   H1    S    
C43   H20   S    
C21   C22   A    
C27   C30   A    
C39   H16   S    
C14   C17   A    
C26   H5    S    
C2    H15   S    
C23   H11   S    
C24   C25   A    
C4    C6    S    
C6    C11   A    
C22   H7    S    
C20   C28   S    
C25   C26   A    
C14   H12   S    
C46   H2    S    
C9    N1    S    
C43   C44   S    
C37   C38   A    
C31   C32   A    
C29   H30   S    
C45   C49   A    
C1    O10   A    
C23   C34   A    
C17   C18   A    
C28   O7    A    
O1    Zn1   S    
O8    Zn2   S    
C7    H29   S    
C4    O9    A    
C35   O4    A    
C48   C49   A    
C43   H21   S    
C13   C15   A    
C22   C24   A    
C44   H19   S    
C42   C43   S    
O1    Zn4   S    
O5    Zn1   S    
O12   Zn2   S    
C27   H3    S    
O2    Zn2   S    
C28   O13   A    
C42   H24   S    
C33   H8    S    
C30   C33   A    
O4    Zn3   S    
N1    N2    D    
C11   H25   S    
O3    Zn4   S    
C6    C7    A    
O13   Zn3   S    
C41   N6    T    
C5    C46   A    
C1    C17   S    
C32   C33   A    
C12   C39   A    
C2    C3    D    
C29   C31   A    
C47   H9    S    
C38   C40   S    
C20   C26   A    
C5    C35   S    
C34   H14   S    
C10   C11   A    
C21   C42   S    
C20   C21   A    
C16   O6    A    
C1    O8    A    
N3    N4    D    
C44   H18   S    
O6    Zn1   S    
C13   C14   A    
O1    Zn3   S    
C10   H23   S    
C3    H10   S    
