data_mof_unit_14865.cif
_audit_creation_date              2012-12-10T19:07:03-0500
_audit_creation_method            fapswitch 2.2
_symmetry_space_group_name_H-M    P1
_symmetry_Int_Tables_number       1
_space_group_crystal_system       triclinic
_cell_length_a                    27.792115
_cell_length_b                    10.813797
_cell_length_c                    9.527496
_cell_angle_alpha                 89.831051
_cell_angle_beta                  89.825062
_cell_angle_gamma                 90.211514
_cell_volume                      2863.33195251

loop_
_atom_site_label
_atom_site_type_symbol
_atom_type_description
_atom_site_fract_x
_atom_site_fract_y
_atom_site_fract_z
_atom_type_partial_charge
C1    C     C_R   0.501108 0.262271 0.500059 0.813234
C2    C     C_R   0.278768 0.510643 0.630483 0.543548
C3    C     C_R   0.253482 0.498165 0.503915 0.271821
C4    C     C_R   0.101731 0.495042 0.507822 -0.052501
C5    C     C_R   0.127451 0.383839 0.497243 -0.092123
C6    C     C_R   0.102512 0.271678 0.494324 -0.233672
C7    C     C_R   0.127232 0.607510 0.518622 -0.011121
C8    C     C_R   0.354438 0.499486 0.501280 -0.098641
C9    C     C_R   0.645438 0.499015 0.500865 -0.038429
C10   C     C_R   0.974440 0.384174 0.475530 -0.009702
C11   C     C_R   0.974393 0.604271 0.540414 0.067846
C12   C     C_R   0.407428 0.500013 0.500235 0.834559
C13   C     C_R   0.949069 0.493796 0.508225 0.062811
C14   C     C_R   0.948085 0.283628 0.421327 -0.230534
C15   C     C_R   0.897803 0.281139 0.422006 0.486623
C16   C     C_R   0.872153 0.386769 0.465040 -0.126144
C17   C     C_R   0.897913 0.493714 0.505998 -0.112056
C18   C     C_R   0.872482 0.601227 0.543916 0.015025
C19   C     C_R   0.822064 0.599973 0.542578 0.534714
C20   C     C_R   0.821360 0.390187 0.465945 0.572665
C21   C     C_R   0.720463 0.453374 0.619923 -0.100856
C22   C     C_R   0.670287 0.454723 0.618940 -0.202457
C23   C     C_R   0.500822 0.737691 0.499665 0.833123
C24   C     C_R   0.671607 0.542763 0.384485 -0.207072
C25   C     C_R   0.721770 0.541724 0.385842 -0.092126
C26   C     C_R   0.746262 0.496822 0.503382 0.350033
C27   C     C_R   0.025404 0.380496 0.491014 -0.032789
C28   C     C_R   0.050675 0.493889 0.509250 0.009728
C29   C     C_R   0.025361 0.606360 0.530100 0.070924
C30   C     C_R   0.051963 0.267668 0.491738 0.480109
C31   C     C_R   0.101948 0.718095 0.532550 -0.145616
C32   C     C_R   0.947686 0.709418 0.580873 -0.218038
C33   C     C_R   0.897756 0.707622 0.582654 -0.152649
C34   C     C_R   0.592533 0.499951 0.500014 0.800138
C35   C     C_R   0.052045 0.717673 0.539004 -0.210715
C36   C     C_R   0.515465 0.063013 0.621556 0.063127
C37   C     C_R   0.506284 0.129305 0.498512 -0.091241
C38   C     C_R   0.504602 0.064834 0.370444 -0.179227
C39   C     C_R   0.504479 0.936018 0.370053 -0.205105
C40   C     C_R   0.505671 0.870670 0.497798 -0.059928
C41   C     C_R   0.514340 0.936067 0.621205 0.018400
C42   C     C_3   0.492404 0.928372 0.764383 0.295270
C43   C     C_3   0.494111 0.069671 0.765594 -0.127672
C44   C     C_R   0.523973 0.590167 0.073114 0.235906
C45   C     C_R   0.177999 0.386978 0.495593 0.562400
C46   C     C_R   0.472126 0.419442 0.075027 -0.050344
C47   C     C_R   0.472003 0.419731 0.925956 -0.033919
C48   C     C_R   0.523911 0.590285 0.925618 0.240741
C49   C     C_3   0.576370 0.618386 0.918540 -0.473162
C50   C     C_3   0.576574 0.616905 0.077648 -0.492914
C51   C     C_R   0.177724 0.606626 0.515684 0.594215
C52   C     C_R   0.278503 0.484511 0.377245 -0.183880
C53   C     C_R   0.328655 0.485079 0.375757 -0.215611
C54   C     C_R   0.329177 0.513257 0.628279 -0.293053
Cu1   Cu    Cu3+1 0.500000 0.499980 0.640670 0.973308
Cu2   Cu    Cu3+1 0.500000 0.500020 0.359330 0.953514
H1    H     H_    0.348363 0.526652 0.725886 0.171107
H2    H     H_    0.258973 0.473761 0.279828 0.156745
H3    H     H_    0.120674 0.805906 0.539544 0.182354
H4    H     H_    0.964334 0.794230 0.615070 0.144866
H5    H     H_    0.653424 0.579639 0.293609 0.148009
H6    H     H_    0.879000 0.790770 0.614139 0.176225
H7    H     H_    0.741666 0.575965 0.295799 0.140443
H8    H     H_    0.035324 0.806923 0.547617 0.139458
H9    H     H_    0.500706 0.113071 0.271344 0.183528
H10   H     H_    0.500704 0.888494 0.270721 0.163321
H11   H     H_    0.516837 0.880873 0.839788 0.098290
H12   H     H_    0.458169 0.114603 0.766979 0.165777
H13   H     H_    0.450473 0.352341 0.131430 0.136198
H14   H     H_    0.450245 0.352890 0.870337 0.135850
H15   H     H_    0.597762 0.541933 0.872551 0.225658
H16   H     H_    0.583693 0.711361 0.873067 0.194247
H17   H     H_    0.597462 0.538231 0.120733 0.224401
H18   H     H_    0.584551 0.708657 0.124642 0.197954
H19   H     H_    0.122471 0.186081 0.498917 0.198225
H20   H     H_    0.650965 0.419774 0.709684 0.163620
H21   H     H_    0.739338 0.418567 0.711020 0.142081
H22   H     H_    0.965751 0.207473 0.370445 0.198371
H23   H     H_    0.347193 0.474123 0.276440 0.165470
N1    N     N_R   0.201921 0.497336 0.504227 -0.450300
N2    N     N_R   0.797772 0.495524 0.504385 -0.478883
N3    N     N_R   0.500300 0.500930 0.147930 -0.182009
N4    N     N_R   0.500310 0.500890 0.852020 -0.176896
O1    O     O_R   0.500000 0.319640 0.618810 -0.566755
O2    O     O_2   0.795523 0.289650 0.428940 -0.470436
O3    O     O_2   0.202487 0.713924 0.524295 -0.518456
O4    O     O_2   0.797396 0.702285 0.579208 -0.536061
O5    O     O_R   0.500010 0.319680 0.381230 -0.584125
O6    O     O_R   0.430260 0.500000 0.618780 -0.584592
O7    O     O_R   0.430270 0.500040 0.381190 -0.590187
O8    O     O_R   0.499990 0.680320 0.618770 -0.560063
O9    O     O_R   0.500000 0.680360 0.381190 -0.598048
O10   O     O_R   0.569730 0.499960 0.618810 -0.583211
O11   O     O_R   0.569740 0.500000 0.381220 -0.578817
O12   O     O_2   0.203094 0.280695 0.485977 -0.547312
O13   O     O_3   0.444880 0.881817 0.758650 -0.554366
C55   C     C_3   0.428164 0.860087 0.896344 -0.272099
H24   H     H_    0.429702 0.945634 0.960932 0.157303
H25   H     H_    0.448887 0.784680 0.947489 0.144826
H26   H     H_    0.390022 0.829928 0.891237 0.199100
O14   O     O_3   0.253849 0.528370 0.754545 -0.563706
C56   C     C_3   0.255863 0.418595 0.834468 -0.309729
H27   H     H_    0.293192 0.398899 0.869666 0.149603
H28   H     H_    0.241015 0.338465 0.775280 0.187601
H29   H     H_    0.233383 0.430544 0.929848 0.197767
I1    I     I_    0.544951 0.139810 0.914317 -0.436310
O15   O     O_3   0.874035 0.179212 0.367729 -0.534625
C57   C     C_3   0.878981 0.078723 0.461458 -0.208541
H30   H     H_    0.866839 0.103294 0.569349 0.163936
H31   H     H_    0.916610 0.044196 0.463511 0.141044
H32   H     H_    0.855812 0.001703 0.424615 0.203463
O16   O     O_3   0.028452 0.155717 0.515103 -0.583462
C58   C     C_3   0.043884 0.064539 0.418980 -0.375891
H33   H     H_    0.075952 0.015532 0.459978 0.183415
H34   H     H_    0.051241 0.102780 0.312213 0.167825
H35   H     H_    0.014701 0.995052 0.407747 0.186317

loop_
_geom_bond_atom_site_label_1
_geom_bond_atom_site_label_2
_ccdc_geom_bond_type
C10   C27   A    
Cu1   Cu2   S    
O14   C56   S    
C41   C42   S    
C34   O10   A    
C22   H20   S    
Cu1   O10   S    
C55   H24   S    
C6    H19   S    
C1    O1    A    
Cu2   O11   S    
C28   C29   A    
C24   H5    S    
C42   O13   S    
C12   O7    A    
C16   C20   A    
C53   H23   S    
C44   N3    A    
C50   H18   S    
C5    C6    A    
C9    C22   A    
Cu2   O5    S    
C42   H11   S    
C31   H3    S    
C23   C40   S    
C57   H30   S    
C56   H29   S    
C18   C19   A    
C25   H7    S    
C15   O15   S    
C51   N1    A    
C46   H13   S    
Cu1   O8    S    
C4    C28   A    
C46   N3    A    
C33   H6    S    
C49   H16   S    
O15   C57   S    
C35   H8    S    
C47   N4    A    
C1    C37   S    
C58   H35   S    
C1    O5    A    
Cu2   O7    S    
C21   C22   A    
O13   C55   S    
C27   C30   A    
C36   C41   A    
C4    C7    A    
C3    N1    S    
C51   O3    S    
O16   C58   S    
C55   H25   S    
C21   C26   A    
C7    C31   A    
C12   O6    A    
C24   C25   A    
C10   C14   A    
C50   H17   S    
C8    C54   A    
C39   C40   A    
C16   C17   A    
C2    O14   S    
C25   C26   A    
C5    C45   A    
C30   O16   S    
C43   I1    S    
C47   H14   S    
C37   C38   A    
C38   H9    S    
C8    C12   S    
C20   O2    S    
C17   C18   A    
C56   H28   S    
C52   H2    S    
C40   C41   A    
C6    C30   A    
C11   C32   A    
C26   N2    S    
C2    C54   A    
C9    C34   S    
C39   H10   S    
C31   C35   A    
C42   C43   S    
C32   H4    S    
Cu1   N4    S    
C45   O12   S    
C55   H26   S    
C52   C53   A    
C58   H33   S    
C44   C50   S    
C46   C47   A    
C36   C37   A    
C14   C15   A    
C34   O11   A    
C4    C5    A    
C10   C13   A    
C8    C53   A    
C3    C52   A    
C48   N4    A    
C9    C24   A    
Cu2   N3    S    
C20   N2    A    
C29   C35   A    
C19   O4    S    
C57   H32   S    
C13   C17   A    
C32   C33   A    
C2    C3    A    
C7    C51   A    
Cu1   O6    S    
C11   C13   A    
C38   C39   A    
C48   C49   S    
C57   H31   S    
C45   N1    A    
C23   O8    A    
C14   H22   S    
C56   H27   S    
C18   C33   A    
C44   C48   A    
Cu2   O9    S    
C11   C29   A    
C49   C50   S    
C49   H15   S    
C21   H21   S    
C27   C28   A    
C23   O9    A    
C36   C43   S    
Cu1   O1    S    
C19   N2    A    
C54   H1    S    
C15   C16   A    
C58   H34   S    
C43   H12   S    
