data_mof_unit_27801.cif
_audit_creation_date              2012-12-10T18:04:34-0500
_audit_creation_method            fapswitch 2.2
_symmetry_space_group_name_H-M    P1
_symmetry_Int_Tables_number       1
_space_group_crystal_system       triclinic
_cell_length_a                    19.4383
_cell_length_b                    17.625857
_cell_length_c                    12.617528
_cell_angle_alpha                 90.141149
_cell_angle_beta                  99.694444
_cell_angle_gamma                 90.070425
_cell_volume                      4261.22395393

loop_
_atom_site_label
_atom_site_type_symbol
_atom_type_description
_atom_site_fract_x
_atom_site_fract_y
_atom_site_fract_z
_atom_type_partial_charge
C1    C     C_R   0.411911 0.103626 0.444297 0.883312
C2    C     C_R   0.411581 0.896521 0.443939 0.887730
C3    C     C_R   0.911911 0.603626 0.444297 0.883312
C4    C     C_R   0.911582 0.396521 0.443939 0.887730
C5    C     C_R   0.746301 0.214634 0.538706 0.099381
C6    C     C_R   0.745829 0.784249 0.539748 0.096804
C7    C     C_R   0.246301 0.714634 0.538706 0.099381
C8    C     C_R   0.245829 0.284248 0.539748 0.096804
C9    C     C_R   0.784936 0.208132 0.644248 0.173504
C10   C     C_R   0.781803 0.786849 0.647407 0.172256
C11   C     C_R   0.284936 0.708132 0.644248 0.173504
C12   C     C_R   0.281803 0.286849 0.647407 0.172256
C13   C     C_R   0.352945 0.736042 0.666570 -0.270673
C14   C     C_R   0.348903 0.257219 0.672106 -0.263070
C15   C     C_R   0.852945 0.236042 0.666571 -0.270674
C16   C     C_R   0.848903 0.757219 0.672106 -0.263070
C17   C     C_R   0.380462 0.775124 0.587763 -0.197414
C18   C     C_R   0.378229 0.220806 0.592903 -0.196097
C19   C     C_R   0.880462 0.275124 0.587763 -0.197414
C20   C     C_R   0.878229 0.720806 0.592904 -0.196098
C21   C     C_R   0.677471 0.189672 0.519548 -0.256036
C22   C     C_R   0.677792 0.811137 0.518071 -0.258049
C23   C     C_R   0.177471 0.689672 0.519548 -0.256036
C24   C     C_R   0.177792 0.311137 0.518071 -0.258049
C25   C     C_R   0.688248 0.141653 0.700866 -0.201561
C26   C     C_R   0.684580 0.853203 0.702074 -0.199967
C27   C     C_R   0.188248 0.641653 0.700866 -0.201562
C28   C     C_R   0.184580 0.353203 0.702074 -0.199967
C29   C     C_R   0.362251 0.835308 0.408910 -0.184868
C30   C     C_R   0.363759 0.165671 0.410321 -0.182618
C31   C     C_R   0.862251 0.335308 0.408910 -0.184868
C32   C     C_R   0.863759 0.665672 0.410321 -0.182618
C33   C     C_R   0.645538 0.001921 0.137180 0.124708
C34   C     C_R   0.145538 0.501921 0.137180 0.124709
C35   C     C_R   0.379145 0.014546 0.762075 0.366643
C36   C     C_R   0.879145 0.514546 0.762075 0.366643
C37   C     C_R   0.358239 0.043471 0.854261 -0.311855
C38   C     C_R   0.858239 0.543471 0.854261 -0.311855
C39   C     C_R   0.590783 0.899410 0.557558 0.836173
C40   C     C_R   0.591049 0.100351 0.557855 0.837616
C41   C     C_R   0.090783 0.399410 0.557558 0.836173
C42   C     C_R   0.091049 0.600351 0.557855 0.837616
C43   C     C_R   0.406866 0.049536 0.947579 -0.159465
C44   C     C_R   0.906866 0.549535 0.947579 -0.159466
C45   C     C_R   0.475054 0.021320 0.951455 0.055581
C46   C     C_R   0.975054 0.521320 0.951455 0.055582
C47   C     C_R   0.496615 0.005171 0.853021 0.184038
C48   C     C_R   0.996615 0.505171 0.853021 0.184037
C49   C     C_R   0.523577 0.013131 0.047603 -0.126327
C50   C     C_R   0.023577 0.513131 0.047603 -0.126328
C51   C     C_R   0.596010 0.006521 0.042165 0.107567
C52   C     C_R   0.096010 0.506521 0.042165 0.107568
C53   C     C_R   0.617108 0.001441 0.941891 -0.260026
C54   C     C_R   0.117108 0.501441 0.941891 -0.260026
C55   C     C_R   0.567814 0.998774 0.849055 -0.226104
C56   C     C_R   0.067814 0.498774 0.849055 -0.226104
C57   C     C_R   0.503058 0.004823 0.148653 0.435682
C58   C     C_R   0.003058 0.504823 0.148653 0.435682
C59   C     C_R   0.621678 0.999772 0.234882 -0.157972
C60   C     C_R   0.121678 0.499772 0.234882 -0.157973
C61   C     C_R   0.755037 0.172869 0.725284 -0.202634
C62   C     C_R   0.750331 0.820181 0.728295 -0.203739
C63   C     C_R   0.255037 0.672869 0.725284 -0.202634
C64   C     C_R   0.250331 0.320181 0.728295 -0.203739
C65   C     C_R   0.650486 0.148553 0.596530 -0.045529
C66   C     C_R   0.649395 0.850256 0.595707 -0.046599
C67   C     C_R   0.150486 0.648553 0.596531 -0.045529
C68   C     C_R   0.149394 0.350256 0.595707 -0.046598
C69   C     C_R   0.330055 0.832180 0.300769 -0.177519
C70   C     C_R   0.334320 0.171798 0.301181 -0.187625
C71   C     C_R   0.830055 0.332179 0.300769 -0.177519
C72   C     C_R   0.834320 0.671799 0.301181 -0.187624
C73   C     C_R   0.274109 0.783129 0.267507 0.272291
C74   C     C_R   0.279648 0.222166 0.268188 0.278467
C75   C     C_R   0.774109 0.283128 0.267507 0.272291
C76   C     C_R   0.779649 0.722167 0.268188 0.278467
C77   C     C_R   0.246143 0.743065 0.345842 -0.291204
C78   C     C_R   0.250166 0.260706 0.346527 -0.283100
C79   C     C_R   0.746143 0.243065 0.345842 -0.291204
C80   C     C_R   0.750166 0.760707 0.346527 -0.283101
C81   C     C_R   0.276876 0.747423 0.455888 0.064514
C82   C     C_R   0.278098 0.253191 0.457331 0.062586
C83   C     C_R   0.776876 0.247423 0.455888 0.064514
C84   C     C_R   0.778099 0.753191 0.457331 0.062586
C85   C     C_R   0.340679 0.785949 0.484379 0.081053
C86   C     C_R   0.340842 0.213211 0.487069 0.076246
C87   C     C_R   0.840679 0.285949 0.484379 0.081053
C88   C     C_R   0.840843 0.713212 0.487069 0.076246
H1    H     H_    0.667789 0.109239 0.761401 0.150737
H2    H     H_    0.662950 0.883639 0.763353 0.150405
H3    H     H_    0.167789 0.609239 0.761401 0.150737
H4    H     H_    0.162950 0.383639 0.763353 0.150405
H5    H     H_    0.671615 0.996082 0.934584 0.179194
H6    H     H_    0.171615 0.496081 0.934584 0.179194
H7    H     H_    0.391086 0.079227 0.014353 0.197731
H8    H     H_    0.891086 0.579227 0.014353 0.197730
H9    H     H_    0.305164 0.062590 0.852907 0.165741
H10   H     H_    0.805164 0.562590 0.852907 0.165741
H11   H     H_    0.587049 0.993673 0.775196 0.207272
H12   H     H_    0.087049 0.493673 0.775196 0.207271
H13   H     H_    0.384096 0.729706 0.745767 0.155932
H14   H     H_    0.378196 0.260849 0.753043 0.152437
H15   H     H_    0.884096 0.229706 0.745767 0.155932
H16   H     H_    0.878196 0.760849 0.753044 0.152437
H17   H     H_    0.784224 0.166891 0.805932 0.137172
H18   H     H_    0.777565 0.823176 0.810538 0.136334
H19   H     H_    0.284224 0.666891 0.805932 0.137173
H20   H     H_    0.277566 0.323177 0.810538 0.136335
H21   H     H_    0.644124 0.198974 0.443204 0.150250
H22   H     H_    0.646193 0.804515 0.439626 0.153407
H23   H     H_    0.144124 0.698975 0.443204 0.150250
H24   H     H_    0.146193 0.304514 0.439626 0.153407
H25   H     H_    0.346784 0.869870 0.243003 0.222070
H26   H     H_    0.352232 0.135592 0.241970 0.199242
H27   H     H_    0.846785 0.369869 0.243003 0.222070
H28   H     H_    0.852232 0.635593 0.241970 0.199241
H29   H     H_    0.701867 0.206891 0.318403 0.132031
H30   H     H_    0.707117 0.798219 0.318630 0.130913
H31   H     H_    0.201867 0.706891 0.318403 0.132031
H32   H     H_    0.207116 0.298217 0.318630 0.130914
H33   H     H_    0.433246 0.796465 0.608406 0.170614
H34   H     H_    0.430839 0.199559 0.615216 0.172329
H35   H     H_    0.933246 0.296465 0.608406 0.170615
H36   H     H_    0.930839 0.699559 0.615217 0.172329
H37   H     H_    0.658258 0.996910 0.309602 0.164054
H38   H     H_    0.158258 0.496910 0.309602 0.164054
N1    N     N_R   0.552340 0.000000 0.237260 -0.128753
N2    N     N_R   0.052340 0.500000 0.237260 -0.128753
N3    N     N_R   0.448170 0.000000 0.762060 -0.148219
N4    N     N_R   0.948170 0.500000 0.762060 -0.148219
O1    O     O_R   0.448200 0.076800 0.373930 -0.568673
O2    O     O_R   0.448200 0.923200 0.373930 -0.550889
O3    O     O_R   0.948200 0.576800 0.373930 -0.568673
O4    O     O_R   0.948200 0.423200 0.373930 -0.550889
O5    O     O_R   0.414750 0.076790 0.542400 -0.606763
O6    O     O_R   0.414750 0.923210 0.542400 -0.586905
O7    O     O_R   0.914750 0.576790 0.542400 -0.606763
O8    O     O_R   0.914750 0.423210 0.542400 -0.586905
O9    O     O_R   0.585240 0.923200 0.457600 -0.611015
O10   O     O_R   0.585240 0.076800 0.457600 -0.611340
O11   O     O_R   0.085240 0.423200 0.457600 -0.611015
O12   O     O_R   0.085240 0.576800 0.457600 -0.611340
O13   O     O_R   0.551780 0.923190 0.626070 -0.645554
O14   O     O_R   0.551780 0.076810 0.626070 -0.640776
O15   O     O_R   0.051780 0.423190 0.626070 -0.645554
O16   O     O_R   0.051780 0.576810 0.626070 -0.640776
Zn1   Zn    Zn3+2 0.522330 0.000000 0.387520 0.984362
Zn2   Zn    Zn3+2 0.022330 0.500000 0.387520 0.984362
Zn3   Zn    Zn3+2 0.477660 0.000000 0.612480 0.934842
Zn4   Zn    Zn3+2 0.977660 0.500000 0.612480 0.934842
N5    N     N_2   0.718401 0.997184 0.135030 -0.309567
H39   H     H_    0.745346 0.964425 0.195905 0.228613
C89   C     C_3   0.751679 0.069854 0.126903 -0.813069
H40   H     H_    0.750157 0.104040 0.200560 0.247233
H41   H     H_    0.725346 0.101517 0.055428 0.251608
H42   H     H_    0.807008 0.060981 0.118322 0.242342
N6    N     N_2   0.218402 0.497185 0.135030 -0.309567
H43   H     H_    0.245346 0.464426 0.195906 0.228613
C90   C     C_3   0.251678 0.569855 0.126902 -0.813068
H44   H     H_    0.250154 0.604042 0.200557 0.247234
H45   H     H_    0.225348 0.601515 0.055424 0.251608
H46   H     H_    0.307009 0.560982 0.118326 0.242342
Cl1   Cl    Cl    0.416568 0.986675 0.165758 -0.681683
Cl2   Cl    Cl    0.916568 0.486675 0.165758 -0.681683
N7    N     N_2   0.330116 0.008684 0.665573 -0.249971
H47   H     H_    0.302672 0.058247 0.646394 0.220830
C91   C     C_3   0.284045 0.943956 0.662043 -0.750197
H48   H     H_    0.253723 0.937688 0.579672 0.241868
H49   H     H_    0.247166 0.951733 0.719608 0.220142
H50   H     H_    0.314543 0.891361 0.682659 0.261790
N8    N     N_2   0.830116 0.508684 0.665573 -0.249971
H51   H     H_    0.802672 0.558247 0.646394 0.220830
C92   C     C_3   0.784046 0.443955 0.662043 -0.750196
H52   H     H_    0.753723 0.437688 0.579671 0.241868
H53   H     H_    0.747166 0.451733 0.719608 0.220142
H54   H     H_    0.814543 0.391361 0.682660 0.261790
N9    N     N_2   0.241699 0.778816 0.157263 -0.300296
H55   H     H_    0.197827 0.744876 0.142285 0.222689
C93   C     C_3   0.287637 0.768935 0.078992 -0.782531
H56   H     H_    0.256060 0.760398 0.997882 0.235044
H57   H     H_    0.321468 0.718487 0.099240 0.239243
H58   H     H_    0.320420 0.820099 0.075323 0.270849
N10   N     N_2   0.250231 0.229196 0.157212 -0.298976
H59   H     H_    0.203107 0.257383 0.142331 0.225219
C94   C     C_3   0.297897 0.253786 0.087478 -0.795055
H60   H     H_    0.269804 0.256643 0.003312 0.236623
H61   H     H_    0.341674 0.213139 0.089644 0.242248
H62   H     H_    0.318789 0.311071 0.112026 0.240723
N11   N     N_2   0.741700 0.278815 0.157263 -0.300296
H63   H     H_    0.697828 0.244874 0.142285 0.222689
C95   C     C_3   0.787638 0.268934 0.078993 -0.782531
H64   H     H_    0.756061 0.260396 0.997882 0.235044
H65   H     H_    0.821470 0.218487 0.099241 0.239243
H66   H     H_    0.820421 0.320098 0.075324 0.270849
N12   N     N_2   0.750232 0.729198 0.157212 -0.298976
H67   H     H_    0.703109 0.757388 0.142330 0.225217
C96   C     C_3   0.797899 0.753783 0.087477 -0.795050
H68   H     H_    0.769805 0.756644 0.003311 0.236622
H69   H     H_    0.841673 0.713132 0.089641 0.242246
H70   H     H_    0.818797 0.811066 0.112026 0.240721

loop_
_geom_bond_atom_site_label_1
_geom_bond_atom_site_label_2
_ccdc_geom_bond_type
C83   C87   A    
N8    H51   S    
C58   N2    A    
N7    H47   S    
C14   C18   A    
C24   H24   S    
C72   C76   A    
C58   Cl2   S    
C37   H9    S    
O6    Zn3   S    
C91   H49   S    
C92   H52   S    
C70   H26   S    
C7    C11   A    
C27   H3    S    
N8    C92   S    
C19   H35   S    
N6    H43   S    
C47   N3    A    
C2    C29   S    
C9    C61   A    
C4    O4    A    
C28   C68   A    
C15   C19   A    
C19   C87   A    
N10   C94   S    
C12   C64   A    
C94   H61   S    
C59   N1    A    
C6    C22   A    
C79   H29   S    
C49   C57   A    
N11   C95   S    
C89   H40   S    
C45   C47   A    
C23   C67   A    
C50   C52   A    
C96   H69   S    
C70   C74   A    
C22   C66   A    
O11   Zn2   S    
C8    C24   A    
O16   Zn4   S    
C16   H16   S    
N4    Zn4   S    
C44   C46   A    
C22   H22   S    
C42   O12   A    
C2    O2    A    
N5    H39   S    
C90   H45   S    
O1    Zn1   S    
C3    O7    A    
C45   C49   A    
C8    C12   A    
C30   C86   A    
C61   H17   S    
C35   N3    A    
C29   C85   A    
O15   Zn4   S    
C38   H10   S    
C93   H58   S    
C73   N9    S    
C92   H53   S    
C33   C59   A    
C93   H57   S    
C34   C60   A    
C48   N4    A    
N7    C91   S    
C10   C62   A    
O10   Zn1   S    
C1    O1    A    
C30   C70   A    
C52   C54   A    
C38   C44   A    
C64   H20   S    
C41   C68   S    
C29   C69   A    
C53   C55   A    
C54   H6    S    
C80   H30   S    
C71   C75   A    
C31   C87   A    
C53   H5    S    
C80   C84   A    
C26   C66   A    
O12   Zn2   S    
C60   N2    A    
C25   C65   A    
C32   C72   A    
C33   N5    S    
C91   H48   S    
N2    Zn2   S    
C94   H62   S    
C25   C61   A    
C74   N10   S    
C49   C51   A    
O5    Zn3   S    
O8    Zn4   S    
C95   H64   S    
C13   H13   S    
C3    O3    A    
C5    C21   A    
C50   C58   A    
C37   C43   A    
C96   H70   S    
C78   H32   S    
N10   H59   S    
C95   H65   S    
C5    C9    A    
O14   Zn3   S    
C44   H8    S    
C76   N12   S    
C36   N4    A    
C78   C82   A    
C43   H7    S    
C90   H44   S    
C57   Cl1   S    
C77   C81   A    
C26   H2    S    
C16   C20   A    
O9    Zn1   S    
C90   H46   S    
C71   H27   S    
C3    C32   S    
C28   H4    S    
O3    Zn2   S    
C18   C86   A    
C89   H42   S    
C69   C73   A    
C43   C45   A    
C8    C82   A    
C27   C63   A    
C18   H34   S    
C91   H50   S    
C28   C64   A    
C17   H33   S    
C7    C81   A    
C12   C14   A    
N9    H55   S    
C40   C65   S    
C40   O14   A    
C75   N11   S    
C42   C67   S    
C39   C66   S    
C17   C85   A    
O7    Zn4   S    
C89   H41   S    
C56   H12   S    
C63   H19   S    
C42   O16   A    
C6    C84   A    
C23   H23   S    
C35   C37   A    
C47   C55   A    
C92   H54   S    
N11   H63   S    
C48   C56   A    
C46   C50   A    
C36   N8    S    
C21   C65   A    
O2    Zn1   S    
C25   H1    S    
C76   C80   A    
C39   O13   A    
C54   C56   A    
C77   H31   S    
C57   N1    A    
C21   H21   S    
C5    C83   A    
C62   H18   S    
C93   H56   S    
C33   C51   A    
O4    Zn2   S    
C41   O11   A    
C72   H28   S    
C34   C52   A    
C13   C17   A    
C15   H15   S    
C36   C38   A    
C26   C62   A    
C95   H66   S    
C82   C86   A    
C59   H37   S    
C79   C83   A    
C11   C13   A    
C94   H60   S    
C84   C88   A    
C7    C23   A    
C20   C88   A    
C60   H38   S    
C1    C30   S    
C35   N7    S    
N9    C93   S    
C40   O10   A    
N5    C89   S    
C9    C15   A    
C96   H68   S    
C2    O6    A    
C20   H36   S    
C4    C31   S    
C14   H14   S    
C6    C10   A    
C24   C68   A    
C4    O8    A    
N12   H67   S    
C46   C48   A    
O13   Zn3   S    
C41   O15   A    
N6    C90   S    
C69   H25   S    
C74   C78   A    
C55   H11   S    
C27   C67   A    
C73   C77   A    
C10   C16   A    
C51   C53   A    
N3    Zn3   S    
C1    O5    A    
C11   C63   A    
C75   C79   A    
C39   O9    A    
C81   C85   A    
C34   N6    S    
N1    Zn1   S    
C31   C71   A    
N12   C96   S    
C32   C88   A    
