data_mof_unit_53531.cif
_audit_creation_date              2013-03-05T16:31:37-0500
_audit_creation_method            fapswitch 2.2
_symmetry_space_group_name_H-M    P1
_symmetry_Int_Tables_number       1
_space_group_crystal_system       triclinic
_cell_length_a                    9.5717
_cell_length_b                    10.867925
_cell_length_c                    15.526785
_cell_angle_alpha                 89.419652
_cell_angle_beta                  73.678595
_cell_angle_gamma                 90.779688
_cell_volume                      1549.76834898

loop_
_atom_site_label
_atom_site_type_symbol
_atom_site_description
_atom_site_fract_x
_atom_site_fract_y
_atom_site_fract_z
_atom_type_partial_charge
O1    O     O_R   0.118810 0.319640 0.500000 -0.582384
O2    O     O_R   0.881230 0.319680 0.499990 -0.552229
C1    C     C_R   0.998933 0.262232 0.498933 0.814967
O3    O     O_R   0.055580 0.499970 0.629840 -0.565493
O4    O     O_R   0.818000 0.500010 0.629830 -0.575058
C2    C     C_R   0.918062 0.510898 0.671507 0.828145
Cu1   Cu    Cu3+1 0.140670 0.499980 0.500000 0.988854
Cu2   Cu    Cu3+1 0.859330 0.500020 0.500000 1.018394
O5    O     O_R   0.118770 0.680320 0.500010 -0.574059
O6    O     O_R   0.881190 0.680360 0.500000 -0.579198
O7    O     O_R   0.182000 0.499990 0.370170 -0.585149
O8    O     O_R   0.944420 0.500030 0.370160 -0.561550
C3    C     C_R   0.000018 0.737300 0.501532 0.835633
C4    C     C_R   0.082768 0.497394 0.328146 0.807121
C5    C     C_R   0.872652 0.545350 0.767109 -0.106777
C6    C     C_R   0.131255 0.486490 0.230447 -0.046070
C7    C     C_R   0.901489 0.661010 0.895206 -0.048133
C8    C     C_R   0.954442 0.628508 0.804156 0.094702
C9    C     C_R   0.733554 0.508148 0.818272 -0.208800
C10   C     C_R   0.668166 0.558897 0.902581 0.105936
C11   C     C_R   0.757850 0.625984 0.944705 0.018540
C12   C     C_R   0.517500 0.538489 0.947812 0.009903
C13   C     C_R   0.466648 0.561114 0.041541 0.044737
C14   C     C_R   0.561045 0.622221 0.083136 -0.155168
C15   C     C_R   0.701102 0.658044 0.034886 -0.110679
C16   C     C_R   0.414508 0.498066 0.902928 -0.052748
C17   C     C_R   0.282240 0.445526 0.952603 -0.217338
C18   C     C_R   0.238016 0.453095 0.045493 0.136598
C19   C     C_R   0.323906 0.520055 0.090339 0.104993
C20   C     C_R   0.104403 0.399561 0.093565 -0.110071
C21   C     C_R   0.054202 0.412681 0.186001 -0.097345
C22   C     C_R   0.263945 0.540955 0.182647 -0.219102
H1    H     H_    0.765854 0.708304 0.070218 0.194921
H2    H     H_    0.316942 0.599868 0.219305 0.131707
H3    H     H_    0.956644 0.363703 0.222900 0.162816
H4    H     H_    0.207365 0.406954 0.918600 0.190109
H5    H     H_    0.674911 0.441021 0.790196 0.147570
H6    H     H_    0.530251 0.644969 0.153167 0.157947
H7    H     H_    0.039964 0.345785 0.059801 0.144959
C23   C     C_R   0.111454 0.065382 0.517384 0.006576
C24   C     C_R   0.992729 0.128427 0.503620 -0.136563
C25   C     C_R   0.867861 0.058722 0.499947 0.175250
C26   C     C_R   0.869500 0.931093 0.505818 -0.185978
H8    H     H_    0.774049 0.879787 0.501487 0.201913
C27   C     C_R   0.995853 0.869832 0.508789 -0.103406
C28   C     C_R   0.113193 0.938537 0.519941 0.134989
C29   C     C_3   0.271728 0.933539 0.471617 -0.467509
C30   C     C_3   0.270847 0.073809 0.468757 -0.192341
H9    H     H_    0.336188 0.896277 0.515095 0.218494
H10   H     H_    0.292024 0.889045 0.405199 0.208569
H11   H     H_    0.334168 0.116839 0.510881 0.174286
C31   C     C_R   0.595564 0.588379 0.453293 0.195025
N1    N     N_R   0.648210 0.500930 0.499430 -0.182028
C32   C     C_R   0.550184 0.417302 0.550036 0.039847
H12   H     H_    0.585945 0.350593 0.591056 0.153383
C33   C     C_R   0.402808 0.414479 0.547447 -0.014616
H13   H     H_    0.329018 0.344303 0.585374 0.148053
N2    N     N_R   0.352300 0.500890 0.499430 -0.173249
C34   C     C_R   0.446764 0.592154 0.457147 0.230280
C35   C     C_3   0.478706 0.626054 0.360500 -0.573789
C36   C     C_3   0.639219 0.613114 0.353389 0.036194
H14   H     H_    0.436884 0.556316 0.322067 0.213289
H15   H     H_    0.446304 0.721566 0.350537 0.201509
I1    I     I_    0.679028 0.125959 0.469939 -0.328723
C37   C     C_2   0.304387 0.129253 0.375379 0.922425
O9    O     O_2   0.244872 0.089231 0.320991 -0.591528
O10   O     O_R   0.402536 0.228535 0.352136 -0.714956
H16   H     H_    0.414753 0.259961 0.288693 0.332531
C38   C     C_2   0.699258 0.504951 0.294993 0.882008
O11   O     O_2   0.757068 0.522012 0.214878 -0.601295
O12   O     O_R   0.677213 0.385113 0.330422 -0.714252
H17   H     H_    0.710203 0.320119 0.283005 0.339455
I2    I     I_    0.762252 0.781213 0.314501 -0.316891
C39   C     C_2   0.994796 0.735350 0.937072 0.869263
O13   O     O_2   0.049155 0.687147 0.991182 -0.576621
O14   O     O_R   0.018515 0.860529 0.915565 -0.722673
H18   H     H_    0.083730 0.901376 0.948650 0.347638
I3    I     I_    0.147911 0.719234 0.722846 -0.284855
C40   C     C_2   0.426220 0.530182 0.808128 0.858618
O15   O     O_2   0.496131 0.621297 0.772470 -0.558678
O16   O     O_R   0.347214 0.461562 0.761857 -0.781883
H19   H     H_    0.347008 0.503199 0.703580 0.341032

loop_
_geom_bond_atom_site_label_1
_geom_bond_atom_site_label_2
_geom_bond_distance
_ccdc_geom_bond_type
C5    C8    1.415950 A    
C24   C25   1.421333 A    
C9    C10   1.404650 A    
O16   H19   1.008101 S    
Cu1   Cu2   2.692907 S    
C29   H9    1.111651 S    
N1    C32   1.368120 A    
C6    C21   1.394576 A    
C5    C9    1.396982 A    
C16   C17   1.395108 A    
C39   O14   1.397720 S    
C35   H15   1.109088 S    
C13   C19   1.426411 A    
C18   C19   1.416340 A    
C19   C22   1.408190 A    
C31   C36   1.509055 S    
C20   C21   1.389068 A    
O7    C4    1.294860 A    
C33   H13   1.081558 S    
C35   H14   1.107219 S    
C38   O12   1.398622 S    
C23   C30   1.501155 S    
O5    C3    1.296295 A    
C9    H5    1.081737 S    
C2    C5    1.478376 S    
C28   C29   1.493888 S    
C30   H11   1.111363 S    
C37   O10   1.396789 S    
C14   H6    1.075937 S    
C13   C14   1.412390 A    
C30   C37   1.511173 S    
Cu1   N2    2.023079 S    
Cu2   O8    1.950570 S    
C34   C35   1.486243 S    
O3    Cu1   1.950570 S    
C29   H10   1.111356 S    
C32   C33   1.422388 A    
C39   O13   1.222785 D    
O10   H16   1.013930 S    
C14   C15   1.387581 A    
O3    C2    1.300934 A    
C40   O16   1.394652 S    
C36   I2    2.146714 S    
N2    C34   1.364221 A    
C27   C28   1.392147 A    
C7    C11   1.418371 A    
C35   C36   1.517661 S    
O1    C1    1.302895 A    
C22   H2    1.073336 S    
Cu1   O7    1.942139 S    
C26   H8    1.082396 S    
C31   C34   1.409797 A    
C29   C30   1.524851 S    
C8    I3    2.146253 S    
C7    C8    1.411557 A    
O14   H18   1.013862 S    
C26   C27   1.400262 A    
C23   C24   1.400446 A    
C10   C12   1.428641 A    
C7    C39   1.479955 S    
C21   H3    1.078501 S    
C25   C26   1.389720 A    
C23   C28   1.379166 A    
C25   I1    2.126093 S    
C31   N1    1.368381 A    
C36   C38   1.510393 S    
Cu1   O5    1.973931 S    
C11   C15   1.401655 A    
C32   H12   1.080895 S    
C1    C24   1.454835 S    
O1    Cu1   1.968226 S    
O2    Cu2   1.973930 S    
O8    C4    1.302240 A    
O6    C3    1.293642 A    
Cu2   N1    2.023442 S    
O4    Cu2   1.942136 S    
C17   H4    1.084919 S    
C6    C22   1.398253 A    
C16   C40   1.482162 S    
C18   C20   1.402014 A    
O2    C1    1.291627 A    
O12   H17   1.013226 S    
C3    C27   1.446099 S    
O4    C2    1.302639 A    
C33   N2    1.368304 A    
C20   H7    1.083952 S    
C4    C6    1.462883 S    
C38   O11   1.222123 D    
C40   O15   1.223728 D    
C10   C11   1.415788 A    
Cu2   O6    1.968226 S    
C37   O9    1.223890 D    
C12   C16   1.425146 A    
C17   C18   1.387935 A    
C12   C13   1.423971 A    
C15   H1    1.082313 S    
