data_mof_unit_55758.cif
_audit_creation_date              2013-03-05T16:00:29-0500
_audit_creation_method            fapswitch 2.2
_symmetry_space_group_name_H-M    P1
_symmetry_Int_Tables_number       1
_space_group_crystal_system       triclinic
_cell_length_a                    12.628766
_cell_length_b                    13.188922
_cell_length_c                    26.969052
_cell_angle_alpha                 92.351718
_cell_angle_beta                  102.315117
_cell_angle_gamma                 81.92864
_cell_volume                      4344.83817689

loop_
_atom_site_label
_atom_site_type_symbol
_atom_site_description
_atom_site_fract_x
_atom_site_fract_y
_atom_site_fract_z
_atom_type_partial_charge
O1    O     O_R   0.366730 0.627160 0.487740 -0.620806
O2    O     O_R   0.544830 0.662520 0.504140 -0.616704
C1    C     C_R   0.438130 0.690942 0.490715 0.856253
O3    O     O_R   0.410970 0.482310 0.563040 -0.607148
O4    O     O_R   0.589070 0.517670 0.579450 -0.637458
C2    C     C_R   0.500631 0.501696 0.594218 0.863389
Zn1   Zn    Zn3+2 0.381080 0.476390 0.489050 0.918600
Zn2   Zn    Zn3+2 0.618920 0.523610 0.510950 0.916443
O5    O     O_R   0.455170 0.337480 0.495860 -0.625055
O6    O     O_R   0.633270 0.372840 0.512260 -0.607858
O7    O     O_R   0.410930 0.482330 0.420550 -0.622786
O8    O     O_R   0.589030 0.517690 0.436960 -0.633413
C3    C     C_R   0.561517 0.307970 0.505869 0.880458
C4    C     C_R   0.498775 0.499712 0.405477 0.873440
C5    C     C_R   0.376590 0.612601 0.812089 0.495576
O9    O     O_2   0.284388 0.613367 0.775899 -0.586032
N1    N     N_R   0.476367 0.588837 0.799422 -0.355150
C6    C     C_R   0.571550 0.588125 0.834887 0.486121
C7    C     C_R   0.464786 0.470738 0.726887 -0.115780
C8    C     C_R   0.471229 0.448032 0.676683 -0.241615
C9    C     C_R   0.512809 0.619459 0.667358 -0.218176
C10   C     C_R   0.504056 0.644503 0.717554 0.212761
C11   C     C_R   0.481682 0.567950 0.747459 0.260345
C12   C     C_R   0.466868 0.636630 0.899794 -0.054393
C13   C     C_R   0.369951 0.636417 0.862583 -0.019401
C14   C     C_R   0.268939 0.660447 0.876444 -0.141561
C15   C     C_R   0.568648 0.613798 0.885523 -0.018471
C16   C     C_R   0.496598 0.521985 0.647187 -0.068882
C17   C     C_R   0.493966 0.503946 0.350799 -0.131801
C18   C     C_R   0.356021 0.677817 0.018386 -0.011647
C19   C     C_R   0.555753 0.677638 0.039695 0.054614
C20   C     C_R   0.454896 0.676694 0.054836 0.070142
C21   C     C_R   0.257727 0.679252 0.035723 -0.194481
C22   C     C_R   0.255341 0.673279 0.087511 0.160953
C23   C     C_R   0.356344 0.665598 0.123596 -0.097696
C24   C     C_R   0.454255 0.671227 0.106988 -0.063549
C25   C     C_R   0.552280 0.673217 0.143355 -0.011568
C26   C     C_R   0.553708 0.651945 0.193782 0.514824
N2    N     N_R   0.466989 0.612857 0.205242 -0.325007
C27   C     C_R   0.366402 0.647661 0.176025 0.502318
C28   C     C_R   0.389534 0.511515 0.264012 0.228227
C29   C     C_R   0.394749 0.500986 0.315965 -0.213975
C30   C     C_R   0.589703 0.502541 0.332406 -0.221876
C31   C     C_R   0.583713 0.512327 0.280377 0.225309
C32   C     C_R   0.479916 0.545471 0.248917 0.128434
O10   O     O_2   0.279967 0.670371 0.198178 -0.605846
C33   C     C_R   0.359145 0.673090 0.965829 0.054961
C34   C     C_R   0.462115 0.657572 0.951348 0.075411
C35   C     C_R   0.560573 0.660467 0.988053 0.043610
C36   C     C_R   0.263343 0.678732 0.926979 -0.219501
H1    H     H_    0.322595 0.486368 0.328709 0.163308
H2    H     H_    0.181879 0.680698 0.008938 0.160715
H3    H     H_    0.182073 0.697378 0.933998 0.140227
O11   O     O_2   0.668580 0.562908 0.821025 -0.570519
C37   C     C_R   0.665082 0.616168 0.921975 -0.142984
H4    H     H_    0.458278 0.372704 0.661118 0.144136
H5    H     H_    0.446861 0.412802 0.750026 0.145356
H6    H     H_    0.744336 0.598800 0.911921 0.187438
C38   C     C_R   0.649279 0.692509 0.077256 -0.218653
C39   C     C_R   0.647229 0.690802 0.128412 -0.154378
O12   O     O_2   0.639026 0.672036 0.230544 -0.586857
C40   C     C_R   0.661358 0.639616 0.972245 -0.220790
H7    H     H_    0.725641 0.704720 0.068203 0.141513
H8    H     H_    0.668918 0.488213 0.357844 0.166963
H9    H     H_    0.739407 0.635900 0.998306 0.144211
C41   C     C_R   0.730485 0.046895 0.495106 0.146583
C42   C     C_R   0.598290 0.196546 0.505379 -0.157314
C43   C     C_R   0.294516 0.844003 0.492298 0.153905
C44   C     C_R   0.288768 0.938604 0.517437 -0.217935
C45   C     C_R   0.376086 0.995860 0.525125 0.128461
C46   C     C_R   0.461187 0.966733 0.497692 0.082852
C47   C     C_R   0.472896 0.866883 0.477182 0.026049
C48   C     C_R   0.540194 0.029677 0.493617 0.058499
C49   C     C_R   0.641659 0.988411 0.482476 0.098728
C50   C     C_R   0.648740 0.891421 0.459022 -0.250692
C51   C     C_R   0.562457 0.833850 0.453998 -0.161350
C52   C     C_R   0.515793 0.134472 0.494737 -0.294566
C53   C     C_R   0.709080 0.149458 0.513496 0.100079
C54   C     C_R   0.397386 0.800765 0.482238 -0.183792
C55   C     C_R   0.079274 0.390045 0.409488 -0.316828
H10   H     H_    0.245617 0.386607 0.402350 0.147894
H11   H     H_    0.867709 0.360943 0.392105 0.148577
H12   H     H_    0.054459 0.353766 0.372869 0.154214
N3    N     N_R   0.222180 0.444690 0.474320 -0.104171
C56   C     C_R   0.809613 0.622662 0.565318 0.247876
C57   C     C_R   0.920290 0.640694 0.578870 0.159007
C58   C     C_R   0.989256 0.603011 0.547149 -0.292649
C59   C     C_R   0.959965 0.529305 0.510264 -0.038839
C60   C     C_R   0.850551 0.509749 0.497527 0.188548
C61   C     C_R   0.038442 0.475114 0.485576 -0.008895
C62   C     C_R   0.003305 0.425120 0.439238 0.181989
C63   C     C_R   0.894378 0.407520 0.425205 -0.288265
C64   C     C_R   0.821185 0.442956 0.456360 -0.201301
C65   C     C_R   0.151647 0.464856 0.506455 0.223302
C66   C     C_R   0.187874 0.406759 0.426656 -0.031829
N4    N     N_R   0.776980 0.554780 0.525420 -0.157037
H13   H     H_    0.069650 0.627076 0.553603 0.158893
H14   H     H_    0.529526 0.675645 0.643021 0.146214
H15   H     H_    0.722147 0.697037 0.156073 0.185094
C67   C     C_3   0.683106 0.469476 0.259095 -0.353375
C68   C     C_3   0.714286 0.354729 0.269002 -0.927404
H16   H     H_    0.738967 0.339438 0.310299 0.254588
H17   H     H_    0.644140 0.313125 0.252291 0.270405
H18   H     H_    0.784291 0.325005 0.251225 0.260586
H19   H     H_    0.666980 0.478100 0.217324 0.214955
H20   H     H_    0.753586 0.510007 0.276659 0.239792
C69   C     C_3   0.797387 0.196814 0.550880 -0.366588
C70   C     C_3   0.876664 0.244250 0.526182 -0.833925
H21   H     H_    0.959789 0.200046 0.535783 0.231507
H22   H     H_    0.849201 0.245989 0.484290 0.258343
H23   H     H_    0.884072 0.322781 0.541481 0.260193
H24   H     H_    0.759734 0.255423 0.575005 0.210258
H25   H     H_    0.844296 0.137393 0.578063 0.199923
H26   H     H_    0.719965 0.858643 0.444823 0.166383
C71   C     C_3   0.845616 0.999728 0.491073 -0.408807
C72   C     C_3   0.895867 0.920419 0.532157 -0.908820
H27   H     H_    0.886426 0.951507 0.570068 0.257161
H28   H     H_    0.857228 0.849483 0.524170 0.275149
H29   H     H_    0.984483 0.899880 0.533046 0.255171
H30   H     H_    0.845130 0.964587 0.452951 0.198084
H31   H     H_    0.900952 0.058199 0.493867 0.226490
C73   C     C_3   0.516302 0.750844 0.740401 -0.384115
C74   C     C_3   0.525770 0.832394 0.703578 -0.923552
H32   H     H_    0.602475 0.813227 0.689326 0.265415
H33   H     H_    0.453720 0.839330 0.671450 0.262897
H34   H     H_    0.528235 0.907589 0.723582 0.263533
H35   H     H_    0.443807 0.778257 0.756936 0.212040
H36   H     H_    0.589898 0.745725 0.771680 0.232769
H37   H     H_    0.430571 0.166850 0.486112 0.181512
C75   C     C_3   0.191688 0.792113 0.479260 -0.378904
C76   C     C_3   0.097368 0.859803 0.445725 -0.888760
H38   H     H_    0.075464 0.933193 0.465044 0.256585
H39   H     H_    0.120268 0.876468 0.409643 0.272367
H40   H     H_    0.024071 0.819271 0.436684 0.258141
H41   H     H_    0.202812 0.720626 0.457052 0.244827
H42   H     H_    0.167258 0.773941 0.514770 0.193972
C77   C     C_3   0.381203 0.076028 0.567616 -0.413531
C78   C     C_3   0.484165 0.053016 0.609182 -0.854354
H43   H     H_    0.492470 0.973078 0.622093 0.260947
H44   H     H_    0.558509 0.063925 0.595477 0.266329
H45   H     H_    0.478480 0.105640 0.642006 0.245594
H46   H     H_    0.375093 0.154115 0.553675 0.204726
H47   H     H_    0.310051 0.077806 0.586006 0.202393
H48   H     H_    0.217687 0.965258 0.533287 0.142522
H49   H     H_    0.568966 0.760834 0.434222 0.176826
C79   C     C_3   0.191751 0.448073 0.563198 -0.379519
C80   C     C_3   0.252980 0.340505 0.574195 -0.840690
H50   H     H_    0.198004 0.282596 0.558976 0.234999
H51   H     H_    0.325104 0.327035 0.556584 0.292196
H52   H     H_    0.280403 0.330006 0.615797 0.239387
H53   H     H_    0.239657 0.508786 0.581083 0.222226
H54   H     H_    0.122810 0.451426 0.582941 0.205046
C81   C     C_3   0.730178 0.681242 0.595239 -0.385560
C82   C     C_3   0.715816 0.797486 0.589109 -0.942107
H55   H     H_    0.789420 0.832648 0.606619 0.258285
H56   H     H_    0.693860 0.815654 0.548542 0.298641
H57   H     H_    0.647984 0.833766 0.606824 0.252635
H58   H     H_    0.648271 0.663962 0.582949 0.280602
H59   H     H_    0.754316 0.660441 0.635953 0.191188
H60   H     H_    0.193231 0.663779 0.848279 0.187247
C83   C     C_3   0.970405 0.696715 0.626972 -0.453293
C84   C     C_3   0.065475 0.629122 0.660141 -0.797790
H61   H     H_    0.039707 0.555106 0.667706 0.261856
H62   H     H_    0.136878 0.614332 0.641759 0.247530
H63   H     H_    0.091733 0.668640 0.696962 0.283566
H64   H     H_    0.000351 0.766369 0.616330 0.214089
H65   H     H_    0.912113 0.721320 0.651726 0.228290
H66   H     H_    0.745152 0.412725 0.448841 0.207760
C85   C     C_3   0.297720 0.469136 0.226690 -0.369216
C86   C     C_3   0.297299 0.355320 0.235334 -0.912751
H67   H     H_    0.378327 0.311513 0.233625 0.269587
H68   H     H_    0.277714 0.343091 0.272684 0.258713
H69   H     H_    0.234148 0.325469 0.205306 0.260003
H70   H     H_    0.217581 0.512026 0.230584 0.238021
H71   H     H_    0.307222 0.475017 0.187022 0.209124
C87   C     C_3   0.147174 0.669073 0.103983 -0.312952
C88   C     C_3   0.044059 0.669382 0.062015 -0.958905
H72   H     H_    0.027783 0.741272 0.039975 0.266241
H73   H     H_    0.052019 0.601723 0.036493 0.266069
H74   H     H_    0.972627 0.665191 0.079425 0.258144
H75   H     H_    0.154846 0.597965 0.125935 0.223241
H76   H     H_    0.132011 0.736453 0.128843 0.252310

loop_
_geom_bond_atom_site_label_1
_geom_bond_atom_site_label_2
_geom_bond_distance
_ccdc_geom_bond_type
C65   C79   1.520866 S    
C58   C59   1.391394 A    
C68   H16   1.109469 S    
C71   H31   1.101296 S    
C17   C29   1.400943 A    
C28   C29   1.400284 A    
C7    C8    1.391518 A    
C42   C52   1.389505 A    
C12   C15   1.408466 A    
C8    H4    1.082653 S    
C76   H40   1.110862 S    
C1    C54   1.477408 S    
C83   C84   1.530740 S    
C74   H32   1.109989 S    
C56   C57   1.418468 A    
C7    H5    1.082824 S    
C21   H2    1.067955 S    
C87   H76   1.110847 S    
C67   H19   1.108873 S    
N1    C11   1.430908 S    
C20   C24   1.413081 A    
C24   C25   1.408620 A    
C80   H51   1.104061 S    
C79   C80   1.525527 S    
C47   C54   1.409645 A    
C14   C36   1.389235 A    
C26   N2    1.369915 A    
H10   C66   1.080395 S    
O7    C4    1.311460 A    
C15   C37   1.395716 A    
C74   H33   1.110786 S    
C86   H67   1.111273 S    
C71   C72   1.527491 S    
C41   C49   1.423990 A    
C37   C40   1.387273 A    
C81   H58   1.070281 S    
H11   C63   1.082820 S    
C72   H27   1.109765 S    
Zn1   O5    1.933553 S    
C22   C23   1.423591 A    
C69   H24   1.111049 S    
C19   C38   1.413502 A    
C73   H35   1.111635 S    
O5    C3    1.317296 A    
C69   H25   1.110901 S    
C2    C16   1.452824 S    
C80   H50   1.111499 S    
C64   H66   1.067656 S    
C72   H28   1.107532 S    
C43   C44   1.395626 A    
C88   H73   1.110884 S    
Zn2   N4    2.047120 S    
C85   H70   1.111305 S    
C10   C73   1.523149 S    
C45   C46   1.431742 A    
C70   H21   1.110642 S    
C82   H56   1.097589 S    
C83   H64   1.111227 S    
C40   H9    1.077802 S    
C47   C51   1.414553 A    
C29   H1    1.083515 S    
N2    C32   1.472078 S    
C26   O12   1.347960 S    
C39   H15   1.083575 S    
C43   C54   1.419900 A    
Zn1   N3    2.059468 S    
C77   H47   1.112289 S    
C38   C39   1.386550 A    
C68   H17   1.111238 S    
C9    C10   1.403872 A    
C17   C30   1.398908 A    
C73   H36   1.110231 S    
C42   C53   1.423985 A    
C19   C35   1.414609 A    
C55   H12   1.083413 S    
C30   H8    1.082562 S    
C61   C65   1.409885 A    
C33   C36   1.416840 A    
C84   H62   1.109187 S    
C48   C49   1.408326 A    
C87   H75   1.111315 S    
C41   C53   1.431183 A    
O2    Zn2   1.933555 S    
C36   H3    1.076023 S    
C49   C50   1.403589 A    
C23   C27   1.419085 A    
C12   C34   1.418593 A    
C85   C86   1.529436 S    
C18   C33   1.424923 A    
C80   H52   1.109700 S    
C21   C22   1.409056 A    
C12   C13   1.407820 A    
C82   H57   1.109836 S    
O3    C2    1.308440 A    
C41   C71   1.523400 S    
N2    C27   1.372652 A    
C46   C48   1.408423 A    
C57   C58   1.377981 A    
C74   H34   1.110483 S    
C56   C81   1.526734 S    
C8    C16   1.395311 A    
O3    Zn1   1.950524 S    
C13   C14   1.395582 A    
C28   C85   1.519185 S    
O6    C3    1.312168 A    
C53   C69   1.521370 S    
O1    C1    1.305273 A    
C23   C24   1.414149 A    
C81   H59   1.110093 S    
C7    C11   1.401832 A    
C50   C51   1.393967 A    
C22   C87   1.532510 S    
C25   C26   1.395706 A    
C84   H63   1.110532 S    
Zn1   O7    1.969342 S    
C33   C34   1.421537 A    
Zn2   O8    1.950524 S    
C88   H74   1.110902 S    
N1    C6    1.366365 A    
C85   H71   1.108640 S    
C57   C83   1.527004 S    
N3    C65   1.363505 A    
C55   C66   1.396265 A    
C43   C75   1.520984 S    
C82   H55   1.103590 S    
C83   H65   1.103495 S    
C78   H44   1.108656 S    
C79   H54   1.108357 S    
C34   C35   1.418664 A    
C75   H41   1.104420 S    
O8    C4    1.312566 A    
C51   H49   1.082999 S    
C71   H30   1.109439 S    
C68   H18   1.110492 S    
C30   C31   1.399321 A    
C27   O10   1.345330 S    
C69   C70   1.527072 S    
C76   H38   1.108957 S    
C62   C63   1.396355 A    
C31   C32   1.422804 A    
C84   H61   1.111016 S    
C3    C42   1.478115 S    
C5    N1    1.366255 A    
C87   C88   1.531995 S    
C48   C52   1.373713 A    
C35   C40   1.414547 A    
C18   C21   1.414262 A    
O1    Zn1   1.972318 S    
C50   H26   1.080169 S    
C9    C16   1.399841 A    
C19   C20   1.419835 A    
C75   H42   1.111468 S    
C6    C15   1.400296 A    
C59   C61   1.407074 A    
C76   H39   1.110994 S    
C78   H45   1.110490 S    
O4    Zn2   1.969336 S    
C44   H48   1.083908 S    
C52   H37   1.080310 S    
C70   H23   1.107887 S    
C67   H20   1.111447 S    
C77   C78   1.528008 S    
C38   H7    1.078338 S    
C72   H29   1.109198 S    
C60   N4    1.374176 A    
C75   C76   1.530335 S    
C73   C74   1.527005 S    
C46   C47   1.408012 A    
C18   C20   1.413550 A    
C9    H14   1.080492 S    
C31   C67   1.518515 S    
C61   C62   1.404052 A    
O4    C2    1.308875 A    
C14   H60   1.083588 S    
C86   H68   1.110253 S    
C55   C62   1.396946 A    
C5    O9    1.349539 S    
C63   C64   1.398781 A    
C56   N4    1.401638 A    
C70   H22   1.109064 S    
O2    C1    1.322319 A    
C60   C64   1.407847 A    
C44   C45   1.397383 A    
C25   C39   1.394955 A    
C5    C13   1.402245 A    
C78   H43   1.107819 S    
C6    O11   1.350054 S    
C79   H53   1.104405 S    
C59   C60   1.408594 A    
C45   C77   1.524285 S    
Zn2   O6    1.972318 S    
C88   H72   1.110839 S    
C37   H6    1.083537 S    
C28   C32   1.423314 A    
C10   C11   1.412030 A    
C67   C68   1.528974 S    
C4    C17   1.465927 S    
C81   C82   1.529919 S    
N3    C66   1.364150 A    
C77   H46   1.097752 S    
C58   H13   1.082778 S    
C86   H69   1.110555 S    
