data_mof_unit_58625.cif
_audit_creation_date              2012-12-10T16:47:52-0500
_audit_creation_method            fapswitch 2.2
_symmetry_space_group_name_H-M    P1
_symmetry_Int_Tables_number       1
_space_group_crystal_system       triclinic
_cell_length_a                    7.777012
_cell_length_b                    8.577112
_cell_length_c                    10.630736
_cell_angle_alpha                 90.911618
_cell_angle_beta                  86.041902
_cell_angle_gamma                 93.404638
_cell_volume                      706.126196905

loop_
_atom_site_label
_atom_site_type_symbol
_atom_type_description
_atom_site_fract_x
_atom_site_fract_y
_atom_site_fract_z
_atom_type_partial_charge
C1    C     C_R   0.545587 0.794657 0.496933 0.956703
C2    C     C_2   0.569687 0.957976 0.495010 -0.368726
C3    C     C_3   0.832806 0.578683 0.100040 -0.896370
C4    C     C_2   0.430322 0.041998 0.505058 -0.375494
C5    C     C_R   0.502453 0.498367 0.737480 0.899717
C6    C     C_R   0.454419 0.205347 0.503129 0.961189
C7    C     C_R   0.501036 0.517682 0.262640 0.806577
C8    C     C_2   0.651606 0.580631 0.056486 0.157466
C9    C     C_2   0.503555 0.569612 0.132405 0.244306
C10   C     C_2   0.637085 0.585329 0.921114 -0.086328
C11   C     C_2   0.511344 0.498682 0.869763 -0.281092
H1    H     H_    0.735752 0.650688 0.862575 0.169980
H2    H     H_    0.064324 0.696275 0.657033 0.341238
H3    H     H_    0.414816 0.426673 0.924506 0.173650
H4    H     H_    0.701483 0.008564 0.485314 0.184526
H5    H     H_    0.298528 0.991388 0.514769 0.186214
H6    H     H_    0.013279 0.382345 0.405829 0.143190
H7    H     H_    0.931061 0.607675 0.021744 0.249504
H8    H     H_    0.851817 0.667430 0.175816 0.252658
H9    H     H_    0.858164 0.460548 0.132913 0.254506
H10   H     H_    0.253576 0.601625 0.147952 0.350573
N1    N     N_2   0.950320 0.457950 0.466680 -0.074009
N2    N     N_2   0.049680 0.542050 0.533320 0.099471
O1    O     O_R   0.389250 0.738570 0.508180 -0.625779
O2    O     O_3   0.970001 0.641057 0.613024 -0.636875
O3    O     O_R   0.678390 0.711630 0.486820 -0.572985
O4    O     O_R   0.355470 0.513470 0.691600 -0.613463
O5    O     O_R   0.644610 0.486520 0.670240 -0.563187
O6    O     O_R   0.321610 0.288370 0.513180 -0.637401
O7    O     O_R   0.610750 0.261430 0.491820 -0.615738
O8    O     O_R   0.355390 0.513480 0.329760 -0.645372
O9    O     O_R   0.644530 0.486530 0.308400 -0.629413
O10   O     O_3   0.352834 0.617482 0.085255 -0.788542
Zn1   Zn    Zn3+2 0.306940 0.517990 0.514260 0.974681
Zn2   Zn    Zn3+2 0.693060 0.482010 0.485740 1.004628

loop_
_geom_bond_atom_site_label_1
_geom_bond_atom_site_label_2
_ccdc_geom_bond_type
C4    H5    S    
C2    C4    D    
C3    H8    S    
C2    H4    S    
C5    O5    A    
H6    N1    S    
N2    Zn1   S    
O8    Zn1   S    
C3    H9    S    
C9    O10   S    
N1    Zn2   S    
H2    O2    S    
C10   H1    S    
O7    Zn2   S    
C3    H7    S    
C1    C2    S    
C8    C10   S    
C6    O7    A    
C5    C11   S    
N2    O2    S    
O4    Zn1   S    
C1    O3    A    
C11   H3    S    
H10   O10   S    
C10   C11   D    
O9    Zn2   S    
O3    Zn2   S    
C6    O6    A    
C7    O8    A    
C1    O1    A    
C4    C6    S    
C3    C8    S    
C7    C9    S    
N1    N2    D    
C7    O9    A    
C5    O4    A    
O6    Zn1   S    
O1    Zn1   S    
O5    Zn2   S    
C8    C9    D    
