data_mof_unit_22503.cif
_audit_creation_date              2012-10-26T18:50:22-0400
_audit_creation_method            fapswitch 2.2
_symmetry_space_group_name_H-M    P1
_symmetry_Int_Tables_number       1
_space_group_crystal_system       triclinic
_cell_length_a                    9.586808
_cell_length_b                    10.865417
_cell_length_c                    15.379387
_cell_angle_alpha                 87.68689
_cell_angle_beta                  74.276533
_cell_angle_gamma                 90.554731
_cell_volume                      1540.43304871

loop_
_atom_site_label
_atom_site_type_symbol
_atom_type_description
_atom_site_fract_x
_atom_site_fract_y
_atom_site_fract_z
_atom_type_partial_charge
C1    C     C_R   0.003089 0.263094 0.493073 0.547224
C2    C     C_R   0.222713 0.507532 0.037551 -0.040529
C3    C     C_R   0.323734 0.528706 0.087511 0.004865
C4    C     C_R   0.918315 0.501997 0.672229 0.546296
C5    C     C_R   0.075496 0.488891 0.081672 -0.135110
C6    C     C_R   0.024896 0.486928 0.176493 0.252029
C7    C     C_R   0.273625 0.521507 0.182392 -0.184390
C8    C     C_R   0.278778 0.124525 0.435651 -0.097430
C9    C     C_R   0.405280 0.067318 0.441677 -0.133452
C10   C     C_R   0.396833 0.952007 0.485019 -0.128538
C11   C     C_R   0.263829 0.889027 0.514128 -0.104147
C12   C     C_R   0.670663 0.543153 0.903060 0.025418
C13   C     C_R   0.136262 0.940235 0.498830 0.024468
C14   C     C_R   0.141288 0.066206 0.472500 0.026898
C15   C     C_R   0.008738 0.129314 0.485178 -0.010104
C16   C     C_R   0.999759 0.737623 0.504730 0.532527
C17   C     C_R   0.877944 0.062463 0.502440 -0.165670
C18   C     C_R   0.876745 0.935293 0.509949 -0.167712
C19   C     C_R   0.004274 0.872335 0.508234 -0.008409
C20   C     C_R   0.699237 0.662025 0.378814 -0.054697
C21   C     C_R   0.653944 0.741939 0.319779 -0.165728
C22   C     C_R   0.509988 0.743502 0.320548 -0.189804
C23   C     C_R   0.768038 0.590722 0.948553 0.033621
C24   C     C_R   0.410638 0.664577 0.379892 -0.105149
C25   C     C_R   0.451980 0.580688 0.440926 0.135724
C26   C     C_R   0.601707 0.580118 0.440685 0.142921
C27   C     C_R   0.548547 0.423578 0.556372 0.002340
C28   C     C_R   0.081732 0.500572 0.327251 0.544765
C29   C     C_R   0.400631 0.423519 0.556280 -0.002454
C30   C     C_R   0.873342 0.520663 0.769687 -0.016750
C31   C     C_R   0.126087 0.502963 0.227227 0.008231
C32   C     C_R   0.915205 0.608557 0.902733 -0.151974
C33   C     C_R   0.967165 0.575260 0.813236 -0.143243
C34   C     C_R   0.519256 0.539595 0.945965 0.019077
C35   C     C_R   0.728386 0.498660 0.816608 -0.123625
C36   C     C_3   0.805997 0.382603 0.194303 0.010611
C37   C     C_3   0.651254 0.371743 0.255821 -0.242281
C38   C     C_3   0.560185 0.279516 0.221169 -0.491093
C39   C     C_3   0.483046 0.667652 0.774577 0.010739
C40   C     C_3   0.354860 0.731711 0.752364 -0.271709
C41   C     C_3   0.393673 0.865101 0.719055 -0.485024
C42   C     C_R   0.471762 0.553706 0.040971 -0.003370
C43   C     C_R   0.572630 0.597578 0.085351 -0.142423
C44   C     C_R   0.717176 0.619898 0.038887 -0.142677
C45   C     C_R   0.412903 0.529483 0.897021 0.250966
C46   C     C_R   0.268063 0.509571 0.943450 -0.107203
Cu1   Cu    Cu3+1 0.140660 0.499990 0.500010 0.895765
Cu2   Cu    Cu3+1 0.859340 0.500010 0.499990 0.929093
H1    H     H_    0.790292 0.656702 0.074671 0.133541
H2    H     H_    0.811963 0.668363 0.372616 0.194855
H3    H     H_    0.731359 0.803365 0.273223 0.121026
H4    H     H_    0.348778 0.528066 0.222963 0.127116
H5    H     H_    0.474611 0.806555 0.274856 0.124493
H6    H     H_    0.303024 0.674606 0.375100 0.191516
H7    H     H_    0.324536 0.360799 0.602362 0.129116
H8    H     H_    0.190150 0.497336 0.904865 0.126805
H9    H     H_    0.989309 0.650483 0.935544 0.102485
H10   H     H_    0.079469 0.594015 0.777626 0.128378
H11   H     H_    0.661857 0.446223 0.784364 0.178087
H12   H     H_    0.999962 0.479425 0.041445 0.100153
H13   H     H_    0.541243 0.621715 0.155076 0.118988
H14   H     H_    0.862763 0.295014 0.200704 0.125932
H15   H     H_    0.798804 0.397393 0.123839 0.135553
H16   H     H_    0.653473 0.342541 0.325546 0.170783
H17   H     H_    0.599623 0.463063 0.258434 0.181099
H18   H     H_    0.560180 0.305367 0.150525 0.159215
H19   H     H_    0.446612 0.279859 0.263616 0.146645
H20   H     H_    0.603232 0.185329 0.223967 0.143387
H21   H     H_    0.574104 0.667421 0.711902 0.172321
H22   H     H_    0.522008 0.722148 0.823748 0.126914
H23   H     H_    0.775722 0.108398 0.510332 0.131872
H24   H     H_    0.322563 0.681556 0.699026 0.173953
H25   H     H_    0.261747 0.730512 0.813941 0.156140
H26   H     H_    0.422530 0.917852 0.772321 0.151170
H27   H     H_    0.299239 0.908808 0.702563 0.155221
H28   H     H_    0.486701 0.868843 0.657431 0.141309
H29   H     H_    0.290509 0.213524 0.400536 0.141362
H30   H     H_    0.509292 0.114151 0.415186 0.108190
H31   H     H_    0.493924 0.910041 0.494503 0.112545
H32   H     H_    0.263556 0.802952 0.551504 0.150563
H33   H     H_    0.774528 0.886294 0.518720 0.129882
H34   H     H_    0.582998 0.360913 0.602575 0.125309
N1    N     N_R   0.648320 0.501210 0.499140 -0.251385
N2    N     N_R   0.352470 0.501290 0.499110 -0.251946
O1    O     O_R   0.118810 0.319640 0.500010 -0.507398
O2    O     O_3   0.445199 0.543245 0.803620 -0.599710
O3    O     O_R   0.881240 0.319660 0.500000 -0.505751
O4    O     O_R   0.055570 0.499980 0.629840 -0.496414
O5    O     O_R   0.818000 0.500010 0.629830 -0.501811
O6    O     O_R   0.118760 0.680340 0.500000 -0.534441
O7    O     O_R   0.881190 0.680360 0.499990 -0.530525
O8    O     O_R   0.182000 0.499990 0.370170 -0.541406
O9    O     O_R   0.944430 0.500020 0.370160 -0.461643
O10   O     O_3   0.877352 0.483684 0.220007 -0.562375

loop_
_geom_bond_atom_site_label_1
_geom_bond_atom_site_label_2
_ccdc_geom_bond_type
C44   H1    S    
C1    O3    A    
C3    C42   A    
C16   O6    A    
C26   N1    A    
C27   C29   A    
Cu1   O8    S    
C34   C42   A    
C45   C46   A    
C2    C46   A    
C12   C23   A    
C33   H10   S    
C30   C35   A    
Cu1   O1    S    
C36   C37   S    
C7    H4    S    
C3    C7    A    
C5    C6    A    
C24   H6    S    
C18   H33   S    
C40   H25   S    
C35   H11   S    
C18   C19   A    
C20   H2    S    
C41   H26   S    
C38   H18   S    
C8    C9    A    
C6    O10   S    
Cu2   O7    S    
C37   H17   S    
C25   N2    A    
C1    C15   S    
Cu1   O4    S    
C36   H15   S    
C9    C10   A    
C5    H12   S    
C6    C31   A    
C21   C22   A    
C32   H9    S    
C36   H14   S    
C22   H5    S    
C28   C31   S    
C1    O1    A    
C7    C31   A    
Cu2   O9    S    
C13   C19   A    
C24   C25   A    
C29   N2    A    
C11   H32   S    
C39   C40   S    
C29   H7    S    
C25   C26   A    
C23   C44   A    
C28   O9    A    
C43   C44   A    
C37   C38   S    
C41   H27   S    
Cu1   Cu2   S    
C17   C18   A    
C39   H21   S    
Cu2   O3    S    
C28   O8    A    
C34   C45   A    
Cu1   N2    S    
C38   H19   S    
C12   C35   A    
C40   C41   S    
C38   H20   S    
C17   H23   S    
Cu2   O5    S    
C8    H29   S    
Cu1   O6    S    
C22   C24   A    
C2    C5    A    
C42   C43   A    
C12   C34   A    
C21   H3    S    
C37   H16   S    
C43   H13   S    
C4    O5    A    
C15   C17   A    
C8    C14   A    
C40   H24   S    
C30   C33   A    
C27   H34   S    
C10   H31   S    
C4    O4    A    
Cu2   N1    S    
C32   C33   A    
C27   N1    A    
C2    C3    A    
C23   C32   A    
C41   H28   S    
C11   C13   A    
C20   C26   A    
C16   C19   S    
C39   H22   S    
C45   O2    S    
C9    H30   S    
C10   C11   A    
C36   O10   S    
C20   C21   A    
C16   O7    A    
C46   H8    S    
C14   C15   A    
C39   O2    S    
C13   C14   A    
C4    C30   S    
