data_mof_unit_51086.cif
_audit_creation_date              2013-03-05T16:12:50-0500
_audit_creation_method            fapswitch 2.2
_symmetry_space_group_name_H-M    P1
_symmetry_Int_Tables_number       1
_space_group_crystal_system       triclinic
_cell_length_a                    25.780654
_cell_length_b                    6.90414
_cell_length_c                    21.735508
_cell_angle_alpha                 90.0
_cell_angle_beta                  96.170752
_cell_angle_gamma                 89.999949
_cell_volume                      3846.35778148

loop_
_atom_site_label
_atom_site_type_symbol
_atom_site_description
_atom_site_fract_x
_atom_site_fract_y
_atom_site_fract_z
_atom_type_partial_charge
O1    O     O_R   0.208650 0.594520 0.175450 -0.579841
O2    O     O_R   0.791350 0.405480 0.824550 -0.579840
O3    O     O_R   0.291350 0.094520 0.324550 -0.579839
O4    O     O_R   0.708650 0.905480 0.675450 -0.579843
O5    O     O_R   0.192980 0.260780 0.300160 -0.589355
O6    O     O_R   0.807020 0.739220 0.699840 -0.589337
O7    O     O_R   0.307020 0.760780 0.199840 -0.589342
O8    O     O_R   0.692980 0.239220 0.800160 -0.589346
C1    C     C_R   0.178837 0.432836 0.318480 0.934678
C2    C     C_R   0.821164 0.567164 0.681521 0.934647
C3    C     C_R   0.321163 0.932836 0.181521 0.934661
C4    C     C_R   0.678836 0.067164 0.818479 0.934660
O9    O     O_R   0.202550 0.264660 0.174420 -0.593869
O10   O     O_R   0.797450 0.735340 0.825580 -0.593868
O11   O     O_R   0.297450 0.764660 0.325580 -0.593867
O12   O     O_R   0.702550 0.235340 0.674420 -0.593870
O13   O     O_R   0.300990 0.096480 0.197920 -0.585915
O14   O     O_R   0.699010 0.903520 0.802080 -0.585916
O15   O     O_R   0.199010 0.596480 0.302080 -0.585921
O16   O     O_R   0.800990 0.403520 0.697920 -0.585912
C5    C     C_R   0.191215 0.433256 0.150970 1.033464
C6    C     C_R   0.808785 0.566744 0.849030 1.033452
C7    C     C_R   0.308785 0.933255 0.349030 1.033415
C8    C     C_R   0.691215 0.066744 0.650970 1.033490
O17   O     O_3   0.282290 0.427760 0.257860 -0.274607
O18   O     O_3   0.717710 0.572240 0.742140 -0.274618
O19   O     O_3   0.217710 0.927760 0.242140 -0.274622
O20   O     O_3   0.782290 0.072240 0.757860 -0.274607
V1    V     V_3+5 0.244010 0.152080 0.248540 1.207366
V2    V     V_3+5 0.755990 0.847920 0.751460 1.207373
V3    V     V_3+5 0.255990 0.652080 0.251460 1.207377
V4    V     V_3+5 0.744010 0.347920 0.748540 1.207366
C9    C     C_R   0.658705 0.061734 0.590679 -0.275702
C10   C     C_R   0.341298 0.938258 0.409319 -0.275686
C11   C     C_R   0.841297 0.561737 0.909320 -0.275695
C12   C     C_R   0.158704 0.438265 0.090680 -0.275697
C13   C     C_R   0.645629 0.141823 0.481591 -0.273331
C14   C     C_R   0.354380 0.858048 0.518398 -0.273333
C15   C     C_R   0.854375 0.641881 0.018404 -0.273330
C16   C     C_R   0.145627 0.358146 0.981594 -0.273332
C17   C     C_R   0.679132 0.125010 0.536456 0.365441
C18   C     C_R   0.320878 0.874877 0.463534 0.365513
C19   C     C_R   0.820873 0.625063 0.963539 0.365478
C20   C     C_R   0.179129 0.374959 0.036459 0.365465
C21   C     C_R   0.605450 0.013679 0.588621 -0.293938
C22   C     C_R   0.394549 0.986368 0.411381 -0.293927
C23   C     C_R   0.894550 0.513655 0.911380 -0.293931
C24   C     C_R   0.105450 0.486335 0.088620 -0.293934
C25   C     C_R   0.571004 0.030593 0.533062 0.134017
C26   C     C_R   0.428998 0.969406 0.466936 0.133997
C27   C     C_R   0.928997 0.530592 0.966937 0.134007
C28   C     C_R   0.071003 0.469408 0.033063 0.134010
C29   C     C_R   0.592421 0.096664 0.479508 0.122475
C30   C     C_R   0.407584 0.903272 0.520486 0.122490
C31   C     C_R   0.907581 0.596689 0.020490 0.122483
C32   C     C_R   0.092420 0.403324 0.979509 0.122481
C33   C     C_R   0.516108 0.987623 0.528861 0.068307
C34   C     C_R   0.483894 0.012377 0.471138 0.068311
C35   C     C_R   0.983893 0.487626 0.971138 0.068309
C36   C     C_R   0.016107 0.512374 0.028862 0.068308
C37   C     C_R   0.507688 0.079034 0.419612 -0.204819
C38   C     C_R   0.492315 0.920935 0.580384 -0.204826
C39   C     C_R   0.992313 0.579039 0.080387 -0.204822
C40   C     C_R   0.007688 0.420968 0.919612 -0.204822
C41   C     C_R   0.560686 0.119336 0.423843 -0.187408
C42   C     C_R   0.439320 0.880590 0.576150 -0.187399
C43   C     C_R   0.939317 0.619361 0.076154 -0.187402
C44   C     C_R   0.060685 0.380654 0.923844 -0.187406
H1    H     H_    0.577013 0.170334 0.382844 0.140221
H2    H     H_    0.422995 0.829548 0.617145 0.140219
H3    H     H_    0.922990 0.670377 0.117152 0.140220
H4    H     H_    0.077012 0.329648 0.882846 0.140218
H5    H     H_    0.407971 0.030630 0.368289 0.116900
H6    H     H_    0.592023 0.969502 0.631718 0.116881
H7    H     H_    0.092024 0.530537 0.131716 0.116886
H8    H     H_    0.907974 0.469436 0.868285 0.116891
H9    H     H_    0.661300 0.190453 0.439908 0.173370
H10   H     H_    0.338710 0.809347 0.560074 0.173329
H11   H     H_    0.838704 0.690543 0.060084 0.173348
H12   H     H_    0.161298 0.309497 0.939913 0.173355
H13   H     H_    0.486387 0.102602 0.374895 0.130798
H14   H     H_    0.513618 0.897341 0.625099 0.130802
H15   H     H_    0.013615 0.602617 0.125104 0.130800
H16   H     H_    0.986386 0.397395 0.874895 0.130799
C45   C     C_R   0.425616 0.793253 0.077032 -0.132181
C46   C     C_R   0.574384 0.206747 0.922968 -0.132180
C47   C     C_R   0.074383 0.293253 0.422966 -0.132178
C48   C     C_R   0.925615 0.706747 0.577031 -0.132184
H17   H     H_    0.442557 0.662517 0.060227 0.111045
H18   H     H_    0.557443 0.337483 0.939773 0.111044
H19   H     H_    0.057441 0.162517 0.439769 0.111042
H20   H     H_    0.942555 0.837483 0.560225 0.111046
C49   C     C_R   0.386390 0.778284 0.117030 -0.119339
C50   C     C_R   0.613610 0.221716 0.882970 -0.119342
C51   C     C_R   0.113609 0.278284 0.382968 -0.119344
C52   C     C_R   0.886389 0.721716 0.617029 -0.119339
H21   H     H_    0.373918 0.635707 0.130035 0.145274
H22   H     H_    0.626081 0.364292 0.869965 0.145270
H23   H     H_    0.126079 0.135708 0.369961 0.145257
H24   H     H_    0.873917 0.864293 0.630033 0.145282
C53   C     C_R   0.363481 0.945684 0.139602 -0.147054
C54   C     C_R   0.636519 0.054316 0.860397 -0.147046
C55   C     C_R   0.136519 0.445684 0.360398 -0.147030
C56   C     C_R   0.863481 0.554316 0.639603 -0.147063
C57   C     C_R   0.381099 0.127927 0.121011 -0.087538
C58   C     C_R   0.618901 0.872073 0.878989 -0.087530
C59   C     C_R   0.118903 0.627927 0.378992 -0.087512
C60   C     C_R   0.881100 0.372073 0.621013 -0.087549
H25   H     H_    0.364675 0.260350 0.137234 0.153462
H26   H     H_    0.635325 0.739650 0.862767 0.153459
H27   H     H_    0.135328 0.760350 0.362772 0.153452
H28   H     H_    0.864678 0.239650 0.637237 0.153466
C61   C     C_R   0.420187 0.142407 0.081130 -0.128982
C62   C     C_R   0.579813 0.857593 0.918870 -0.128987
C63   C     C_R   0.079815 0.642407 0.418873 -0.128996
C64   C     C_R   0.920189 0.357593 0.581132 -0.128977
H29   H     H_    0.432820 0.284397 0.067643 0.110068
H30   H     H_    0.567180 0.715603 0.932357 0.110068
H31   H     H_    0.067183 0.784397 0.432362 0.110068
H32   H     H_    0.932823 0.215603 0.567647 0.110067
C65   C     C_R   0.442702 0.975487 0.058819 0.162632
C66   C     C_R   0.557299 0.024513 0.941181 0.162633
C67   C     C_R   0.057299 0.475487 0.441181 0.162633
C68   C     C_R   0.942702 0.524513 0.558820 0.162633
C69   C     C_1   0.483132 0.992301 0.017326 -0.049569
C70   C     C_1   0.516868 0.007698 0.982674 -0.049570
C71   C     C_1   0.016869 0.492302 0.482675 -0.049571
C72   C     C_1   0.983132 0.507698 0.517326 -0.049570
N1    N     N_R   0.266500 0.826368 0.463730 0.230065
O21   O     O_R   0.230748 0.919028 0.428492 -0.429436
O22   O     O_R   0.252038 0.702086 0.503556 -0.386688
N2    N     N_R   0.733518 0.173421 0.536250 0.230073
O23   O     O_R   0.769256 0.080926 0.571557 -0.429471
O24   O     O_R   0.748001 0.297380 0.496339 -0.386679
N3    N     N_R   0.233512 0.326517 0.036256 0.230070
O25   O     O_R   0.269255 0.419065 0.071541 -0.429460
O26   O     O_R   0.247989 0.202455 0.996372 -0.386683
N4    N     N_R   0.766491 0.673525 0.963740 0.230070
O27   O     O_R   0.730745 0.580948 0.928468 -0.429453
O28   O     O_R   0.752019 0.797651 0.003607 -0.386683

loop_
_geom_bond_atom_site_label_1
_geom_bond_atom_site_label_2
_geom_bond_distance
_ccdc_geom_bond_type
O17   V3    1.690379 S    
C48   C52   1.406479 A    
O1    C5    1.293588 A    
C47   H19   1.083134 S    
O19   V1    1.690380 S    
C9    C21   1.408495 A    
O3    C7    1.293591 A    
C10   C18   1.410878 A    
C48   C68   1.403997 A    
C11   C23   1.408493 A    
C25   C33   1.439283 A    
N3    O25   1.301408 A    
C5    C12   1.478114 S    
O7    C3    1.316744 A    
C6    C11   1.478116 S    
O5    C1    1.316745 A    
C26   C30   1.416380 A    
C58   C62   1.401686 A    
C36   C39   1.410690 A    
C40   C44   1.387681 A    
C57   C61   1.401686 A    
C23   H8    1.077063 S    
C14   C18   1.400036 A    
C58   H26   1.082395 S    
O4    C8    1.293586 A    
C51   H23   1.082499 S    
C44   H4    1.084404 S    
C50   H22   1.082499 S    
O1    V3    1.985814 S    
O13   V1    1.965527 S    
C31   C43   1.394609 A    
C19   N4    1.441831 S    
O2    V4    1.985809 S    
O3    V1    1.985810 S    
C40   H16   1.076108 S    
C46   C50   1.406477 A    
C65   C69   1.454437 S    
C45   C49   1.406481 A    
C1    O15   1.309160 A    
C15   C31   1.402691 A    
C48   H20   1.083133 S    
C2    O16   1.309158 A    
N2    O23   1.301408 A    
C16   C32   1.402692 A    
C47   C51   1.406478 A    
O2    C6    1.293589 A    
C16   H12   1.084209 S    
C45   C65   1.403997 A    
C10   C22   1.408495 A    
C11   C19   1.410894 A    
C16   C20   1.400052 A    
C43   H3    1.084404 S    
C1    C55   1.497296 S    
C68   C72   1.454437 S    
C13   C29   1.402691 A    
C34   C37   1.410688 A    
O11   C7    1.291537 A    
C38   H14   1.076109 S    
O15   V3    1.965523 S    
C35   C36   1.438425 A    
O12   C8    1.291541 A    
C53   C57   1.411448 A    
C24   H7    1.077065 S    
O10   V2    1.992951 S    
C51   C55   1.409824 A    
O5    V1    1.967274 S    
O17   V1    2.143522 S    
C39   C43   1.387680 A    
C63   C67   1.400249 A    
C38   C42   1.387679 A    
O19   V3    2.143520 S    
C26   C34   1.439283 A    
O20   V4    2.143518 S    
O7    V3    1.967276 S    
C46   H18   1.083134 S    
C49   C53   1.409823 A    
C45   H17   1.083133 S    
O18   V4    1.690380 S    
C15   C19   1.400049 A    
C14   H10   1.084208 S    
C33   C38   1.410687 A    
C32   C44   1.394610 A    
C13   H9    1.084205 S    
C60   H28   1.082395 S    
C39   H15   1.076111 S    
C21   H6    1.077065 S    
O8    V4    1.967276 S    
C66   C70   1.454440 S    
C4    C54   1.497294 S    
C37   C41   1.387679 A    
C67   C71   1.454439 S    
C14   C30   1.402692 A    
C21   C25   1.424771 A    
O8    C4    1.316745 A    
C7    C10   1.478114 S    
C35   C40   1.410689 A    
O9    C5    1.291540 A    
C3    C53   1.497298 S    
C59   C63   1.401687 A    
C62   H30   1.083307 S    
N4    O28   1.301533 A    
C61   H29   1.083308 S    
N2    O24   1.301538 A    
O6    V2    1.967276 S    
O18   V2    2.143522 S    
C63   H31   1.083308 S    
C52   C56   1.409825 A    
C69   C70   1.214839 T    
C12   C20   1.410901 A    
C27   C35   1.439285 A    
C71   C72   1.214839 T    
C49   H21   1.082499 S    
C56   C60   1.411449 A    
C29   C41   1.394612 A    
N1    O21   1.301410 A    
O16   V4    1.965525 S    
O9    V1    1.992954 S    
N3    O26   1.301539 A    
C57   H25   1.082395 S    
C3    O13   1.309157 A    
C64   C68   1.400250 A    
C59   H27   1.082394 S    
O6    C2    1.316744 A    
C17   N2    1.441853 S    
C23   C27   1.424776 A    
O11   V3    1.992953 S    
C30   C42   1.394608 A    
O12   V4    1.992954 S    
C22   C26   1.424781 A    
C8    C9    1.478115 S    
C9    C17   1.410910 A    
O10   C6    1.291539 A    
C2    C56   1.497295 S    
C37   H13   1.076107 S    
C47   C67   1.403997 A    
C60   C64   1.401686 A    
C33   C34   1.438423 A    
C42   H2    1.084402 S    
C20   N3    1.441839 S    
C41   H1    1.084402 S    
C52   H24   1.082499 S    
O20   V2    1.690379 S    
C12   C24   1.408494 A    
C18   N1    1.441810 S    
C27   C31   1.416377 A    
C13   C17   1.400060 A    
C46   C66   1.403997 A    
C25   C29   1.416370 A    
N4    O27   1.301409 A    
O14   V2    1.965522 S    
C62   C66   1.400249 A    
C64   H32   1.083307 S    
C24   C28   1.424774 A    
C61   C65   1.400249 A    
C50   C54   1.409825 A    
C28   C36   1.439285 A    
C54   C58   1.411449 A    
C4    O14   1.309159 A    
C55   C59   1.411448 A    
C22   H5    1.077059 S    
O4    V2    1.985815 S    
C28   C32   1.416375 A    
C15   H11   1.084208 S    
N1    O22   1.301532 A    
