data_mof_unit_67783.cif
_audit_creation_date              2013-03-05T15:41:21-0500
_audit_creation_method            fapswitch 2.2
_symmetry_space_group_name_H-M    P1
_symmetry_Int_Tables_number       1
_space_group_crystal_system       triclinic
_cell_length_a                    8.051112
_cell_length_b                    8.781214
_cell_length_c                    10.971631
_cell_angle_alpha                 93.272568
_cell_angle_beta                  86.33126
_cell_angle_gamma                 92.107742
_cell_volume                      772.399039755

loop_
_atom_site_label
_atom_site_type_symbol
_atom_site_description
_atom_site_fract_x
_atom_site_fract_y
_atom_site_fract_z
_atom_type_partial_charge
O1    O     O_R   0.389250 0.738570 0.508370 -0.616711
O2    O     O_R   0.678390 0.711620 0.486510 -0.631253
C1    C     C_R   0.543220 0.793180 0.496493 0.981910
O3    O     O_R   0.355430 0.513500 0.696140 -0.567036
O4    O     O_R   0.644580 0.486550 0.674270 -0.639726
C2    C     C_R   0.500234 0.498674 0.742123 0.826907
Zn1   Zn    Zn3+2 0.306940 0.517990 0.514600 1.013602
Zn2   Zn    Zn3+2 0.693060 0.482010 0.485400 0.970269
O5    O     O_R   0.321610 0.288380 0.513490 -0.632009
O6    O     O_R   0.610750 0.261430 0.491630 -0.614580
O7    O     O_R   0.355420 0.513450 0.325730 -0.563369
O8    O     O_R   0.644570 0.486500 0.303860 -0.623259
C3    C     C_R   0.456535 0.206961 0.496958 0.910553
C4    C     C_R   0.497655 0.502176 0.259551 0.891634
C5    C     C_3   0.331682 0.584276 0.941064 0.316956
C6    C     C_3   0.330593 0.576263 0.083762 0.224001
H1    H     H_    0.238390 0.486922 0.112274 0.209495
H2    H     H_    0.392944 0.269558 0.888261 0.233287
H3    H     H_    0.367030 0.281580 0.092840 0.166864
C7    C     C_3   0.498285 0.336518 0.924262 -0.410044
C8    C     C_3   0.653639 0.578437 0.929282 -0.430930
C9    C     C_3   0.493314 0.500342 0.881122 -0.087484
H4    H     H_    0.757783 0.506617 0.894477 0.265931
H5    H     H_    0.681946 0.690403 0.892317 0.176853
C10   C     C_3   0.492715 0.503251 0.124259 -0.142486
C11   C     C_3   0.490912 0.334177 0.066698 -0.172622
C12   C     C_3   0.647816 0.589969 0.070524 -0.358726
H6    H     H_    0.657833 0.707645 0.109390 0.160891
H7    H     H_    0.761141 0.544628 0.102882 0.248388
H8    H     H_    0.613842 0.284858 0.882962 0.163800
C13   C     C_2   0.564463 0.956242 0.495479 -0.370502
H9    H     H_    0.687651 0.005868 0.501446 0.204078
C14   C     C_2   0.435510 0.044075 0.484418 -0.374023
H10   H     H_    0.313476 0.996150 0.468496 0.193967
N1    N     N_2   0.950330 0.457950 0.465890 -0.148173
H11   H     H_    0.005148 0.362650 0.424470 0.182455
N2    N     N_2   0.049670 0.542050 0.534110 -0.096206
S1    S     S_3+6 0.131026 0.486466 0.906945 -0.081338
O9    O     O_2   0.004566 0.584466 0.974909 -0.345666
O10   O     O_2   0.082173 0.462522 0.777654 -0.359394
O11   O     O_3   0.121040 0.312968 0.964014 -0.669873
H12   H     H_    0.094671 0.239406 0.895486 0.378654
C15   C     C_R   0.615385 0.228112 0.115565 0.086535
C16   C     C_R   0.556278 0.103566 0.182982 -0.139961
C17   C     C_R   0.667557 0.003039 0.225164 -0.142912
C18   C     C_R   0.837724 0.033177 0.213059 -0.140253
C19   C     C_R   0.898608 0.155662 0.147467 -0.061040
C20   C     C_R   0.788369 0.247297 0.093239 -0.104135
H13   H     H_    0.423966 0.080915 0.199260 0.181462
H14   H     H_    0.623268 0.900903 0.267551 0.178933
H15   H     H_    0.922215 0.960032 0.252758 0.177877
H16   H     H_    0.031610 0.175969 0.137534 0.197441
H17   H     H_    0.837408 0.330710 0.032431 0.217830
C21   C     C_R   0.990899 0.691355 0.568902 0.319035
C22   C     C_R   0.035852 0.816219 0.498115 -0.149004
C23   C     C_R   0.992373 0.964778 0.537176 -0.262772
C24   C     C_R   0.913869 0.992629 0.652733 -0.128921
C25   C     C_R   0.870975 0.870655 0.725128 -0.196558
C26   C     C_R   0.902804 0.721195 0.681325 -0.122606
H18   H     H_    0.111092 0.801617 0.415773 0.250318
H19   H     H_    0.026577 0.059210 0.480400 0.160290
H20   H     H_    0.887984 0.108209 0.686326 0.166206
H21   H     H_    0.820899 0.892581 0.817362 0.158807
H22   H     H_    0.875905 0.630999 0.740708 0.201983
C27   C     C_R   0.342993 0.751353 0.900736 0.133296
C28   C     C_R   0.262828 0.795876 0.800119 -0.029267
C29   C     C_R   0.307988 0.930832 0.744849 -0.146784
C30   C     C_R   0.446160 0.015775 0.780837 -0.146149
C31   C     C_R   0.517708 0.981445 0.886731 -0.208081
C32   C     C_R   0.454355 0.860270 0.952074 -0.101269
H23   H     H_    0.175155 0.721823 0.758427 0.194601
H24   H     H_    0.243987 0.963194 0.668855 0.173045
H25   H     H_    0.493956 0.111091 0.729765 0.141054
H26   H     H_    0.624384 0.045691 0.918014 0.152889
H27   H     H_    0.502166 0.847485 0.038279 0.174240
S2    S     S_3+6 0.224431 0.728189 0.173869 -0.037325
O12   O     O_2   0.337887 0.806601 0.262099 -0.394738
O13   O     O_2   0.154777 0.846596 0.099455 -0.335278
O14   O     O_3   0.062421 0.640455 0.249621 -0.574126
H28   H     H_    0.960974 0.688394 0.225485 0.370257

loop_
_geom_bond_atom_site_label_1
_geom_bond_atom_site_label_2
_geom_bond_distance
_ccdc_geom_bond_type
C16   H13   1.081837 S    
C22   C23   1.399484 A    
C12   H7    1.096059 S    
O11   H12   0.991234 S    
N1    H11   1.029419 S    
S2    O14   1.687046 S    
C24   H20   1.082772 S    
C7    H8    1.109199 S    
C17   C18   1.385181 A    
Zn1   O7    2.082354 S    
C26   H22   1.061577 S    
N1    N2    1.309711 D    
S2    O13   1.503522 D    
O4    C2    1.343680 A    
O7    C4    1.319888 A    
C5    C6    1.570668 S    
C2    C9    1.521747 S    
C25   H21   1.074678 S    
C23   C24   1.392889 A    
C29   H24   1.065016 S    
H3    C11   1.111302 S    
O5    C3    1.319545 A    
C21   C22   1.403021 A    
C5    C9    1.604642 S    
C19   C20   1.401417 A    
C30   C31   1.382372 A    
C13   C14   1.331620 D    
C15   C20   1.404214 A    
C30   H25   1.079293 S    
C28   C29   1.387971 A    
C8    C12   1.544996 S    
O1    Zn1   2.027448 S    
C22   H18   1.059249 S    
O3    Zn1   2.056893 S    
C11   C15   1.534165 S    
C21   C26   1.399274 A    
C20   H17   1.066918 S    
C29   C30   1.382512 A    
S2    O12   1.495447 D    
S1    O11   1.677224 S    
O3    C2    1.313230 A    
C6    H1    1.104470 S    
C10   C11   1.579824 S    
C18   H15   1.080280 S    
O1    C1    1.313910 A    
Zn2   N1    2.085921 S    
C15   C16   1.406663 A    
C5    S1    1.851026 S    
C3    C14   1.433927 S    
C28   H23   1.050685 S    
Zn2   O8    2.056892 S    
C14   H10   1.075222 S    
Zn1   N2    2.085921 S    
C31   H26   1.074099 S    
C1    C13   1.436395 S    
N2    C21   1.433146 S    
C7    C9    1.542568 S    
C8    H4    1.103190 S    
C32   H27   1.056990 S    
C16   C17   1.397850 A    
C6    C10   1.574955 S    
Zn1   O5    2.023341 S    
C18   C19   1.385450 A    
C6    S2    1.820128 S    
C13   H9    1.072902 S    
O2    Zn2   2.023341 S    
O8    C4    1.321957 A    
O6    C3    1.313010 A    
O4    Zn2   2.082355 S    
C19   H16   1.078682 S    
C10   C12   1.540744 S    
O2    C1    1.319993 A    
C25   C26   1.398606 A    
S1    O10   1.497468 D    
C24   C25   1.390034 A    
S1    O9    1.492396 D    
C7    C11   1.561363 S    
C17   H14   1.072698 S    
H2    C7    1.095774 S    
C4    C10   1.488023 S    
C31   C32   1.380848 A    
O14   H28   0.990009 S    
Zn2   O6    2.027447 S    
C27   C28   1.395384 A    
C8    H5    1.095588 S    
C12   H6    1.097306 S    
C23   H19   1.082461 S    
C8    C9    1.548037 S    
C27   C32   1.405676 A    
C5    C27   1.554252 S    
