data_mof_unit_18971.cif
_audit_creation_date              2012-10-26T19:15:05-0400
_audit_creation_method            fapswitch 2.2
_symmetry_space_group_name_H-M    P1
_symmetry_Int_Tables_number       1
_space_group_crystal_system       triclinic
_cell_length_a                    10.84193
_cell_length_b                    10.803916
_cell_length_c                    9.558754
_cell_angle_alpha                 89.695828
_cell_angle_beta                  90.310728
_cell_angle_gamma                 90.321508
_cell_volume                      1119.61783596

loop_
_atom_site_label
_atom_site_type_symbol
_atom_type_description
_atom_site_fract_x
_atom_site_fract_y
_atom_site_fract_z
_atom_type_partial_charge
C1    C     C_R   0.498689 0.262539 0.500035 0.549495
C2    C     C_R   0.415314 0.935304 0.584079 0.000798
C3    C     C_3   0.391714 0.927063 0.737645 -0.243751
C4    C     C_R   0.262396 0.496679 0.499717 0.546799
C5    C     C_3   0.391195 0.068560 0.737584 -0.135563
C6    C     C_R   0.527516 0.605518 0.073206 0.165075
C7    C     C_R   0.461932 0.399280 0.074648 -0.022173
C8    C     C_R   0.462955 0.399030 0.926274 -0.035485
C9    C     C_R   0.527052 0.605662 0.925789 0.158586
C10   C     C_3   0.645283 0.676233 0.920695 -0.279351
C11   C     C_3   0.645636 0.676375 0.079129 -0.276680
C12   C     C_R   0.937298 0.472425 0.623718 0.011187
C13   C     C_R   0.499184 0.737480 0.499576 0.549445
C14   C     C_R   0.737755 0.497715 0.500071 0.547548
C15   C     C_R   0.064470 0.470113 0.623925 0.033521
C16   C     C_R   0.129410 0.482724 0.498776 -0.002576
C17   C     C_R   0.063775 0.476972 0.371593 -0.165367
C18   C     C_R   0.935098 0.477732 0.371745 -0.165477
C19   C     C_R   0.870935 0.484725 0.499047 0.001934
C20   C     C_3   0.265382 0.124964 0.770189 -0.421007
C21   C     C_3   0.125588 0.469419 0.879257 -0.408564
C22   C     C_3   0.932567 0.546912 0.754507 -0.252037
C23   C     C_3   0.072726 0.543538 0.756160 -0.124093
C24   C     C_R   0.414853 0.062669 0.584000 0.031354
C25   C     C_R   0.493979 0.129371 0.496836 0.004989
C26   C     C_R   0.559872 0.065667 0.393899 -0.163412
C27   C     C_R   0.560299 0.936589 0.394020 -0.160322
C28   C     C_R   0.494165 0.870654 0.496234 0.007776
Cu1   Cu    Cu3+1 0.499990 0.499980 0.640670 0.923189
Cu2   Cu    Cu3+1 0.500010 0.500020 0.359330 0.930259
H1    H     H_    0.470691 0.887742 0.796713 0.125733
H2    H     H_    0.111141 0.478614 0.272106 0.134191
H3    H     H_    0.246816 0.116233 0.883913 0.123282
H4    H     H_    0.265308 0.224594 0.741083 0.151390
H5    H     H_    0.190156 0.077905 0.711097 0.145453
H6    H     H_    0.431973 0.316954 0.129709 0.121863
H7    H     H_    0.720380 0.620753 0.876080 0.143161
H8    H     H_    0.633300 0.770307 0.122743 0.116615
H9    H     H_    0.888424 0.494317 0.841328 0.137527
H10   H     H_    0.083006 0.375761 0.886320 0.133757
H11   H     H_    0.226258 0.459131 0.866410 0.166516
H12   H     H_    0.469350 0.109768 0.797380 0.139497
H13   H     H_    0.108581 0.519575 0.978294 0.124318
H14   H     H_    0.616152 0.115269 0.318636 0.126477
H15   H     H_    0.617809 0.888927 0.319989 0.116292
H16   H     H_    0.433979 0.316817 0.871912 0.115132
H17   H     H_    0.634971 0.769883 0.874144 0.116690
H18   H     H_    0.722552 0.622270 0.125960 0.143581
H19   H     H_    0.886758 0.479457 0.272299 0.130174
H20   H     H_    0.895915 0.641505 0.735670 0.115912
H21   H     H_    0.116688 0.635993 0.741445 0.143040
H22   H     H_    0.301095 0.882966 0.760759 0.134951
N1    N     N_R   0.500790 0.500930 0.147930 -0.231282
N2    N     N_R   0.500790 0.500890 0.852020 -0.233966
O1    O     O_R   0.500000 0.319640 0.618810 -0.510837
O2    O     O_R   0.500010 0.319680 0.381230 -0.514266
O3    O     O_R   0.319650 0.499970 0.618810 -0.506483
O4    O     O_R   0.319660 0.500010 0.381230 -0.503494
O5    O     O_R   0.499990 0.680320 0.618770 -0.503376
O6    O     O_R   0.500000 0.680360 0.381190 -0.500603
O7    O     O_R   0.680340 0.499990 0.618770 -0.497689
O8    O     O_R   0.680350 0.500030 0.381190 -0.509658

loop_
_geom_bond_atom_site_label_1
_geom_bond_atom_site_label_2
_ccdc_geom_bond_type
C4    O3    A    
C4    C16   S    
C11   H8    S    
C1    C25   S    
C3    H22   S    
C13   C28   S    
Cu1   Cu2   S    
C13   O5    A    
C9    C10   S    
C23   H21   S    
C12   C15   A    
C22   H20   S    
Cu1   N2    S    
C20   H4    S    
C27   H15   S    
C6    C9    A    
C15   C23   S    
C2    C3    S    
C11   H18   S    
C26   H14   S    
C7    C8    A    
C13   O6    A    
C3    H1    S    
C14   O7    A    
C5    C24   S    
C6    C11   S    
C26   C27   A    
C21   H10   S    
C10   H7    S    
C21   H11   S    
C20   H3    S    
Cu2   O4    S    
C12   C19   A    
C1    O2    A    
Cu1   O3    S    
C17   C18   A    
C8    H16   S    
C21   C23   S    
Cu2   O8    S    
C2    C24   A    
Cu2   N1    S    
Cu1   O7    S    
C1    O1    A    
C10   C11   S    
C7    N1    A    
C6    N1    A    
C4    O4    A    
C15   C16   A    
C14   O8    A    
C12   C22   S    
C27   C28   A    
C24   C25   A    
C5    H12   S    
C18   C19   A    
C7    H6    S    
C8    N2    A    
C10   H17   S    
C5    C20   S    
C17   H2    S    
C22   C23   S    
C2    C28   A    
C9    N2    A    
Cu1   O1    S    
C22   H9    S    
C25   C26   A    
C21   H13   S    
C20   H5    S    
Cu2   O2    S    
C14   C19   S    
Cu1   O5    S    
C18   H19   S    
C16   C17   A    
C3    C5    S    
Cu2   O6    S    
