data_mof_unit_5376.cif
_audit_creation_date              2012-12-11T15:29:14-0500
_audit_creation_method            fapswitch 2.2
_symmetry_space_group_name_H-M    P1
_symmetry_Int_Tables_number       1
_space_group_crystal_system       triclinic
_cell_length_a                    13.494018
_cell_length_b                    13.557908
_cell_length_c                    27.565087
_cell_angle_alpha                 90.50617
_cell_angle_beta                  89.86803
_cell_angle_gamma                 59.979896
_cell_volume                      4366.2229725

loop_
_atom_site_label
_atom_site_type_symbol
_atom_type_description
_atom_site_fract_x
_atom_site_fract_y
_atom_site_fract_z
_atom_type_partial_charge
C1    C     C_R   0.620268 0.100623 0.569926 0.541932
C2    C     C_1   0.646239 0.709078 0.658599 -0.051596
C3    C     C_3   0.081217 0.139696 0.736646 -0.131327
C4    C     C_R   0.599407 0.779817 0.568595 0.543664
C5    C     C_3   0.175075 0.065491 0.774070 -0.070488
C6    C     C_1   0.095318 0.202107 0.899760 -0.015023
C7    C     C_1   0.224399 0.140460 0.615822 -0.012373
C8    C     C_3   0.046716 0.247725 0.768476 -0.105807
C9    C     C_3   0.141253 0.173405 0.804929 0.019654
C10   C     C_3   0.135047 0.267613 0.741008 0.012221
C11   C     C_3   0.168284 0.161561 0.709468 0.075648
C12   C     C_1   0.629385 0.734444 0.616454 -0.010842
C13   C     C_3   0.228642 0.195601 0.778182 -0.090350
C14   C     C_3   0.259615 0.089914 0.746587 0.125436
C15   C     C_1   0.121084 0.184748 0.857412 -0.061478
C16   C     C_R   0.276872 0.122100 0.568986 0.546037
C17   C     C_1   0.192875 0.151818 0.657379 -0.041747
C18   C     C_3   0.623880 0.269192 0.739362 -0.116122
C19   C     C_3   0.556461 0.243729 0.777983 0.012285
C20   C     C_1   0.691528 0.205470 0.902051 -0.017759
C21   C     C_1   0.635103 0.129774 0.618274 -0.009686
C22   C     C_3   0.734842 0.202393 0.769984 -0.097459
C23   C     C_3   0.684655 0.573753 0.768501 0.027156
C24   C     C_3   0.665557 0.178232 0.808149 0.051974
C25   C     C_3   0.759906 0.092339 0.743364 0.138708
C26   C     C_3   0.651812 0.157347 0.713064 0.054933
C27   C     C_3   0.693572 0.067092 0.781687 0.017031
C28   C     C_R   0.622527 0.100044 0.431418 0.553081
C29   C     C_3   0.583066 0.132070 0.751185 -0.102814
C30   C     C_1   0.675666 0.192203 0.860212 -0.058152
C31   C     C_1   0.644161 0.145071 0.660686 -0.042739
C32   C     C_R   0.624416 0.749418 0.379770 0.047591
C33   C     C_R   0.662731 0.639667 0.361618 -0.136960
C34   C     C_3   0.675928 0.662165 0.805660 0.054914
C35   C     C_R   0.677790 0.620499 0.311713 -0.122964
C36   C     C_R   0.652499 0.711644 0.280716 0.023991
C37   C     C_R   0.613402 0.821075 0.299104 -0.149387
C38   C     C_R   0.599657 0.839821 0.348587 -0.119959
C39   C     C_R   0.572513 0.688995 0.204158 0.075581
C40   C     C_R   0.601622 0.777492 0.430496 0.527736
C41   C     C_R   0.584925 0.662023 0.155297 -0.095207
C42   C     C_R   0.767657 0.658494 0.152941 0.024972
C43   C     C_R   0.756126 0.684149 0.202922 0.103304
C44   C     C_R   0.660853 0.694310 0.228535 0.026538
C45   C     C_3   0.578695 0.665651 0.742068 -0.073454
C46   C     C_R   0.685368 0.637764 0.130104 -0.028289
C47   C     C_R   0.233909 0.132574 0.382137 0.024814
C48   C     C_R   0.278834 0.035861 0.351767 -0.133242
C49   C     C_R   0.256111 0.047292 0.302600 -0.089903
C50   C     C_R   0.184308 0.154949 0.283256 0.056889
C51   C     C_R   0.135295 0.251552 0.313877 -0.128097
C52   C     C_R   0.280363 0.119384 0.430787 0.537104
C53   C     C_R   0.161291 0.240571 0.363118 -0.128478
C54   C     C_R   0.172521 0.252148 0.206195 -0.154645
C55   C     C_R   0.143520 0.272053 0.157527 -0.137065
C56   C     C_3   0.659014 0.689344 0.710902 0.047570
C57   C     C_R   0.107305 0.114008 0.156186 -0.129098
C58   C     C_R   0.132945 0.095577 0.205355 0.096569
C59   C     C_R   0.163588 0.166814 0.230867 0.067537
C60   C     C_R   0.106501 0.205811 0.132721 0.001184
C61   C     C_R   0.645127 0.139755 0.385058 0.040150
C62   C     C_R   0.582346 0.256842 0.371894 0.006749
C63   C     C_R   0.585654 0.287547 0.323358 0.114215
C64   C     C_3   0.765142 0.596006 0.736607 -0.093463
C65   C     C_R   0.654025 0.202626 0.289223 0.001300
C66   C     C_R   0.723475 0.090344 0.303532 -0.145466
C67   C     C_3   0.569932 0.755143 0.779833 -0.098870
C68   C     C_R   0.720671 0.057982 0.350807 0.066331
C69   C     C_R   0.767470 0.207718 0.221056 -0.133887
C70   C     C_R   0.785412 0.207781 0.171714 -0.118855
C71   C     C_R   0.589145 0.255984 0.156349 -0.130762
C72   C     C_R   0.571837 0.252999 0.206225 -0.115127
C73   C     C_R   0.661749 0.227699 0.238471 0.025757
C74   C     C_R   0.697460 0.229482 0.139092 0.039533
C75   C     C_R   0.049393 0.235290 0.947865 0.545721
C76   C     C_3   0.756162 0.685748 0.774356 -0.118667
C77   C     C_R   0.711761 0.562452 0.946653 0.544801
C78   C     C_3   0.649682 0.779732 0.747742 -0.105724
C79   C     C_R   0.722488 0.223988 0.949364 0.545097
C80   C     C_R   0.048184 0.243606 0.086158 0.540763
C81   C     C_R   0.708486 0.573393 0.084165 0.539273
C82   C     C_R   0.721037 0.234511 0.088051 0.534322
C83   C     C_1   0.695993 0.611069 0.899477 -0.018313
C84   C     C_3   0.112068 0.382118 0.722181 -0.410879
C85   C     C_3   0.439780 0.331030 0.798131 -0.407656
C86   C     C_3   0.737910 0.953096 0.806307 -0.416735
C87   C     C_3   0.868171 0.651066 0.125232 -0.341712
C88   C     C_3   0.513382 0.349025 0.409147 -0.350162
C89   C     C_1   0.685827 0.639888 0.857781 -0.058935
C90   C     C_3   0.703971 0.456988 0.780418 -0.414578
Cr1   Cr    Cr6+3 0.417550 0.169090 0.500530 1.010708
Cr2   Cr    Cr6+3 0.669180 0.913420 0.499920 1.043225
Cr3   Cr    Cr6+3 0.413260 0.917540 0.499520 1.029509
Cr4   Cr    Cr6+3 0.909770 0.175810 0.018240 1.018856
Cr5   Cr    Cr6+3 0.913300 0.427650 0.016090 1.011102
Cr6   Cr    Cr6+3 0.657770 0.431010 0.016900 1.025561
H1    H     H_    0.829777 0.692111 0.788377 0.102531
H2    H     H_    0.707013 0.535817 0.297108 0.111789
H3    H     H_    0.592342 0.891707 0.275119 0.113119
H4    H     H_    0.567652 0.925528 0.362673 0.126035
H5    H     H_    0.337885 0.951827 0.365365 0.140625
H6    H     H_    0.198547 0.305860 0.225053 0.109281
H7    H     H_    0.144590 0.342798 0.140090 0.132209
H8    H     H_    0.633741 0.865382 0.737506 0.113030
H9    H     H_    0.297774 0.972361 0.279475 0.132589
H10   H     H_    0.079634 0.061384 0.137517 0.127885
H11   H     H_    0.079035 0.335471 0.299478 0.108296
H12   H     H_    0.290468 0.216527 0.795092 0.097757
H13   H     H_    0.127278 0.316054 0.386007 0.123806
H14   H     H_    0.837234 0.188076 0.245716 0.119775
H15   H     H_    0.868085 0.191801 0.158905 0.127128
H16   H     H_    0.490320 0.266473 0.219498 0.108174
H17   H     H_    0.490671 0.818089 0.799077 0.118322
H18   H     H_    0.519974 0.275585 0.131400 0.106396
H19   H     H_    0.779169 0.026167 0.277279 0.118386
H20   H     H_    0.506678 0.655912 0.728417 0.110964
H21   H     H_    0.194267 0.981194 0.787975 0.113702
H22   H     H_    0.020224 0.117965 0.719410 0.137104
H23   H     H_    0.958433 0.314835 0.777932 0.107727
H24   H     H_    0.082421 0.445210 0.752457 0.128985
H25   H     H_    0.191876 0.373160 0.706316 0.135452
H26   H     H_    0.045373 0.412030 0.693798 0.131390
H27   H     H_    0.375751 0.361230 0.768602 0.126945
H28   H     H_    0.413721 0.291681 0.826895 0.132030
H29   H     H_    0.444149 0.404428 0.813804 0.135608
H30   H     H_    0.777467 0.884431 0.778631 0.121440
H31   H     H_    0.804249 0.940682 0.833142 0.140168
H32   H     H_    0.666546 0.950059 0.824975 0.134826
H33   H     H_    0.928190 0.977017 0.752578 0.221645
H34   H     H_    0.592622 0.352327 0.721300 0.106422
H35   H     H_    0.864672 0.942733 0.708485 0.232581
H36   H     H_    0.432269 0.786492 0.245617 0.233978
H37   H     H_    0.494424 0.644525 0.255395 0.241734
H38   H     H_    0.876675 0.634092 0.255400 0.237220
H39   H     H_    0.807768 0.775700 0.243466 0.227920
H40   H     H_    0.840272 0.690420 0.089016 0.123617
H41   H     H_    0.905047 0.698258 0.143720 0.156152
H42   H     H_    0.936704 0.560689 0.121217 0.159804
H43   H     H_    0.036326 0.026802 0.225153 0.224760
H44   H     H_    0.174876 0.931224 0.212914 0.234898
H45   H     H_    0.520201 0.104408 0.743293 0.091388
H46   H     H_    0.500412 0.433258 0.398275 0.162677
H47   H     H_    0.428115 0.356776 0.414177 0.155780
H48   H     H_    0.559147 0.329063 0.444294 0.118608
H49   H     H_    0.461769 0.412307 0.282830 0.235097
H50   H     H_    0.576308 0.428643 0.294137 0.231093
H51   H     H_    0.776762 0.890370 0.339329 0.224170
H52   H     H_    0.878165 0.920143 0.357682 0.232358
H53   H     H_    0.730247 0.405210 0.746579 0.123335
H54   H     H_    0.772260 0.416432 0.807896 0.130588
H55   H     H_    0.623925 0.464185 0.795100 0.139463
H56   H     H_    0.802518 0.223445 0.778325 0.105205
H57   H     H_    0.426294 0.994649 0.764211 0.208107
H58   H     H_    0.404675 0.034909 0.706304 0.226310
H59   H     H_    0.680172 0.570244 0.385727 0.106550
H60   H     H_    0.844341 0.529513 0.718501 0.102281
H61   H     H_    0.518286 0.652204 0.137995 0.166685
N1    N     N_3   0.871666 0.010015 0.723500 -0.636256
N2    N     N_3   0.471077 0.706412 0.228705 -0.638842
N3    N     N_3   0.844071 0.694378 0.227797 -0.649617
N4    N     N_3   0.120362 0.009550 0.229795 -0.645072
N5    N     N_3   0.520449 0.404697 0.309276 -0.644717
N6    N     N_3   0.793229 0.940683 0.363198 -0.588054
N7    N     N_3   0.376133 0.003036 0.734055 -0.633966
O1    O     O_R   0.301780 0.195490 0.553940 -0.509003
O2    O     O_R   0.636050 0.541380 0.962520 -0.507337
O3    O     O_R   0.666480 0.323610 0.968170 -0.495516
O4    O     O_R   0.522450 0.158840 0.550250 -0.498939
O5    O     O_R   0.817280 0.156800 0.072180 -0.520239
O6    O     O_R   0.005110 0.187160 0.067410 -0.509455
O7    O     O_R   0.026450 0.340060 0.069950 -0.523504
O8    O     O_R   0.808300 0.527240 0.065170 -0.503359
O9    O     O_R   0.634070 0.548770 0.069460 -0.520544
O10   O     O_R   0.664650 0.330470 0.067300 -0.495504
O11   O     O_3   0.826940 0.344820 0.017080 -0.245822
O12   O     O_R   0.658840 0.818280 0.449970 -0.491439
O13   O     O_R   0.694460 0.003360 0.553820 -0.505069
O14   O     O_R   0.657750 0.819520 0.549120 -0.497067
O15   O     O_R   0.501990 0.803120 0.552700 -0.503433
O16   O     O_R   0.318230 0.023430 0.549370 -0.488549
O17   O     O_R   0.302950 0.194150 0.446980 -0.516263
O18   O     O_R   0.523540 0.157600 0.451100 -0.516634
O19   O     O_R   0.695630 0.002030 0.446860 -0.465163
O20   O     O_R   0.503160 0.801780 0.445740 -0.517707
O21   O     O_R   0.319320 0.022190 0.450230 -0.504457
O22   O     O_3   0.499990 0.000010 0.499990 -0.255092
O23   O     O_R   0.819250 0.149410 0.965240 -0.507248
O24   O     O_R   0.006940 0.180310 0.968270 -0.493597
O25   O     O_R   0.028420 0.332670 0.963010 -0.507066
O26   O     O_R   0.810130 0.520390 0.966030 -0.496086

loop_
_geom_bond_atom_site_label_1
_geom_bond_atom_site_label_2
_ccdc_geom_bond_type
C63   N5    S    
H38   N3    S    
C63   C65   A    
C1    C21   S    
C23   C45   S    
Cr6   O11   S    
C86   H30   S    
C66   C68   A    
C75   O24   A    
C18   C26   S    
C24   C27   S    
C80   O6    A    
C90   H54   S    
C2    C12   T    
C77   O2    A    
C72   H16   S    
Cr3   O15   S    
C56   C78   S    
C6    C75   S    
C39   C41   A    
C20   C30   T    
Cr2   O12   S    
C21   C31   T    
C62   C63   A    
C79   O23   A    
C50   C59   S    
H58   N7    S    
C36   C37   A    
C75   O25   A    
C28   O19   A    
C76   C78   S    
C13   H12   S    
Cr4   O5    S    
C11   C14   S    
Cr2   O22   S    
C27   C29   S    
H49   N5    S    
C77   C83   S    
C84   H26   S    
C70   H15   S    
C55   H7    S    
C65   C73   S    
C85   H28   S    
C18   C19   S    
C42   C46   A    
C81   O8    A    
C49   C50   A    
Cr5   O11   S    
C70   C74   A    
C9    C13   S    
Cr5   O26   S    
C6    C15   T    
C1    O13   A    
C60   C80   S    
C82   O10   A    
C45   C56   S    
C8    C9    S    
C7    C17   T    
C22   C25   S    
C45   C67   S    
C41   C46   A    
C56   C64   S    
C69   C73   A    
C32   C38   A    
C4    C12   S    
C35   H2    S    
Cr5   O8    S    
C88   H47   S    
Cr4   O11   S    
C47   C53   A    
C40   O20   A    
Cr3   O22   S    
C57   H10   S    
C86   H31   S    
C82   O5    A    
C26   C31   S    
C55   C60   A    
C61   C62   A    
C67   C78   S    
C74   C82   S    
C90   H53   S    
C88   H46   S    
H33   N1    S    
C25   C26   S    
Cr3   O16   S    
Cr1   O1    S    
C57   C58   A    
C54   C59   A    
C83   C89   T    
C22   H56   S    
Cr6   O3    S    
H36   N2    S    
C66   H19   S    
H57   N7    S    
C78   H8    S    
C13   C14   S    
Cr1   O4    S    
H43   N4    S    
C3    C11   S    
C52   O17   A    
C38   H4    S    
C3    C8    S    
Cr6   O9    S    
C4    O14   A    
C40   O12   A    
C72   C73   A    
C57   C60   A    
C49   H9    S    
C1    O4    A    
C3    C5    S    
C76   H1    S    
C86   H32   S    
C10   C13   S    
C71   H18   S    
C5    H21   S    
H37   N2    S    
C35   C36   A    
C81   O9    A    
H35   N1    S    
C43   C44   A    
C5    C9    S    
C37   C38   A    
C3    H22   S    
C46   C81   S    
H50   N5    S    
C69   H14   S    
C47   C48   A    
C16   O1    A    
C84   H24   S    
C23   C34   S    
C29   H45   S    
C50   C51   A    
C64   C76   S    
C23   C90   S    
Cr4   O23   S    
C28   O18   A    
C5    C14   S    
C47   C52   S    
Cr2   O14   S    
C41   H61   S    
C8    C10   S    
C23   C64   S    
Cr1   O22   S    
C43   N3    S    
Cr1   O17   S    
C27   C86   S    
Cr6   O2    S    
C36   C44   S    
C24   C30   S    
C42   C43   A    
C77   O26   A    
C4    O15   A    
C19   C29   S    
C37   H3    S    
Cr6   O10   S    
C68   N6    S    
C53   H13   S    
Cr3   O20   S    
C54   C55   A    
C11   C17   S    
H39   N3    S    
C20   C79   S    
C39   N2    S    
C85   H29   S    
C18   C22   S    
H52   N6    S    
C87   H40   S    
C54   H6    S    
C7    C16   S    
Cr4   O24   S    
C90   H55   S    
C19   C85   S    
Cr2   O19   S    
C34   C67   S    
C71   C74   A    
C33   H59   S    
C39   C44   A    
C25   C27   S    
C64   H60   S    
C79   O3    A    
C32   C33   A    
H44   N4    S    
C19   C24   S    
C9    C15   S    
C34   C89   S    
C71   C72   A    
H51   N6    S    
C28   C61   S    
C61   C68   A    
C45   H20   S    
C67   H17   S    
C62   C88   S    
C48   C49   A    
C48   H5    S    
C10   C84   S    
C33   C35   A    
C85   H27   S    
C22   C24   S    
Cr2   O13   S    
C32   C40   S    
C14   N7    S    
C69   C70   A    
C58   C59   A    
C18   H34   S    
C10   C11   S    
Cr5   O25   S    
C26   C29   S    
C51   H11   S    
C65   C66   A    
C52   O21   A    
Cr1   O18   S    
C25   N1    S    
C2    C56   S    
C42   C87   S    
C87   H42   S    
C80   O7    A    
C51   C53   A    
C87   H41   S    
C58   N4    S    
Cr5   O7    S    
C88   H48   S    
Cr4   O6    S    
C16   O16   A    
C8    H23   S    
C34   C76   S    
C84   H25   S    
Cr3   O21   S    
