data_mof_unit_56272.cif
_audit_creation_date              2012-12-11T16:22:22-0500
_audit_creation_method            fapswitch 2.2
_symmetry_space_group_name_H-M    P1
_symmetry_Int_Tables_number       1
_space_group_crystal_system       triclinic
_cell_length_a                    16.922036
_cell_length_b                    16.828933
_cell_length_c                    19.577221
_cell_angle_alpha                 118.052434
_cell_angle_beta                  62.739369
_cell_angle_gamma                 100.67741
_cell_volume                      4370.506292

loop_
_atom_site_label
_atom_site_type_symbol
_atom_type_description
_atom_site_fract_x
_atom_site_fract_y
_atom_site_fract_z
_atom_type_partial_charge
C1    C     C_R   0.048509 0.755287 0.001655 0.472260
C2    C     C_R   0.238213 0.574055 0.835127 -0.069137
C3    C     C_R   0.184105 0.491014 0.087287 -0.138752
C4    C     C_R   0.752600 0.448353 0.171957 -0.125986
C5    C     C_R   0.992808 0.337605 0.758219 -0.121527
C6    C     C_R   0.258007 0.540562 0.063930 0.046459
C7    C     C_R   0.948351 0.259253 0.756773 0.037953
C8    C     C_R   0.236746 0.551683 0.758131 0.017493
C9    C     C_R   0.033761 0.223779 0.998922 0.089264
C10   C     C_R   0.825320 0.921631 0.477778 -0.184354
C11   C     C_R   0.856801 0.843055 0.401610 -0.154864
C12   C     C_R   0.746295 0.493867 0.254143 0.035538
C13   C     C_R   0.932099 0.844668 0.330225 0.141678
C14   C     C_R   0.969524 0.927144 0.333150 -0.167953
C15   C     C_R   0.938403 0.005379 0.409159 -0.162702
C16   C     C_R   0.805061 0.558567 0.959041 -0.126964
C17   C     C_R   0.869620 0.002110 0.483331 0.113770
C18   C     C_R   0.873956 0.163648 0.580000 -0.181796
C19   C     C_R   0.899399 0.225572 0.643856 -0.162975
C20   C     C_R   0.912517 0.198101 0.695522 0.142879
C21   C     C_R   0.892209 0.110576 0.687761 -0.171362
C22   C     C_R   0.867279 0.048754 0.623881 -0.161417
C23   C     C_R   0.723613 0.544035 0.015481 0.056677
C24   C     C_R   0.862544 0.073588 0.566667 0.118057
C25   C     C_R   0.506463 0.513222 0.406892 -0.166502
C26   C     C_R   0.586013 0.479173 0.334688 -0.182342
C27   C     C_R   0.663592 0.527030 0.331417 0.147050
C28   C     C_R   0.963301 0.674812 0.248782 -0.119962
C29   C     C_R   0.660002 0.611627 0.399003 -0.160709
C30   C     C_R   0.580203 0.646116 0.471019 -0.183795
C31   C     C_R   0.503624 0.595682 0.476510 0.120928
C32   C     C_R   0.445903 0.630195 0.627740 -0.166857
C33   C     C_R   0.381421 0.613904 0.694992 -0.147262
C34   C     C_R   0.973391 0.760673 0.253902 -0.002134
C35   C     C_R   0.298154 0.584263 0.695488 0.167505
C36   C     C_R   0.276838 0.581595 0.633082 -0.150466
C37   C     C_R   0.341759 0.597724 0.565396 -0.183655
C38   C     C_R   0.428215 0.616070 0.559697 0.114712
C39   C     C_R   0.637842 0.587844 0.049683 0.130841
C40   C     C_R   0.738169 0.478572 0.032836 -0.122213
C41   C     C_R   0.324868 0.569292 0.098005 0.131488
C42   C     C_R   0.405041 0.540891 0.160176 -0.222046
C43   C     C_R   0.328893 0.532528 0.147668 -0.169290
C44   C     C_R   0.391905 0.625466 0.072048 -0.267648
C45   C     C_R   0.250666 0.567546 0.010221 -0.097427
C46   C     C_R   0.470652 0.628264 0.078460 0.182455
C47   C     C_R   0.478539 0.582090 0.119487 0.186397
C48   C     C_R   0.562076 0.566735 0.108692 -0.272713
C49   C     C_R   0.629080 0.643586 0.017918 -0.173280
C50   C     C_R   0.545158 0.665477 0.033986 -0.217455
C51   C     C_R   0.824986 0.155932 0.103109 0.099008
C52   C     C_R   0.026615 0.751986 0.172098 -0.090749
C53   C     C_R   0.977818 0.854768 0.974491 0.195453
C54   C     C_R   0.923641 0.932121 0.924910 -0.242414
C55   C     C_R   0.963163 0.856177 0.909996 -0.156226
C56   C     C_R   0.926365 0.259841 0.834250 -0.136904
C57   C     C_R   0.955292 0.931902 0.053410 -0.215228
C58   C     C_R   0.915103 0.008252 0.069163 0.156046
C59   C     C_R   0.897387 0.007585 0.004922 0.192412
C60   C     C_R   0.851466 0.081420 0.022848 -0.274750
C61   C     C_R   0.844160 0.157515 0.165905 -0.157667
C62   C     C_R   0.888802 0.083902 0.149322 -0.204256
C63   C     C_R   0.830944 0.518611 0.248239 -0.144080
C64   C     C_R   0.966787 0.686663 0.929103 -0.237048
C65   C     C_R   0.000566 0.768876 0.965894 -0.066268
C66   C     C_R   0.159255 0.505962 0.758882 -0.124097
C67   C     C_R   0.054794 0.308702 0.049114 -0.130040
C68   C     C_R   0.977186 0.240018 0.972351 -0.120346
H1    H     H_    0.879430 0.217006 0.860123 0.089521
H2    H     H_    0.027034 0.930710 0.278887 0.144122
H3    H     H_    0.700859 0.411765 0.153407 0.084334
H4    H     H_    0.974459 0.066256 0.411660 0.122577
H5    H     H_    0.869521 0.184353 0.537141 0.115091
H6    H     H_    0.911453 0.293786 0.650740 0.108168
H7    H     H_    0.901136 0.088033 0.727354 0.110162
H8    H     H_    0.860161 0.979502 0.614449 0.115465
H9    H     H_    0.448692 0.472016 0.410485 0.118185
H10   H     H_    0.587301 0.414246 0.282731 0.112088
H11   H     H_    0.718720 0.651126 0.396213 0.106159
H12   H     H_    0.131190 0.488086 0.714032 0.089307
H13   H     H_    0.579094 0.709894 0.524146 0.117196
H14   H     H_    0.512334 0.643716 0.624531 0.115767
H15   H     H_    0.817254 0.601659 0.928930 0.090918
H16   H     H_    0.399833 0.617611 0.742493 0.105705
H17   H     H_    0.212016 0.562440 0.633619 0.105947
H18   H     H_    0.326832 0.588009 0.513805 0.116814
H19   H     H_    0.567494 0.529080 0.138520 0.119995
H20   H     H_    0.686336 0.665190 0.975928 0.116946
H21   H     H_    0.409827 0.506630 0.193259 0.128223
H22   H     H_    0.539601 0.702859 0.003837 0.132079
H23   H     H_    0.096219 0.322326 0.081819 0.104904
H24   H     H_    0.276711 0.491738 0.171513 0.116687
H25   H     H_    0.388392 0.658267 0.037468 0.126729
H26   H     H_    0.835647 0.081489 0.975180 0.115873
H27   H     H_    0.930257 0.658236 0.301860 0.089735
H28   H     H_    0.823591 0.215644 0.227755 0.122458
H29   H     H_    0.911088 0.930755 0.874842 0.130176
H30   H     H_    0.901862 0.085665 0.199269 0.134625
H31   H     H_    0.979555 0.797267 0.848921 0.123585
H32   H     H_    0.963044 0.930305 0.104697 0.145962
H33   H     H_    0.688728 0.444982 0.067624 0.089513
H34   H     H_    0.946884 0.189517 0.932940 0.098113
H35   H     H_    0.045662 0.805845 0.153774 0.159248
H36   H     H_    0.850541 0.545498 0.299942 0.089129
H37   H     H_    0.936804 0.670035 0.886041 0.122015
H38   H     H_    0.289562 0.616007 0.987808 0.122101
H39   H     H_    0.264488 0.841169 0.910386 0.371637
H40   H     H_    0.281571 0.620420 0.861361 0.133000
H41   H     H_    0.161622 0.470241 0.137565 0.090209
H42   H     H_    0.009135 0.365233 0.713602 0.087075
H43   H     H_    0.771159 0.918096 0.534044 0.114928
H44   H     H_    0.824615 0.780692 0.399849 0.104242
N1    N     N_R   0.034930 0.670790 0.995440 -0.097862
N2    N     N_R   0.867000 0.509260 0.948460 -0.038521
N3    N     N_R   0.003780 0.616410 0.165900 -0.044707
N4    N     N_R   0.825670 0.461520 0.995440 -0.041439
N5    N     N_R   0.045120 0.664150 0.118920 -0.034432
N6    N     N_R   0.884940 0.497570 0.165910 -0.037713
N7    N     N_R   0.985840 0.628110 0.948460 -0.061262
N8    N     N_R   0.174330 0.538480 0.004560 -0.040532
N9    N     N_R   0.954880 0.335850 0.881080 -0.039392
N10   N     N_R   0.115060 0.502430 0.834090 -0.043911
N11   N     N_R   0.014160 0.371890 0.051540 -0.045641
N12   N     N_R   0.965070 0.329210 0.004560 -0.045440
N13   N     N_R   0.164150 0.545120 0.881070 -0.042913
N14   N     N_R   0.133000 0.490740 0.051540 -0.045350
N15   N     N_R   0.996220 0.383590 0.834100 -0.039713
N16   N     N_R   0.835850 0.454880 0.118930 -0.037827
Ni1   Ni    Ni4+2 0.103690 0.603690 0.000000 0.297372
Ni2   Ni    Ni4+2 0.896310 0.396310 0.000000 0.208079
Ni3   Ni    Ni4+2 0.991110 0.505800 0.892250 0.205336
Ni4   Ni    Ni4+2 0.008890 0.494200 0.107750 0.208817
O1    O     O_2   0.124003 0.907055 0.074230 -0.327427
O2    O     O_2   0.200035 0.763521 0.016633 -0.356618
O3    O     O_3   0.206879 0.816987 0.909232 -0.531020
S1    S     S_3+6 0.146568 0.812671 0.003527 -0.085304

loop_
_geom_bond_atom_site_label_1
_geom_bond_atom_site_label_2
_ccdc_geom_bond_type
C25   C31   A    
C52   H35   S    
C58   C62   A    
C6    C45   A    
N11   Ni4   S    
C27   C29   A    
C14   H2    S    
N2    Ni3   S    
C54   C55   A    
C35   C36   A    
C51   C61   A    
C22   H8    S    
N9    Ni2   S    
C3    C6    A    
C68   N12   A    
C61   H28   S    
N11   N12   A    
C8    C66   A    
C15   H4    S    
C56   H1    S    
C26   C27   A    
C29   C30   A    
C64   N7    A    
N1    Ni1   S    
C28   H27   S    
C18   C24   A    
C36   C37   A    
C68   H34   S    
N9    N15   A    
C30   C31   A    
N8    N14   A    
C5    H42   S    
C10   C17   A    
C23   C40   A    
C15   C17   A    
C18   C19   A    
H39   O3    S    
C44   H25   S    
C40   H33   S    
C62   H30   S    
N6    N16   A    
C19   C20   A    
N3    N5    A    
C6    C41   S    
C50   H22   S    
O1    S1    D    
N7    Ni3   S    
C66   N10   A    
C54   H29   S    
C32   C38   A    
C4    C12   A    
C1    S1    S    
C53   C65   S    
C16   N2    A    
N3    Ni4   S    
C52   N5    A    
O3    S1    S    
C28   C34   A    
C59   C60   A    
N1    N7    A    
C13   C14   A    
C41   C43   A    
C49   H20   S    
C1    N1    A    
C7    C56   A    
C44   C46   A    
C54   C59   A    
C53   C55   A    
C3    N14   A    
C17   C24   S    
C4    N16   A    
C12   C27   S    
N8    Ni1   S    
C37   H18   S    
C64   H37   S    
C5    C7    A    
C12   C63   A    
C53   C57   A    
O2    S1    D    
C25   C26   A    
C57   H32   S    
C16   H15   S    
C67   N11   A    
C8    C35   S    
C9    C67   A    
C37   C38   A    
C28   N3    A    
C1    C65   A    
C47   C48   A    
C29   H11   S    
N14   Ni4   S    
C5    N15   A    
C67   H23   S    
C48   H19   S    
N12   Ni2   S    
C10   H43   S    
N10   N13   A    
C26   H10   S    
C56   N9    A    
C45   N8    A    
C39   C49   A    
C49   C50   A    
C18   H5    S    
C41   C44   A    
C25   H9    S    
C42   C43   A    
N10   Ni3   S    
N5    Ni1   S    
C45   H38   S    
C63   N6    A    
C21   H7    S    
C46   C47   A    
C66   H12   S    
C11   H44   S    
C19   H6    S    
C2    C8    A    
C63   H36   S    
N16   Ni2   S    
N2    N4    A    
C36   H17   S    
C16   C23   A    
C32   H14   S    
C46   C50   A    
C34   C52   A    
C43   H24   S    
C31   C38   S    
C42   H21   S    
C32   C33   A    
C30   H13   S    
C58   C59   A    
C9    C68   A    
C13   C34   S    
C64   C65   A    
C11   C13   A    
C57   C58   A    
C40   N4    A    
C3    H41   S    
C23   C39   S    
C2    H40   S    
C33   C35   A    
C22   C24   A    
C42   C47   A    
C61   C62   A    
C33   H16   S    
N15   Ni3   S    
N6    Ni4   S    
C10   C11   A    
C2    N13   A    
N13   Ni1   S    
N4    Ni2   S    
C20   C21   A    
C7    C20   S    
C55   H31   S    
C14   C15   A    
C51   C60   A    
C21   C22   A    
C4    H3    S    
C39   C48   A    
C60   H26   S    
