data_mof_unit_42021.cif
_audit_creation_date              2012-12-11T15:36:29-0500
_audit_creation_method            fapswitch 2.2
_symmetry_space_group_name_H-M    P1
_symmetry_Int_Tables_number       1
_space_group_crystal_system       triclinic
_cell_length_a                    15.013357
_cell_length_b                    15.050051
_cell_length_c                    34.912429
_cell_angle_alpha                 90.858387
_cell_angle_beta                  91.507178
_cell_angle_gamma                 60.319988
_cell_volume                      6851.1966739

loop_
_atom_site_label
_atom_site_type_symbol
_atom_type_description
_atom_site_fract_x
_atom_site_fract_y
_atom_site_fract_z
_atom_type_partial_charge
C1    C     C_R   0.610316 0.304279 0.443500 0.573824
C2    C     C_R   0.619867 0.081662 0.762465 -0.153218
C3    C     C_R   0.044518 0.789957 0.880121 -0.142951
C4    C     C_R   0.079138 0.777439 0.843203 -0.171190
C5    C     C_R   0.134966 0.679596 0.827494 0.043251
C6    C     C_R   0.162398 0.592620 0.850355 0.275214
C7    C     C_R   0.126245 0.605929 0.887853 -0.105509
C8    C     C_R   0.250206 0.605856 0.771743 -0.083965
C9    C     C_R   0.264141 0.599178 0.732407 -0.115337
C10   C     C_R   0.181964 0.659632 0.707416 0.017369
C11   C     C_R   0.085656 0.727351 0.721835 -0.096580
C12   C     C_R   0.071098 0.732837 0.761063 -0.086337
C13   C     C_R   0.604370 0.161316 0.787601 -0.018992
C14   C     C_R   0.642926 0.757457 0.162133 0.286348
C15   C     C_R   0.153170 0.671931 0.786247 0.034352
C16   C     C_R   0.173359 0.731275 0.642820 -0.119107
C17   C     C_R   0.198270 0.716773 0.603991 0.210916
C18   C     C_R   0.262690 0.534115 0.612391 -0.147939
C19   C     C_R   0.237827 0.549654 0.650572 -0.108672
C20   C     C_R   0.196500 0.647395 0.666202 -0.021259
C21   C     C_R   0.247779 0.615981 0.588976 0.009857
C22   C     C_R   0.675253 0.077449 0.905641 -0.019058
C23   C     C_R   0.600016 0.063560 0.886171 -0.137517
C24   C     C_R   0.543002 0.200945 0.641692 0.292149
C25   C     C_R   0.572993 0.095630 0.848180 -0.156507
C26   C     C_3   0.942025 0.486370 0.098408 -0.004636
C27   C     C_3   0.042068 0.428694 0.077082 -0.349347
C28   C     C_3   0.513289 0.060136 0.097573 0.022473
C29   C     C_3   0.450747 0.037866 0.067928 -0.335845
C30   C     C_3   0.404680 0.236996 0.385989 -0.010252
C31   C     C_3   0.315972 0.267697 0.412880 -0.341724
C32   C     C_3   0.171846 0.450999 0.822339 0.011386
C33   C     C_3   0.244978 0.346916 0.805359 -0.362972
C34   C     C_3   0.458442 0.109999 0.639457 -0.023749
C35   C     C_R   0.823885 0.629124 0.162980 -0.087758
C36   C     C_3   0.387307 0.087146 0.662318 -0.356530
C37   C     C_3   0.670269 0.897138 0.318200 0.018272
C38   C     C_3   0.663418 0.935804 0.359125 -0.362788
C39   C     C_3   0.836626 0.126307 0.817338 -0.020480
C40   C     C_3   0.881908 0.173864 0.791643 -0.346645
C41   C     C_R   0.542184 0.229250 0.603539 -0.109363
C42   C     C_R   0.704261 0.225175 0.614599 -0.120325
C43   C     C_R   0.704570 0.198685 0.652721 -0.112774
C44   C     C_R   0.621291 0.192518 0.666861 0.081566
C45   C     C_R   0.620533 0.245619 0.590175 -0.017957
C46   C     C_R   0.045783 0.738757 0.048498 0.544917
C47   C     C_R   0.733440 0.690436 0.182580 0.023891
C48   C     C_R   0.747567 0.746412 0.064161 0.564064
C49   C     C_R   0.748958 0.043519 0.049969 0.585130
C50   C     C_R   0.016515 0.723456 0.939709 0.547942
C51   C     C_R   0.717117 0.730771 0.954792 0.544127
C52   C     C_R   0.828488 0.640250 0.123528 0.252561
C53   C     C_R   0.721607 0.024438 0.942001 0.550973
C54   C     C_R   0.713278 0.607828 0.238831 -0.139356
C55   C     C_R   0.705258 0.600126 0.277906 -0.165497
C56   C     C_R   0.717135 0.666515 0.303169 -0.017362
C57   C     C_R   0.741295 0.739445 0.289361 0.308135
C58   C     C_R   0.620703 0.142016 0.829213 0.036934
C59   C     C_R   0.754505 0.744476 0.249570 0.348172
C60   C     C_R   0.734864 0.680989 0.224357 0.020715
C61   C     C_R   0.598125 0.733569 0.357142 -0.120162
C62   C     C_R   0.593148 0.610343 0.449321 0.536864
C63   C     C_R   0.567864 0.720139 0.392907 -0.132245
C64   C     C_R   0.731871 0.565646 0.402136 -0.109802
C65   C     C_R   0.762633 0.580176 0.366471 -0.061475
C66   C     C_R   0.695022 0.663154 0.343580 0.062476
C67   C     C_R   0.633048 0.634163 0.415193 0.012268
C68   C     C_R   0.103125 0.726964 0.084778 0.019875
C69   C     C_R   0.693302 0.159719 0.849281 0.271742
C70   C     C_R   0.152467 0.631483 0.103152 -0.085710
C71   C     C_R   0.176644 0.625019 0.142161 -0.096284
C72   C     C_R   0.152411 0.713767 0.163404 0.033477
C73   C     C_R   0.113623 0.807455 0.144296 -0.101202
C74   C     C_R   0.304699 0.590943 0.442313 0.547772
C75   C     C_R   0.089381 0.813822 0.105169 -0.116674
C76   C     C_R   0.199691 0.759123 0.227161 -0.115929
C77   C     C_R   0.206531 0.750910 0.267014 -0.152064
C78   C     C_R   0.169811 0.694126 0.285919 0.009302
C79   C     C_R   0.120624 0.649477 0.264479 0.297179
C80   C     C_R   0.718025 0.129634 0.887460 -0.098986
C81   C     C_R   0.115599 0.657156 0.224560 -0.060352
C82   C     C_R   0.156887 0.709726 0.205640 -0.027904
C83   C     C_R   0.261927 0.568968 0.337481 -0.064773
C84   C     C_R   0.291890 0.544190 0.375510 -0.114037
C85   C     C_R   0.197875 0.723650 0.392892 -0.117607
C86   C     C_R   0.605461 0.300067 0.553697 0.552943
C87   C     C_R   0.165231 0.748417 0.354590 -0.089314
C88   C     C_R   0.196670 0.670703 0.326797 0.063046
C89   C     C_R   0.260542 0.620962 0.403535 0.025713
C90   C     C_R   0.715001 0.109236 0.084944 0.024742
C91   C     C_R   0.587194 0.254624 0.772761 -0.055314
C92   C     C_R   0.778967 0.140622 0.104545 0.217064
C93   C     C_R   0.766338 0.161653 0.143847 -0.113484
C94   C     C_R   0.684433 0.163631 0.162737 -0.061850
C95   C     C_R   0.609611 0.153888 0.141645 -0.101629
C96   C     C_R   0.624170 0.125535 0.102832 0.227328
C97   C     C_R   0.585772 0.250686 0.221109 -0.084063
C98   C     C_R   0.587330 0.606130 0.559123 0.536365
C99   C     C_R   0.577938 0.259209 0.260846 -0.074512
C100  C     C_R   0.660482 0.191994 0.284395 0.062817
C101  C     C_R   0.749619 0.114024 0.267909 -0.006808
C102  C     C_R   0.592158 0.266989 0.733393 0.277410
C103  C     C_R   0.758255 0.106712 0.228184 -0.032308
C104  C     C_R   0.676601 0.175377 0.204576 0.044691
C105  C     C_R   0.720223 0.239671 0.344926 0.262993
C106  C     C_R   0.709194 0.260203 0.384041 -0.149285
C107  C     C_R   0.565370 0.228059 0.385907 0.246316
C108  C     C_R   0.580929 0.201150 0.346585 -0.186780
C109  C     C_R   0.655784 0.209027 0.326037 -0.034872
C110  C     C_R   0.298267 0.588453 0.551794 0.581672
C111  C     C_R   0.630684 0.258319 0.404591 -0.007340
C112  C     C_R   0.691413 0.694221 0.919005 0.027042
C113  C     C_R   0.612570 0.184502 0.708378 0.044247
C114  C     C_R   0.757558 0.595843 0.904680 -0.105564
C115  C     C_R   0.747521 0.571578 0.866559 -0.036342
C116  C     C_R   0.673606 0.646475 0.842131 0.072405
C117  C     C_R   0.601855 0.741198 0.857352 -0.105847
C118  C     C_R   0.610069 0.764624 0.895531 -0.112761
C119  C     C_R   0.584075 0.644326 0.782062 -0.135592
C120  C     C_R   0.576068 0.643195 0.742271 -0.064301
C121  C     C_R   0.659061 0.626208 0.719856 -0.006863
C122  C     C_R   0.740710 0.714959 0.103411 -0.023474
C123  C     C_R   0.750455 0.609959 0.737705 -0.091118
C124  C     C_R   0.623524 0.093392 0.723119 -0.145132
C125  C     C_R   0.758459 0.614718 0.777708 0.298365
C126  C     C_R   0.674357 0.630880 0.800271 0.009305
C127  C     C_R   0.721955 0.546700 0.655791 -0.081510
C128  C     C_R   0.706052 0.543126 0.616330 -0.119332
C129  C     C_R   0.548415 0.705720 0.620033 -0.122362
C130  C     C_R   0.563802 0.708583 0.659453 -0.130748
C131  C     C_R   0.649048 0.627736 0.677749 0.038627
C132  C     C_R   0.617375 0.621106 0.598257 0.013221
C133  C     C_R   0.064730 0.704755 0.902369 -0.023588
C134  C     C_R   0.647594 0.768776 0.122680 -0.161560
Cr1   Cr    Cr6+3 0.426010 0.422500 0.497000 1.040834
Cr2   Cr    Cr6+3 0.651300 0.426310 0.501970 1.032531
Cr3   Cr    Cr6+3 0.422670 0.651170 0.501050 1.111107
Cr4   Cr    Cr6+3 0.905130 0.911420 0.992650 1.078927
Cr5   Cr    Cr6+3 0.911860 0.682710 0.002320 1.036839
Cr6   Cr    Cr6+3 0.682710 0.906840 0.004710 1.023298
H1    H     H_    0.578944 0.822277 0.107070 0.159892
H2    H     H_    0.208864 0.551465 0.156217 0.111709
H3    H     H_    0.886561 0.832785 0.185941 0.356110
H4    H     H_    0.079144 0.622067 0.208003 0.185785
H5    H     H_    0.292022 0.508753 0.316140 0.139213
H6    H     H_    0.344208 0.465113 0.382767 0.129820
H7    H     H_    0.094568 0.876891 0.160097 0.134144
H8    H     H_    0.174988 0.784070 0.414018 0.140614
H9    H     H_    0.534147 0.175452 0.331306 0.104420
H10   H     H_    0.508674 0.319812 0.273271 0.111340
H11   H     H_    0.521752 0.303761 0.203260 0.114768
H12   H     H_    0.836968 0.524162 0.355879 0.168995
H13   H     H_    0.490936 0.773677 0.401953 0.140922
H14   H     H_    0.819262 0.178390 0.159750 0.178381
H15   H     H_    0.813004 0.060319 0.285826 0.169316
H16   H     H_    0.827859 0.046484 0.215818 0.132570
H17   H     H_    0.758653 0.284645 0.398030 0.187771
H18   H     H_    0.541647 0.165418 0.155929 0.129066
H19   H     H_    0.820199 0.539752 0.922262 0.126145
H20   H     H_    0.557577 0.841026 0.905644 0.125542
H21   H     H_    0.507617 0.772685 0.675874 0.107078
H22   H     H_    0.685925 0.544565 0.288475 0.182457
H23   H     H_    0.504926 0.655435 0.728909 0.150756
H24   H     H_    0.892748 0.575989 0.178727 0.167718
H25   H     H_    0.518564 0.658243 0.798777 0.129320
H26   H     H_    0.800777 0.496497 0.855604 0.160513
H27   H     H_    0.814024 0.597784 0.720183 0.151331
H28   H     H_    0.788379 0.483690 0.669454 0.138523
H29   H     H_    0.760349 0.476745 0.600395 0.134082
H30   H     H_    0.543278 0.799480 0.839059 0.101265
H31   H     H_    0.479337 0.767089 0.607062 0.165536
H32   H     H_    0.997941 0.867389 0.890580 0.146367
H33   H     H_    0.700092 0.558096 0.219603 0.163390
H34   H     H_    0.145456 0.539633 0.905289 0.136685
H35   H     H_    0.783558 0.498514 0.418649 0.145492
H36   H     H_    0.254218 0.484578 0.668322 0.159832
H37   H     H_    0.338767 0.546815 0.721270 0.196541
H38   H     H_    0.314833 0.559898 0.790681 0.179206
H39   H     H_    0.059200 0.844893 0.826320 0.105629
H40   H     H_    0.021439 0.773488 0.702725 0.114638
H41   H     H_    0.995182 0.783610 0.771772 0.137899
H42   H     H_    0.139524 0.807175 0.655251 0.147889
H43   H     H_    0.299937 0.456010 0.601955 0.160562
H44   H     H_    0.566455 0.022826 0.899501 0.134439
H45   H     H_    0.775637 0.141867 0.902082 0.147669
H46   H     H_    0.165152 0.562882 0.088088 0.133633
H47   H     H_    0.766884 0.188794 0.671800 0.143775
H48   H     H_    0.573943 0.316456 0.792237 0.193026
H49   H     H_    0.517708 0.080787 0.833089 0.115106
H50   H     H_    0.638251 0.030097 0.704184 0.119141
H51   H     H_    0.634186 0.008665 0.773405 0.133292
H52   H     H_    0.476635 0.245133 0.585233 0.125057
H53   H     H_    0.765977 0.236509 0.605069 0.152717
H54   H     H_    0.543454 0.795571 0.339161 0.114128
H55   H     H_    0.952306 0.539244 0.269575 0.361066
H56   H     H_    0.879751 0.486885 0.080114 0.141385
H57   H     H_    0.051489 0.887964 0.091752 0.189897
H58   H     H_    0.950025 0.444776 0.125542 0.136980
H59   H     H_    0.106119 0.425288 0.094866 0.153943
H60   H     H_    0.058403 0.349530 0.070809 0.104448
H61   H     H_    0.036336 0.467846 0.049655 0.169655
H62   H     H_    0.929646 0.267031 0.090673 0.358430
H63   H     H_    0.462279 0.099861 0.121943 0.150927
H64   H     H_    0.579246 0.986216 0.107509 0.163770
H65   H     H_    0.497097 0.001093 0.042238 0.181822
H66   H     H_    0.426200 0.986064 0.080279 0.136141
H67   H     H_    0.381492 0.110235 0.059119 0.147356
H68   H     H_    0.116861 0.827747 0.346519 0.141078
H69   H     H_    0.812736 0.327955 0.266110 0.367261
H70   H     H_    0.420139 0.164758 0.371391 0.134252
H71   H     H_    0.380528 0.299043 0.364434 0.130711
H72   H     H_    0.298114 0.340091 0.427841 0.180728
H73   H     H_    0.246933 0.279285 0.396275 0.130036
H74   H     H_    0.336289 0.206782 0.434476 0.157978
H75   H     H_    0.910268 0.680026 0.843949 0.359990
H76   H     H_    0.011571 0.920511 0.595207 0.334331
H77   H     H_    0.117913 0.498978 0.799097 0.215583
H78   H     H_    0.128504 0.440087 0.845475 0.168870
H79   H     H_    0.244826 0.785018 0.283043 0.128317
H80   H     H_    0.299709 0.296366 0.827825 0.158258
H81   H     H_    0.200926 0.310955 0.793575 0.123714
H82   H     H_    0.288667 0.355691 0.781917 0.169551
H83   H     H_    0.427943 0.785436 0.217031 0.361990
H84   H     H_    0.501453 0.484591 0.668407 0.362549
H85   H     H_    0.535842 0.040107 0.639975 0.116309
H86   H     H_    0.428582 0.126897 0.609399 0.136469
H87   H     H_    0.308692 0.154354 0.661875 0.171608
H88   H     H_    0.384560 0.020404 0.649627 0.111849
H89   H     H_    0.415780 0.069214 0.692469 0.154748
H90   H     H_    0.231163 0.800786 0.213076 0.141733
H91   H     H_    0.597432 0.897467 0.310724 0.114455
H92   H     H_    0.676209 0.951755 0.298846 0.200721
H93   H     H_    0.728516 0.949306 0.365781 0.181583
H94   H     H_    0.590380 0.008351 0.362734 0.106022
H95   H     H_    0.665763 0.878803 0.379545 0.175077
H96   H     H_    0.826560 0.068942 0.799960 0.130983
H97   H     H_    0.891679 0.086730 0.841490 0.126823
H98   H     H_    0.894444 0.230651 0.808072 0.178228
H99   H     H_    0.956463 0.113415 0.780593 0.091918
H100  H     H_    0.828790 0.212678 0.767007 0.191905
O1    O     O_R   0.324990 0.503440 0.453910 -0.519046
O2    O     O_R   0.675430 0.831160 0.051290 -0.545645
O3    O     O_R   0.698870 0.998880 0.039560 -0.470258
O4    O     O_R   0.522030 0.339050 0.458320 -0.449172
O5    O     O_R   0.811290 0.006780 0.950620 -0.517411
O6    O     O_R   0.980960 0.812920 0.953200 -0.503773
O7    O     O_R   0.001480 0.656720 0.955830 -0.516933
O8    O     O_R   0.809240 0.683250 0.968050 -0.500598
O9    O     O_R   0.652500 0.818540 0.967340 -0.525774
O10   O     O_R   0.677620 0.987170 0.961730 -0.498194
O11   O     O_3   0.833240 0.833660 0.999890 -0.259132
O12   O     O_R   0.639980 0.519500 0.542640 -0.504707
O13   O     O_R   0.676180 0.324490 0.458320 -0.526964
O14   O     O_R   0.643570 0.521510 0.464260 -0.504526
O15   O     O_R   0.504630 0.675350 0.460920 -0.513456
O16   O     O_R   0.339850 0.642450 0.459830 -0.486161
O17   O     O_R   0.321120 0.501280 0.538470 -0.535645
O18   O     O_R   0.518440 0.337050 0.536710 -0.506335
O19   O     O_R   0.672300 0.322330 0.542880 -0.506206
O20   O     O_2   0.144639 0.478099 0.296715 -0.319616
O21   O     O_2   0.009230 0.641181 0.321863 -0.224689
O22   O     O_3   0.978804 0.577948 0.255672 -0.529258
O23   O     O_R   0.500750 0.673190 0.545480 -0.490806
O24   O     O_3   0.922096 0.586899 0.105941 -0.526332
O25   O     O_2   0.967221 0.071666 0.076770 -0.296901
O26   O     O_2   0.823062 0.210474 0.041633 -0.264999
O27   O     O_3   0.883089 0.253777 0.106148 -0.541674
O28   O     O_3   0.546926 0.122968 0.080772 -0.548452
O29   O     O_2   0.837820 0.328905 0.343981 -0.308240
O30   O     O_2   0.904345 0.161601 0.313061 -0.284316
O31   O     O_3   0.757975 0.320324 0.278220 -0.538631
O32   O     O_3   0.492206 0.221319 0.407633 -0.543104
O33   O     O_2   0.937814 0.501587 0.814024 -0.352500
O34   O     O_R   0.336260 0.640450 0.538210 -0.424731
O35   O     O_2   0.929898 0.625302 0.767401 -0.329249
O36   O     O_3   0.843139 0.694317 0.832778 -0.529729
O37   O     O_2   0.259209 0.838721 0.573320 -0.245443
O38   O     O_2   0.133031 0.813195 0.536132 -0.280516
O39   O     O_3   0.071574 0.931267 0.596056 -0.516007
O40   O     O_3   0.229019 0.495432 0.837082 -0.582466
O41   O     O_2   0.531999 0.888283 0.217687 -0.271695
O42   O     O_2   0.441431 0.897352 0.157190 -0.301997
O43   O     O_3   0.490657 0.743243 0.202207 -0.533148
O44   O     O_2   0.525423 0.465861 0.747171 -0.343496
O45   O     O_3   0.499990 0.499990 0.500010 -0.266611
O46   O     O_2   0.678888 0.372975 0.708720 -0.311009
O47   O     O_3   0.502515 0.421348 0.676631 -0.540126
O48   O     O_3   0.460862 0.195109 0.655923 -0.551826
O49   O     O_3   0.759011 0.799682 0.315328 -0.489099
O50   O     O_3   0.742400 0.204337 0.831380 -0.560813
O51   O     O_2   0.701530 0.927957 0.220327 -0.301453
O52   O     O_2   0.854147 0.850913 0.262462 -0.257387
O53   O     O_3   0.869948 0.779746 0.193772 -0.532851
O54   O     O_R   0.834210 0.019400 0.034570 -0.439468
O55   O     O_R   0.002210 0.824620 0.031030 -0.494620
O56   O     O_R   0.024400 0.669340 0.039790 -0.499363
O57   O     O_R   0.830490 0.694950 0.045870 -0.446290
S1    S     S_3+6 0.063397 0.584936 0.286295 0.026143
S2    S     S_3+6 0.865679 0.167510 0.080721 0.010438
S3    S     S_3+6 0.809296 0.262104 0.320300 -0.012291
S4    S     S_3+6 0.871807 0.606848 0.797775 -0.051255
S5    S     S_3+6 0.166531 0.825751 0.575845 0.018175
S6    S     S_3+6 0.523360 0.826687 0.185011 0.002303
S7    S     S_3+6 0.575665 0.385111 0.716911 -0.039712
S8    S     S_3+6 0.794758 0.829374 0.231960 0.025406

loop_
_geom_bond_atom_site_label_1
_geom_bond_atom_site_label_2
_ccdc_geom_bond_type
C96   O28   S    
C37   H92   S    
C59   C60   A    
C87   C88   A    
C24   O48   S    
C51   C112  S    
C95   H18   S    
C6    C7    A    
C118  H20   S    
C95   C96   A    
C85   H8    S    
C59   S8    S    
C49   C90   S    
Cr4   O54   S    
Cr5   O7    S    
C38   H93   S    
C124  H50   S    
C81   C82   A    
C39   H96   S    
C9    H37   S    
C31   H74   S    
C54   C60   A    
C77   C78   A    
C108  C109  A    
C68   C75   A    
C84   C89   A    
C114  H19   S    
C11   C12   A    
C26   C27   S    
C93   C94   A    
Cr5   O11   S    
C62   C67   S    
C73   H7    S    
C74   C89   S    
O46   S7    D    
C28   C29   S    
C34   H86   S    
C127  C131  A    
O33   S4    D    
O31   S3    S    
C7    C133  A    
C40   H99   S    
O22   S1    S    
C48   C122  S    
Cr5   O56   S    
C16   H42   S    
C3    H32   S    
C123  C125  A    
Cr4   O55   S    
C26   O24   S    
C101  H15   S    
C103  H16   S    
O43   S6    S    
C115  C116  A    
C18   C21   A    
C7    H34   S    
C128  C132  A    
Cr3   O34   S    
C29   H65   S    
C56   C57   A    
C3    C4    A    
C37   H91   S    
C18   C19   A    
C61   C63   A    
C2    C13   A    
C19   H36   S    
C122  C134  A    
C40   H98   S    
C120  H23   S    
C49   O3    A    
C6    O40   S    
C110  O34   A    
C74   O1    A    
C52   C122  A    
C117  H30   S    
C81   H4    S    
C86   O18   A    
C31   H72   S    
C12   H41   S    
C42   C43   A    
C10   C20   S    
C8    C9    A    
C91   H48   S    
C34   O48   S    
O51   S8    D    
C80   H45   S    
C127  C128  A    
O27   S2    S    
C14   S6    S    
Cr1   O45   S    
C105  S3    S    
C43   H47   S    
C9    C10   A    
C119  H25   S    
C34   C36   S    
O36   S4    S    
C32   O40   S    
C29   H67   S    
C129  C132  A    
C123  H27   S    
C33   H82   S    
C75   H57   S    
C83   C88   A    
O26   S2    D    
C26   H56   S    
C100  C109  S    
C101  C103  A    
O39   S5    S    
C83   H5    S    
C13   C91   A    
C39   O50   S    
C24   C41   A    
C73   C75   A    
H84   O47   S    
C107  O32   S    
Cr6   O11   S    
C46   O56   A    
C121  C131  S    
C51   O9    A    
Cr5   O8    S    
C61   C66   A    
C79   S1    S    
C112  C114  A    
C97   C99   A    
C4    H39   S    
C1    O13   A    
C21   C110  S    
C22   C53   S    
H83   O43   S    
C106  C111  A    
C85   C87   A    
C98   O12   A    
C62   O15   A    
C52   O24   S    
C99   H10   S    
C63   C67   A    
O44   S7    D    
Cr1   O17   S    
O25   S2    D    
H75   O36   S    
Cr6   O9    S    
C92   S2    S    
C28   H64   S    
C64   C67   A    
Cr2   O13   S    
H55   O22   S    
C30   O32   S    
C76   C77   A    
C63   H13   S    
C110  O17   A    
C48   O2    A    
Cr4   O11   S    
C76   C82   A    
C30   H71   S    
C79   C81   A    
C85   C89   A    
C78   C79   A    
C36   H89   S    
C51   O8    A    
C13   C58   S    
C14   C134  A    
C17   C21   A    
C29   H66   S    
C32   C33   S    
C38   H95   S    
C64   H35   S    
C42   C45   A    
Cr1   O4    S    
C42   H53   S    
C74   O16   A    
C43   C44   A    
C46   C68   S    
C37   C38   S    
Cr4   O6    S    
C1    O4    A    
O53   S8    S    
O37   S5    D    
C90   C92   A    
C83   C84   A    
C12   C15   A    
Cr3   O45   S    
C30   C31   S    
C16   C20   A    
C50   O6    A    
C34   H85   S    
Cr2   O19   S    
C97   H11   S    
C100  C101  A    
Cr6   O10   S    
C49   O54   A    
C58   C69   A    
Cr3   O15   S    
C2    H51   S    
C115  H26   S    
C90   C96   A    
O21   S1    D    
C70   C71   A    
H69   O31   S    
C37   O49   S    
O42   S6    D    
C71   H2    S    
Cr3   O23   S    
C130  H21   S    
C68   C70   A    
O38   S5    D    
C44   C113  S    
C8    C15   A    
C84   H6    S    
O47   S7    S    
C76   H90   S    
C125  C126  A    
C24   C44   A    
H76   O39   S    
C25   C58   A    
C98   O23   A    
C86   O19   A    
C48   O57   A    
C39   H97   S    
C121  C123  A    
C57   O49   S    
C120  C121  A    
C54   H33   S    
O30   S3    D    
C129  C130  A    
H62   O27   S    
C33   H80   S    
C78   C88   S    
C62   O14   A    
C32   H78   S    
C105  C109  A    
C54   C55   A    
C93   H14   S    
Cr1   O18   S    
Cr2   O45   S    
C41   H52   S    
C69   O50   S    
C27   H61   S    
C28   H63   S    
C107  C111  A    
C129  H31   S    
C77   H79   S    
C27   H60   S    
C32   H77   S    
C55   H22   S    
C72   C73   A    
C50   C133  S    
C127  H28   S    
C30   H70   S    
C119  C120  A    
O35   S4    D    
C27   H59   S    
C114  C115  A    
C14   C47   A    
C31   H73   S    
C2    C124  A    
C36   H87   S    
C106  H17   S    
C105  C106  A    
C46   O55   A    
C35   H24   S    
C28   O28   S    
C99   C100  A    
C38   H94   S    
Cr6   O3    S    
C47   C60   S    
C64   C65   A    
Cr1   O1    S    
C19   C20   A    
C45   C86   S    
C116  C126  S    
C22   C80   A    
C23   H44   S    
C40   H100  S    
Cr4   O5    S    
C25   H49   S    
C117  C118  A    
C1    C111  S    
C134  H1    S    
C112  C118  A    
C35   C52   A    
C5    C6    A    
C113  C124  A    
O20   S1    D    
C18   H43   S    
C65   H12   S    
C56   C66   S    
C4    C5    A    
C92   C93   A    
C116  C117  A    
C130  C131  A    
Cr6   O2    S    
C53   O10   A    
C23   C25   A    
C125  S4    S    
C94   C95   A    
C26   H58   S    
O41   S6    D    
C53   O5    A    
C87   H68   S    
C5    C15   S    
C97   C104  A    
C57   C59   A    
C10   C11   A    
C70   H46   S    
C55   C56   A    
C102  S7    S    
C108  H9    S    
C39   C40   S    
C119  C126  A    
C8    H38   S    
Cr3   O16   S    
C128  H29   S    
C94   C104  S    
C71   C72   A    
C17   S5    S    
C36   H88   S    
C65   C66   A    
Cr2   O14   S    
C98   C132  S    
C103  C104  A    
C102  C113  A    
C41   C45   A    
C22   C23   A    
Cr2   O12   S    
C69   C80   A    
H3    O53   S    
C11   H40   S    
C91   C102  A    
C3    C133  A    
C35   C47   A    
Cr5   O57   S    
C61   H54   S    
O29   S3    D    
C72   C82   S    
O52   S8    D    
C50   O7    A    
C16   C17   A    
C107  C108  A    
C33   H81   S    
