data_mof_unit_64435.cif
_audit_creation_date              2012-12-10T18:44:02-0500
_audit_creation_method            fapswitch 2.2
_symmetry_space_group_name_H-M    P1
_symmetry_Int_Tables_number       1
_space_group_crystal_system       triclinic
_cell_length_a                    18.118452
_cell_length_b                    18.09633
_cell_length_c                    22.105995
_cell_angle_alpha                 114.253104
_cell_angle_beta                  114.18635
_cell_angle_gamma                 90.029144
_cell_volume                      5902.78219658

loop_
_atom_site_label
_atom_site_type_symbol
_atom_type_description
_atom_site_fract_x
_atom_site_fract_y
_atom_site_fract_z
_atom_type_partial_charge
Br1   Br    Br    0.680814 0.095772 0.544049 -0.573681
Br2   Br    Br    0.319186 0.904228 0.455951 -0.573688
C1    C     C_R   0.349736 0.349825 0.699536 0.815806
C2    C     C_1   0.889537 0.889480 0.778988 -0.142242
C3    C     C_3   0.082304 0.013885 0.024787 -0.159875
C4    C     C_3   0.917696 0.986115 0.975213 -0.159876
C5    C     C_3   0.036461 0.036491 0.072969 0.200542
C6    C     C_3   0.963539 0.963510 0.927031 0.200543
C7    C     C_1   0.077045 0.077098 0.154174 -0.083549
C8    C     C_1   0.922955 0.922902 0.845826 -0.083549
C9    C     C_3   0.077592 0.543874 0.549217 -0.201241
C10   C     C_3   0.922408 0.456126 0.450782 -0.201242
C11   C     C_3   0.005071 0.539662 0.568730 -0.229286
C12   C     C_R   0.650264 0.650175 0.300464 0.815802
C13   C     C_3   0.994929 0.460339 0.431269 -0.229288
C14   C     C_3   0.948264 0.550484 0.500008 0.007249
C15   C     C_3   0.051736 0.449516 0.499991 0.007243
C16   C     C_R   0.150233 0.150273 0.300515 0.823019
C17   C     C_R   0.849767 0.849727 0.699485 0.823020
C18   C     C_3   0.019566 0.554837 0.480618 0.052681
C19   C     C_3   0.980434 0.445164 0.519381 0.052680
C20   C     C_3   0.575967 0.541669 0.024837 -0.164252
C21   C     C_3   0.424033 0.458331 0.975163 -0.164252
C22   C     C_3   0.544606 0.447146 0.975088 -0.161463
C23   C     C_3   0.564049 0.539033 0.568057 -0.179766
C24   C     C_3   0.455393 0.552854 0.024912 -0.161464
C25   C     C_1   0.389454 0.389702 0.779022 -0.144668
C26   C     C_1   0.610546 0.610298 0.220978 -0.144667
C27   C     C_3   0.494202 0.557512 0.975497 -0.160322
C28   C     C_3   0.505797 0.442488 0.024503 -0.160322
C29   C     C_3   0.463487 0.463633 0.927039 0.201486
C30   C     C_3   0.536513 0.536367 0.072961 0.201486
C31   C     C_1   0.422867 0.423124 0.845850 -0.085914
C32   C     C_1   0.577133 0.576876 0.154150 -0.085914
C33   C     C_3   0.058210 0.961696 0.484881 -0.170734
C34   C     C_3   0.435951 0.460966 0.431943 -0.179767
C35   C     C_3   0.941790 0.038304 0.515118 -0.170738
C36   C     C_3   0.964220 0.933869 0.432885 -0.189940
C37   C     C_3   0.035780 0.066131 0.567115 -0.189941
C38   C     C_3   0.949344 0.948758 0.500068 0.052253
C39   C     C_3   0.050656 0.051242 0.499931 0.052252
C40   C     C_R   0.391708 0.108327 0.499948 0.852399
C41   C     C_R   0.608291 0.891673 0.500052 0.852399
C42   C     C_3   0.042509 0.975658 0.552102 -0.125011
C43   C     C_3   0.957491 0.024342 0.447898 -0.125016
C44   C     C_3   0.529478 0.064751 0.568124 -0.252269
C45   C     C_3   0.021402 0.049061 0.975384 -0.161840
C46   C     C_3   0.470522 0.935249 0.431876 -0.252269
C47   C     C_3   0.573491 0.039319 0.518003 0.322149
C48   C     C_3   0.426509 0.960681 0.481997 0.322150
C49   C     C_3   0.551091 0.948842 0.500236 -0.056537
C50   C     C_3   0.448909 0.051158 0.499764 -0.056536
C51   C     C_3   0.507187 0.972989 0.550219 -0.199760
C52   C     C_3   0.492813 0.027011 0.449781 -0.199760
C53   C     C_R   0.108536 0.391925 0.499602 0.792172
C54   C     C_R   0.891464 0.608075 0.500398 0.792163
C55   C     C_R   0.108193 0.108439 0.500117 0.795532
C56   C     C_3   0.978598 0.950940 0.024616 -0.161840
C57   C     C_R   0.891806 0.891561 0.499883 0.795530
C58   C     C_R   0.391719 0.391858 0.500060 0.780271
C59   C     C_R   0.608281 0.608142 0.499940 0.780273
C60   C     C_3   0.472566 0.543322 0.549592 -0.131432
C61   C     C_3   0.527434 0.456678 0.450408 -0.131431
C62   C     C_3   0.460476 0.555757 0.481214 -0.175428
C63   C     C_3   0.539524 0.444243 0.518786 -0.175426
C64   C     C_3   0.551058 0.550631 0.499722 0.053088
C65   C     C_3   0.448942 0.449369 0.500278 0.053087
C66   C     C_R   0.036096 0.616820 0.456259 0.119149
C67   C     C_3   0.976202 0.072310 0.024855 -0.163162
C68   C     C_R   0.110719 0.675247 0.497742 -0.141665
C69   C     C_R   0.123892 0.733714 0.475138 -0.118065
C70   C     C_R   0.062831 0.734205 0.411144 -0.098352
C71   C     C_R   0.988419 0.676372 0.369698 -0.151234
C72   C     C_R   0.975081 0.617759 0.392015 -0.165883
C73   C     C_R   0.963906 0.383181 0.543741 0.119144
C74   C     C_R   0.889294 0.324738 0.502248 -0.141651
C75   C     C_R   0.876126 0.266272 0.524854 -0.118058
C76   C     C_R   0.937179 0.265799 0.588860 -0.098357
C77   C     C_R   0.011579 0.323647 0.630316 -0.151237
C78   C     C_3   0.023798 0.927690 0.975145 -0.163163
C79   C     C_R   0.024914 0.382258 0.607996 -0.165896
C80   C     C_1   0.110463 0.110520 0.221011 -0.142243
H1    H     H_    0.429185 0.602523 0.465818 0.143636
H2    H     H_    0.066028 0.121520 0.621998 0.133330
H3    H     H_    0.107419 0.931988 0.472868 0.155971
H4    H     H_    0.892580 0.068012 0.527131 0.155970
H5    H     H_    0.076523 0.954622 0.594748 0.151629
H6    H     H_    0.923476 0.045377 0.405252 0.151627
H7    H     H_    0.552996 0.118846 0.623718 0.167809
H8    H     H_    0.447004 0.881154 0.376282 0.167810
H9    H     H_    0.513301 0.949768 0.591032 0.179517
H10   H     H_    0.486699 0.050232 0.408968 0.179517
H11   H     H_    0.449155 0.578006 0.590292 0.148331
H12   H     H_    0.570815 0.397477 0.534182 0.143638
H13   H     H_    0.550845 0.421994 0.409708 0.148333
H14   H     H_    0.617624 0.572092 0.623805 0.135931
H15   H     H_    0.382376 0.427908 0.376195 0.135931
H16   H     H_    0.957133 0.132241 0.046273 0.133846
H17   H     H_    0.042867 0.867759 0.953727 0.133846
H18   H     H_    0.038501 0.088893 0.954162 0.134727
H19   H     H_    0.961499 0.911108 0.045838 0.134727
H20   H     H_    0.849548 0.974207 0.953850 0.135941
H21   H     H_    0.150451 0.025793 0.046150 0.135941
H22   H     H_    0.007607 0.572561 0.624627 0.142171
H23   H     H_    0.580774 0.403207 0.953615 0.134733
H24   H     H_    0.992393 0.427440 0.375372 0.142172
H25   H     H_    0.141942 0.577947 0.589705 0.147668
H26   H     H_    0.858058 0.422052 0.410294 0.147669
H27   H     H_    0.158552 0.676128 0.547620 0.120736
H28   H     H_    0.181423 0.778727 0.507282 0.152718
H29   H     H_    0.073171 0.779246 0.393560 0.135608
H30   H     H_    0.941055 0.676971 0.320282 0.125804
H31   H     H_    0.917000 0.573431 0.359548 0.122428
H32   H     H_    0.841468 0.323844 0.452360 0.120735
H33   H     H_    0.818605 0.221245 0.492702 0.152708
H34   H     H_    0.419225 0.596793 0.046385 0.134733
H35   H     H_    0.926842 0.220758 0.606446 0.135606
H36   H     H_    0.058937 0.323062 0.679741 0.125811
H37   H     H_    0.082987 0.426598 0.640469 0.122437
H38   H     H_    0.638910 0.576412 0.046251 0.132566
H39   H     H_    0.361090 0.423588 0.953749 0.132566
H40   H     H_    0.511065 0.395714 0.045639 0.134806
H41   H     H_    0.488935 0.604286 0.954360 0.134806
H42   H     H_    0.933972 0.878480 0.378001 0.133328
O1    O     O_3   0.250010 0.250010 0.500010 -0.485042
O2    O     O_R   0.893710 0.832180 0.664370 -0.639025
O3    O     O_R   0.332200 0.393690 0.664400 -0.640292
O4    O     O_R   0.667800 0.606310 0.335600 -0.640292
O5    O     O_R   0.229300 0.167820 0.335610 -0.635701
O6    O     O_R   0.770700 0.832180 0.664390 -0.635701
O7    O     O_R   0.358130 0.123520 0.543120 -0.619114
O8    O     O_R   0.641870 0.876480 0.456880 -0.619113
O9    O     O_R   0.080390 0.314990 0.456920 -0.634942
O10   O     O_R   0.919610 0.685010 0.543080 -0.634939
O11   O     O_R   0.185040 0.123520 0.543150 -0.630527
O12   O     O_3   0.749990 0.749990 0.499990 -0.485043
O13   O     O_R   0.814960 0.876480 0.456850 -0.630528
O14   O     O_R   0.358080 0.419590 0.543080 -0.649233
O15   O     O_R   0.641920 0.580410 0.456920 -0.649232
O16   O     O_R   0.080420 0.141920 0.456950 -0.644575
O17   O     O_R   0.919580 0.858080 0.543050 -0.644574
O18   O     O_R   0.376490 0.315000 0.456880 -0.641097
O19   O     O_R   0.623510 0.685000 0.543120 -0.641098
O20   O     O_R   0.376520 0.141930 0.456900 -0.647588
O21   O     O_R   0.623480 0.858070 0.543100 -0.647588
O22   O     O_R   0.184990 0.419580 0.543110 -0.652111
O23   O     O_R   0.815010 0.580420 0.456890 -0.652112
O24   O     O_R   0.332220 0.270690 0.664420 -0.637974
O25   O     O_R   0.667780 0.729310 0.335580 -0.637974
O26   O     O_R   0.106290 0.167820 0.335630 -0.639026
Zn1   Zn    Zn3+2 0.307090 0.219220 0.438420 0.977056
Zn2   Zn    Zn3+2 0.692910 0.780780 0.561580 0.977056
Zn3   Zn    Zn3+2 0.280820 0.192930 0.561610 0.995017
Zn4   Zn    Zn3+2 0.719180 0.807070 0.438390 0.995015
Zn5   Zn    Zn3+2 0.131340 0.219220 0.438450 0.977234
Zn6   Zn    Zn3+2 0.868660 0.780780 0.561550 0.977234
Zn7   Zn    Zn3+2 0.280790 0.368660 0.561580 0.957802
Zn8   Zn    Zn3+2 0.719210 0.631340 0.438420 0.957801

loop_
_geom_bond_atom_site_label_1
_geom_bond_atom_site_label_2
_ccdc_geom_bond_type
C4    C67   S    
C36   C38   S    
C61   C63   S    
C24   C30   S    
C20   C27   S    
C44   C50   S    
C9    C11   S    
C71   C72   A    
C4    C56   S    
C9    H25   S    
C34   C62   S    
O25   Zn4   S    
C3    H21   S    
C34   C65   S    
O4    Zn8   S    
C37   C39   S    
O22   Zn7   S    
C70   H29   S    
C75   C76   A    
C25   C31   T    
C46   C52   S    
C3    C45   S    
C44   C47   S    
C20   C30   S    
C60   C65   S    
C13   H24   S    
C41   O8    A    
C37   H2    S    
O5    Zn1   S    
C35   C38   S    
O12   Zn6   S    
O1    Zn7   S    
C57   O13   A    
C66   C72   A    
C47   C52   S    
C69   H28   S    
C61   H13   S    
C12   O4    A    
C12   O25   A    
C5    C7    S    
C21   C24   S    
C45   C67   S    
C36   C43   S    
C60   C62   S    
Br2   C48   S    
C58   O18   A    
C2    C17   S    
C59   C64   S    
C59   O19   A    
C46   C49   S    
O10   Zn6   S    
C10   C14   S    
C58   C65   S    
C50   C52   S    
C47   C49   S    
C51   H9    S    
O8    Zn4   S    
C29   C31   S    
C68   C69   A    
C34   C61   S    
O1    Zn1   S    
O3    Zn7   S    
C5    C56   S    
C56   C78   S    
C7    C80   T    
O12   Zn8   S    
C67   H16   S    
C17   O6    A    
C46   C48   S    
C61   C64   S    
C26   C32   T    
C1    O24   A    
C38   C57   S    
C46   H8    S    
O12   Zn2   S    
O1    Zn3   S    
C24   H34   S    
C13   C18   S    
C35   C37   S    
C9    C18   S    
C48   C51   S    
C21   C28   S    
C28   H40   S    
C35   H4    S    
O7    Zn3   S    
C76   H35   S    
C23   C63   S    
C74   C75   A    
O15   Zn8   S    
C21   H39   S    
C3    C5    S    
C76   C77   A    
C73   C79   A    
C53   O22   A    
C4    C6    S    
C77   H36   S    
C63   C65   S    
C30   C32   S    
C53   O9    A    
C72   H31   S    
C10   C19   S    
C15   C19   S    
C45   H18   S    
C55   O16   A    
C49   C51   S    
C21   C29   S    
O18   Zn1   S    
C20   H38   S    
C73   C74   A    
C14   C54   S    
C62   H1    S    
C52   H10   S    
C41   O21   A    
C68   H27   S    
C44   H7    S    
O12   Zn4   S    
C48   C50   S    
C74   H32   S    
C10   C13   S    
C14   C18   S    
C33   C36   S    
C11   C19   S    
C11   H22   S    
C56   H19   S    
C3    C78   S    
C33   C42   S    
C40   O7    A    
C24   C27   S    
C43   H6    S    
C34   H15   S    
O19   Zn2   S    
O26   Zn5   S    
C78   H17   S    
C40   O20   A    
C20   C22   S    
C60   H11   S    
O24   Zn3   S    
C35   C43   S    
C42   H5    S    
C71   H30   S    
C10   H26   S    
O6    Zn2   S    
C13   C15   S    
C15   C53   S    
C40   C50   S    
C63   H12   S    
O9    Zn5   S    
C18   C66   S    
C59   O15   A    
C23   C64   S    
C70   C71   A    
C9    C15   S    
C5    C67   S    
C54   O10   A    
O17   Zn6   S    
C37   C42   S    
O20   Zn1   S    
C79   H37   S    
C17   O2    A    
C77   C79   A    
O11   Zn3   S    
C54   O23   A    
C1    C25   S    
C22   C29   S    
C39   C55   S    
C69   C70   A    
C27   C29   S    
C16   O26   A    
C28   C30   S    
C33   H3    S    
O14   Zn7   S    
C41   C49   S    
Br1   C47   S    
C27   H41   S    
C44   C51   S    
C16   C80   S    
O13   Zn4   S    
C1    O3    A    
C23   C60   S    
C4    H20   S    
C33   C39   S    
C22   C28   S    
C6    C45   S    
O21   Zn2   S    
O16   Zn5   S    
C38   C42   S    
C57   O17   A    
C23   H14   S    
C6    C8    S    
C19   C73   S    
C11   C14   S    
C58   O14   A    
C6    C78   S    
C66   C68   A    
C39   C43   S    
C55   O11   A    
C16   O5    A    
C22   H23   S    
C12   C26   S    
C75   H33   S    
O23   Zn8   S    
C2    C8    T    
C36   H42   S    
O1    Zn5   S    
C62   C64   S    
O2    Zn6   S    
