data_mof_unit_28191.cif
_audit_creation_date              2012-10-26T18:29:54-0400
_audit_creation_method            fapswitch 2.2
_symmetry_space_group_name_H-M    P1
_symmetry_Int_Tables_number       1
_space_group_crystal_system       triclinic
_cell_length_a                    10.788059
_cell_length_b                    12.979232
_cell_length_c                    11.668931
_cell_angle_alpha                 99.470203
_cell_angle_beta                  94.323688
_cell_angle_gamma                 91.890709
_cell_volume                      1605.32498032

loop_
_atom_site_label
_atom_site_type_symbol
_atom_type_description
_atom_site_fract_x
_atom_site_fract_y
_atom_site_fract_z
_atom_type_partial_charge
C1    C     C_R   0.495226 0.299079 0.479067 0.527809
C2    C     C_R   0.572234 0.026484 0.527896 0.017875
C3    C     C_R   0.470519 0.969074 0.461186 0.000784
C4    C     C_R   0.259301 0.501729 0.499782 0.553284
C5    C     C_R   0.452477 0.863070 0.461422 -0.188809
C6    C     C_R   0.634984 0.865089 0.598155 0.248852
C7    C     C_R   0.656142 0.972657 0.593133 -0.136614
C8    C     C_R   0.425781 0.375189 0.020529 -0.195755
C9    C     C_R   0.429449 0.389717 0.142836 0.049263
C10   C     C_R   0.526485 0.557965 0.157752 0.039141
C11   C     C_R   0.527070 0.545974 0.034751 0.003680
C12   C     C_3   0.876958 0.501666 0.501278 -0.025335
C13   C     C_R   0.474654 0.453743 0.965328 0.000529
C14   C     C_R   0.472923 0.442486 0.842345 0.027247
C15   C     C_R   0.576871 0.608134 0.857198 0.033838
C16   C     C_R   0.510065 0.700236 0.520993 0.578526
C17   C     C_R   0.579375 0.623216 0.979523 -0.190668
C18   C     C_R   0.739910 0.500534 0.500482 0.553113
C19   C     C_3   0.079136 0.477909 0.617909 0.108781
C20   C     C_3   0.936478 0.478877 0.618563 -0.217838
C21   C     C_3   0.071344 0.615178 0.485790 -0.086206
C22   C     C_3   0.056955 0.417977 0.398200 0.125103
C23   C     C_3   0.926666 0.609570 0.479703 -0.225779
C24   C     C_3   0.120278 0.504122 0.498563 0.088298
C25   C     C_3   0.144910 0.509458 0.816532 -0.002278
C26   C     C_3   0.196108 0.593980 0.916591 -0.358686
C27   C     C_3   0.119054 0.664354 0.383622 -0.274197
C28   C     C_3   0.089929 0.779986 0.393214 -0.496616
C29   C     C_3   0.808352 0.865087 0.735402 -0.028205
C30   C     C_3   0.877313 0.794507 0.808097 -0.375034
C31   C     C_3   0.274330 0.171637 0.350835 -0.276720
C32   C     C_3   0.156203 0.144956 0.407590 -0.454674
C33   C     C_3   0.704405 0.197866 0.583766 -0.266203
C34   C     C_3   0.913752 0.416679 0.403468 -0.226401
C35   C     C_3   0.702113 0.228303 0.716074 -0.420069
C36   C     C_3   0.036033 0.354409 0.195427 -0.013352
C37   C     C_3   0.124350 0.325786 0.101349 -0.376334
C38   C     C_R   0.531189 0.812234 0.530751 0.028955
C39   C     C_R   0.490562 0.185159 0.468446 0.021280
C40   C     C_R   0.384699 0.017336 0.395881 -0.114257
C41   C     C_R   0.387410 0.125408 0.405184 -0.005696
C42   C     C_R   0.586432 0.135561 0.527150 -0.001087
Cu1   Cu    Cu3+1 0.509350 0.507730 0.615930 0.950179
Cu2   Cu    Cu3+1 0.490650 0.492270 0.384070 0.926724
H1    H     H_    0.866618 0.430695 0.320032 0.154723
H2    H     H_    0.621285 0.694988 0.030283 0.084938
H3    H     H_    0.396055 0.326979 0.184158 0.128451
H4    H     H_    0.568433 0.628101 0.211639 0.118353
H5    H     H_    0.900221 0.401908 0.635282 0.079949
H6    H     H_    0.910020 0.539243 0.690753 0.166304
H7    H     H_    0.105531 0.669764 0.566738 0.174080
H8    H     H_    0.894490 0.672863 0.545417 0.141667
H9    H     H_    0.090182 0.342279 0.416618 0.086468
H10   H     H_    0.879567 0.338197 0.417567 0.061805
H11   H     H_    0.210128 0.444585 0.808307 0.130523
H12   H     H_    0.885892 0.622880 0.393111 0.135060
H13   H     H_    0.053041 0.479574 0.837957 0.108862
H14   H     H_    0.130499 0.658299 0.929129 0.140967
H15   H     H_    0.208641 0.560784 0.998279 0.101770
H16   H     H_    0.287494 0.626015 0.897256 0.179026
H17   H     H_    0.988035 0.790127 0.388875 0.154373
H18   H     H_    0.133678 0.825221 0.476369 0.147586
H19   H     H_    0.127949 0.812222 0.319956 0.133741
H20   H     H_    0.221454 0.660862 0.383862 0.183311
H21   H     H_    0.077036 0.622136 0.298396 0.206296
H22   H     H_    0.768246 0.927837 0.796721 0.125626
H23   H     H_    0.374701 0.819504 0.408703 0.110251
H24   H     H_    0.877306 0.898645 0.683775 0.124117
H25   H     H_    0.918877 0.730269 0.750839 0.163401
H26   H     H_    0.953197 0.840660 0.865706 0.093606
H27   H     H_    0.812879 0.760809 0.863327 0.137339
H28   H     H_    0.143225 0.059914 0.408027 0.149009
H29   H     H_    0.160387 0.187055 0.498860 0.135783
H30   H     H_    0.073065 0.167808 0.357663 0.118818
H31   H     H_    0.283325 0.257659 0.358337 0.175678
H32   H     H_    0.262501 0.138914 0.256283 0.128134
H33   H     H_    0.790547 0.271605 0.752683 0.118872
H34   H     H_    0.309405 0.970652 0.342898 0.106255
H35   H     H_    0.624336 0.279413 0.738036 0.182573
H36   H     H_    0.691326 0.158897 0.759056 0.130335
H37   H     H_    0.787930 0.152941 0.562804 0.114066
H38   H     H_    0.719261 0.270069 0.546359 0.150536
H39   H     H_    0.953498 0.387010 0.153857 0.129898
H40   H     H_    0.005726 0.281120 0.225458 0.108252
H41   H     H_    0.196362 0.275713 0.132191 0.123279
H42   H     H_    0.072466 0.280681 0.022093 0.080572
H43   H     H_    0.167704 0.397525 0.078321 0.167132
H44   H     H_    0.737237 0.014105 0.639812 0.089710
H45   H     H_    0.429285 0.373011 0.788510 0.106352
H46   H     H_    0.109038 0.397213 0.624522 0.071457
H47   H     H_    0.616062 0.668815 0.815918 0.161973
H48   H     H_    0.386390 0.302486 0.969782 0.078859
N1    N     N_R   0.523430 0.519360 0.790130 -0.230852
N2    N     N_R   0.476570 0.480640 0.209880 -0.225077
O1    O     O_R   0.506640 0.354460 0.582000 -0.519590
O2    O     O_3   0.713663 0.805847 0.660127 -0.567161
O3    O     O_3   0.092700 0.432069 0.286382 -0.547617
O4    O     O_R   0.490840 0.341410 0.386200 -0.524025
O5    O     O_R   0.325590 0.506510 0.597900 -0.469606
O6    O     O_R   0.309790 0.493450 0.402100 -0.471869
O7    O     O_R   0.509160 0.658590 0.613800 -0.472387
O8    O     O_R   0.493360 0.645540 0.418000 -0.534124
O9    O     O_R   0.690210 0.506550 0.597900 -0.499881
O10   O     O_R   0.674410 0.493490 0.402100 -0.510919
O11   O     O_3   0.133736 0.552644 0.712824 -0.553470

loop_
_geom_bond_atom_site_label_1
_geom_bond_atom_site_label_2
_ccdc_geom_bond_type
C8    C13   A    
C11   C13   A    
C2    C7    A    
C5    H23   S    
C30   H27   S    
Cu2   O10   S    
C25   O11   S    
C23   H12   S    
C32   H28   S    
C12   C23   S    
C29   C30   S    
C33   C42   S    
C37   H41   S    
C36   C37   S    
Cu1   O5    S    
C32   H30   S    
C4    C24   S    
C10   N2    A    
C36   H39   S    
C35   H36   S    
C20   H6    S    
C36   H40   S    
C33   C35   S    
Cu2   O4    S    
C31   C32   S    
C8    C9    A    
Cu1   O1    S    
C6    C38   A    
C36   O3    S    
C8    H48   S    
C22   H9    S    
C26   H15   S    
C14   N1    A    
C28   H17   S    
C21   C27   S    
C22   O3    S    
C13   C14   A    
C25   H13   S    
C30   H26   S    
C39   C42   A    
C22   C34   S    
C37   H42   S    
C17   H2    S    
C39   C41   A    
C27   H20   S    
C32   H29   S    
Cu2   O8    S    
C25   C26   S    
C35   H33   S    
C23   H8    S    
Cu1   Cu2   S    
Cu1   O7    S    
C14   H45   S    
C20   H5    S    
C27   H21   S    
C29   H24   S    
C31   H31   S    
C7    H44   S    
C1    O1    A    
C12   C20   S    
C34   H1    S    
C18   O10   A    
C26   H14   S    
C19   O11   S    
C16   O8    A    
C40   C41   A    
C3    C40   A    
C9    H3    S    
C6    O2    S    
C4    O6    A    
C10   H4    S    
C22   C24   S    
C21   C24   S    
C12   C34   S    
C21   H7    S    
C30   H25   S    
C33   H38   S    
C15   C17   A    
C11   C17   A    
C31   C41   S    
C37   H43   S    
C25   H11   S    
C3    C5    A    
C1    O4    A    
C15   N1    A    
C29   O2    S    
C34   H10   S    
C6    C7    A    
C19   C20   S    
C21   C23   S    
C2    C3    A    
C19   H46   S    
Cu2   O6    S    
C31   H32   S    
C33   H37   S    
C2    C42   A    
C35   H35   S    
Cu1   N1    S    
C19   C24   S    
C40   H34   S    
C18   O9    A    
Cu1   O9    S    
Cu2   N2    S    
C10   C11   A    
C1    C39   S    
C15   H47   S    
C29   H22   S    
C28   H19   S    
C16   O7    A    
C4    O5    A    
C12   C18   S    
C27   C28   S    
C5    C38   A    
C26   H16   S    
C9    N2    A    
C16   C38   S    
C28   H18   S    
