data_mof_unit_28069.cif
_audit_creation_date              2012-12-10T18:43:12-0500
_audit_creation_method            fapswitch 2.2
_symmetry_space_group_name_H-M    P1
_symmetry_Int_Tables_number       1
_space_group_crystal_system       triclinic
_cell_length_a                    10.629171
_cell_length_b                    9.848909
_cell_length_c                    10.673062
_cell_angle_alpha                 90.123033
_cell_angle_beta                  89.84811
_cell_angle_gamma                 90.050612
_cell_volume                      1117.310439

loop_
_atom_site_label
_atom_site_type_symbol
_atom_type_description
_atom_site_fract_x
_atom_site_fract_y
_atom_site_fract_z
_atom_type_partial_charge
C1    C     C_R   0.260344 0.499859 0.500993 1.056603
C2    C     C_R   0.739573 0.499882 0.499211 0.978186
C3    C     C_R   0.505644 0.499943 0.261803 0.779393
C4    C     C_R   0.488346 0.499955 0.736900 0.815657
C5    C     C_2   0.462939 0.387678 0.933499 -0.258851
C6    C     C_2   0.455709 0.397041 0.067949 -0.217232
C7    C     C_2   0.447913 0.500010 0.864936 0.462655
C8    C     C_2   0.516919 0.497119 0.127463 0.438903
C9    C     C_R   0.063909 0.432855 0.595888 0.323121
C10   C     C_R   0.933957 0.439794 0.598182 0.390970
C11   C     C_R   0.871946 0.499151 0.496513 -0.376628
C12   C     C_R   0.127962 0.499529 0.499312 -0.353553
C13   C     C_R   0.936461 0.559222 0.395151 0.282735
C14   C     C_R   0.067135 0.563556 0.399481 0.376416
C15   C     C_R   0.577030 0.072193 0.578724 -0.068756
C16   C     C_R   0.422881 0.071670 0.421363 -0.088146
C17   C     C_R   0.577025 0.928343 0.578725 -0.059136
C18   C     C_R   0.422930 0.927819 0.421311 -0.079463
H1    H     H_    0.491338 0.291307 0.892603 0.141603
H2    H     H_    0.398944 0.322418 0.117455 0.129766
H3    H     H_    0.638659 0.126870 0.641666 0.150549
H4    H     H_    0.361193 0.125931 0.358487 0.129873
H5    H     H_    0.638641 0.874088 0.641675 0.131145
H6    H     H_    0.361324 0.873144 0.358349 0.153969
N1    N     N_R   0.500000 0.857200 0.500000 -0.083384
N2    N     N_R   0.500000 0.142810 0.500000 -0.080871
O1    O     O_R   0.316770 0.614620 0.499990 -0.600337
O2    O     O_R   0.683230 0.614620 0.500010 -0.623774
O3    O     O_R   0.316800 0.385290 0.500000 -0.621811
O4    O     O_R   0.683200 0.385290 0.500000 -0.584759
O5    O     O_R   0.500000 0.614630 0.319080 -0.623622
O6    O     O_R   0.500000 0.614630 0.680920 -0.602530
O7    O     O_R   0.500030 0.385300 0.319080 -0.642637
O8    O     O_R   0.499970 0.385300 0.680920 -0.641235
Zn1   Zn    Zn3+2 0.500000 0.653120 0.500000 0.966811
Zn2   Zn    Zn3+2 0.500000 0.346880 0.500000 0.960365
O9    O     O_3   0.398310 0.618083 0.916114 -0.600112
C19   C     C_3   0.269233 0.623785 0.886526 -0.289526
H7    H     H_    0.217612 0.534605 0.924983 0.189808
H8    H     H_    0.254427 0.631345 0.783577 0.171241
H9    H     H_    0.228560 0.716202 0.930179 0.183750
O10   O     O_3   0.606955 0.574348 0.063599 -0.626324
C20   C     C_3   0.601345 0.713158 0.096388 -0.191508
H10   H     H_    0.656735 0.733213 0.182410 0.181153
H11   H     H_    0.503004 0.750462 0.107388 0.186305
H12   H     H_    0.645098 0.772835 0.019747 0.176108
O11   O     O_3   0.129412 0.375714 0.694681 -0.621270
C21   C     C_3   0.126100 0.233041 0.682804 -0.212777
H13   H     H_    0.191171 0.188871 0.752815 0.169326
H14   H     H_    0.158307 0.198624 0.588558 0.155915
H15   H     H_    0.030530 0.192607 0.702739 0.193754
O12   O     O_3   0.867029 0.383799 0.696936 -0.600877
C22   C     C_3   0.853246 0.483282 0.791210 -0.236390
H16   H     H_    0.797534 0.439254 0.869252 0.207033
H17   H     H_    0.801019 0.573488 0.756320 0.142574
H18   H     H_    0.946114 0.514587 0.829660 0.177676
O13   O     O_3   0.875724 0.611946 0.291592 -0.770736
H19   H     H_    0.791111 0.570961 0.284154 0.338197
O14   O     O_3   0.138791 0.623168 0.305834 -0.765019
H20   H     H_    0.083558 0.667545 0.243688 0.379706

loop_
_geom_bond_atom_site_label_1
_geom_bond_atom_site_label_2
_ccdc_geom_bond_type
C19   H8    S    
C20   H10   S    
C15   C17   A    
O9    C19   S    
C5    H1    S    
C11   C13   A    
C9    C10   A    
O11   C21   S    
O4    Zn2   S    
C2    O4    A    
C17   N1    A    
C1    O3    A    
C7    O9    S    
C10   O12   S    
O14   H20   S    
C16   C18   A    
C17   H5    S    
C13   C14   A    
C3    O5    A    
C14   O14   S    
C20   H11   S    
O3    Zn2   S    
O13   H19   S    
C4    O6    A    
C18   N1    A    
N1    Zn1   S    
C4    C7    S    
C18   H6    S    
C2    C11   S    
C21   H14   S    
C21   H13   S    
C9    C12   A    
C12   C14   A    
C9    O11   S    
O8    Zn2   S    
C22   H17   S    
C4    O8    A    
C16   N2    A    
C5    C6    S    
C20   H12   S    
O5    Zn1   S    
C13   O13   S    
C10   C11   A    
C3    O7    A    
C8    O10   S    
O6    Zn1   S    
C15   H3    S    
O7    Zn2   S    
C6    H2    S    
O12   C22   S    
C19   H9    S    
C1    O1    A    
C3    C8    S    
O10   C20   S    
C22   H18   S    
N2    Zn2   S    
C5    C7    D    
C2    O2    A    
C15   N2    A    
C6    C8    D    
O1    Zn1   S    
C22   H16   S    
C21   H15   S    
C1    C12   S    
O2    Zn1   S    
C16   H4    S    
C19   H7    S    
