data_mof_unit_11882.cif
_audit_creation_date              2012-12-11T15:27:41-0500
_audit_creation_method            fapswitch 2.2
_symmetry_space_group_name_H-M    P1
_symmetry_Int_Tables_number       1
_space_group_crystal_system       triclinic
_cell_length_a                    23.206958
_cell_length_b                    7.302034
_cell_length_c                    15.100304
_cell_angle_alpha                 89.99936
_cell_angle_beta                  107.926471
_cell_angle_gamma                 90.000085
_cell_volume                      2434.64014424

loop_
_atom_site_label
_atom_site_type_symbol
_atom_type_description
_atom_site_fract_x
_atom_site_fract_y
_atom_site_fract_z
_atom_type_partial_charge
O1    O     O_R   0.711000 0.648610 0.341170 -0.523764
O2    O     O_R   0.289000 0.351390 0.658830 -0.523764
O3    O     O_R   0.789000 0.148610 0.158830 -0.523760
O4    O     O_R   0.211000 0.851390 0.841170 -0.523760
O5    O     O_R   0.829650 0.322030 0.336650 -0.542147
O6    O     O_R   0.170350 0.677970 0.663350 -0.542147
O7    O     O_R   0.670350 0.822030 0.163350 -0.542146
O8    O     O_R   0.329650 0.177970 0.836650 -0.542147
C1    C     C_R   0.854269 0.485825 0.356869 0.724581
C2    C     C_R   0.145731 0.514175 0.643131 0.724580
C3    C     C_R   0.645731 0.985826 0.143131 0.724573
C4    C     C_R   0.354269 0.014174 0.856869 0.724574
O9    O     O_R   0.713950 0.319280 0.352070 -0.549296
O10   O     O_R   0.286050 0.680720 0.647930 -0.549296
O11   O     O_R   0.786050 0.819280 0.147930 -0.549295
O12   O     O_R   0.213950 0.180720 0.852070 -0.549295
O13   O     O_R   0.672470 0.142870 0.174360 -0.530342
O14   O     O_R   0.327530 0.857130 0.825640 -0.530342
O15   O     O_R   0.827530 0.642870 0.325640 -0.530343
O16   O     O_R   0.172470 0.357130 0.674360 -0.530343
C5    C     C_R   0.702035 0.487970 0.376469 0.761407
C6    C     C_R   0.297965 0.512030 0.623530 0.761408
C7    C     C_R   0.797965 0.987972 0.123531 0.761398
C8    C     C_R   0.202035 0.012029 0.876469 0.761397
O17   O     O_3   0.736530 0.478650 0.191680 -0.378155
O18   O     O_3   0.263470 0.521350 0.808320 -0.378156
O19   O     O_3   0.763470 0.978650 0.308320 -0.378158
O20   O     O_3   0.236530 0.021350 0.691680 -0.378158
V1    V     V_3+5 0.752500 0.206170 0.260820 1.455789
V2    V     V_3+5 0.247500 0.793830 0.739180 1.455789
V3    V     V_3+5 0.747500 0.706170 0.239180 1.455787
V4    V     V_3+5 0.252500 0.293830 0.760820 1.455786
C9    C     C_R   0.826286 0.001324 0.049493 -0.201427
C10   C     C_R   0.173714 0.998677 0.950507 -0.201427
C11   C     C_R   0.673714 0.501314 0.450506 -0.201427
C12   C     C_R   0.326286 0.498685 0.549494 -0.201427
C13   C     C_R   0.826405 0.126433 0.900776 0.376233
C14   C     C_R   0.173596 0.873574 0.099226 0.376234
C15   C     C_R   0.673601 0.626363 0.599236 0.376244
C16   C     C_R   0.326400 0.373630 0.400766 0.376241
C17   C     C_R   0.795156 0.082964 0.963983 0.392445
C18   C     C_R   0.204844 0.917040 0.036018 0.392445
C19   C     C_R   0.704847 0.582914 0.536024 0.392448
C20   C     C_R   0.295153 0.417081 0.463977 0.392448
C21   C     C_R   0.887290 0.954969 0.069696 -0.301572
C22   C     C_R   0.112710 0.045033 0.930304 -0.301572
C23   C     C_R   0.612708 0.454980 0.430298 -0.301570
C24   C     C_R   0.387292 0.545019 0.569703 -0.301569
C25   C     C_R   0.920388 0.001075 0.008340 0.030475
C26   C     C_R   0.079613 0.998931 0.991662 0.030475
C27   C     C_R   0.579612 0.501062 0.491660 0.030479
C28   C     C_R   0.420388 0.498933 0.508341 0.030479
C29   C     C_R   0.889530 0.095601 0.925040 -0.028633
C30   C     C_R   0.110471 0.904407 0.074962 -0.028636
C31   C     C_R   0.610475 0.595541 0.574972 -0.028663
C32   C     C_R   0.389526 0.404452 0.425030 -0.028660
C33   C     C_R   0.983795 0.965250 0.029677 0.105492
C34   C     C_R   0.016206 0.034759 0.970326 0.105492
C35   C     C_R   0.516204 0.465257 0.470320 0.105494
C36   C     C_R   0.483797 0.534736 0.529682 0.105493
C37   C     C_R   0.984296 0.139324 0.892027 -0.200772
C38   C     C_R   0.015705 0.860687 0.107976 -0.200771
C39   C     C_R   0.515712 0.639244 0.607998 -0.200774
C40   C     C_R   0.484289 0.360747 0.392005 -0.200775
C41   C     C_R   0.922394 0.166275 0.869321 -0.153541
C42   C     C_R   0.077608 0.833738 0.130683 -0.153537
C43   C     C_R   0.577616 0.666175 0.630706 -0.153510
C44   C     C_R   0.422385 0.333815 0.369297 -0.153513
H1    H     H_    0.900729 0.249458 0.808905 0.151617
H2    H     H_    0.099273 0.750557 0.191100 0.151617
H3    H     H_    0.599285 0.749311 0.691137 0.151623
H4    H     H_    0.400716 0.250675 0.308867 0.151622
H5    H     H_    0.091378 0.103198 0.862529 0.136104
H6    H     H_    0.908622 0.896801 0.137471 0.136105
H7    H     H_    0.408625 0.603158 0.637482 0.136100
H8    H     H_    0.591374 0.396844 0.362517 0.136100
H9    H     H_    0.005996 0.205865 0.847145 0.123128
H10   H     H_    0.994006 0.794149 0.152860 0.123127
H11   H     H_    0.494018 0.705754 0.652895 0.123124
H12   H     H_    0.505983 0.294235 0.347109 0.123125
C45   C     C_1   0.416761 0.006925 0.918851 -0.188493
C46   C     C_1   0.583239 0.993075 0.081149 -0.188495
C47   C     C_1   0.083239 0.506927 0.581149 -0.188486
C48   C     C_1   0.916760 0.493073 0.418851 -0.188485
C49   C     C_1   0.469128 0.002378 0.970007 -0.000552
C50   C     C_1   0.530872 0.997622 0.029993 -0.000552
C51   C     C_1   0.030872 0.502379 0.529993 -0.000550
C52   C     C_1   0.969128 0.497621 0.470007 -0.000549
O21   O     O_3   0.264394 0.861809 0.054287 -0.538215
C53   C     C_3   0.302556 0.010859 0.092457 -0.252391
H13   H     H_    0.298773 0.049290 0.161639 0.169471
H14   H     H_    0.293107 0.131472 0.045064 0.116750
H15   H     H_    0.350129 0.969027 0.102797 0.161631
O22   O     O_3   0.735607 0.138196 0.945715 -0.538216
C54   C     C_3   0.697445 0.989148 0.907544 -0.252393
H16   H     H_    0.706895 0.868530 0.954933 0.116747
H17   H     H_    0.701224 0.950726 0.838359 0.169471
H18   H     H_    0.649871 0.030977 0.897210 0.161630
O23   O     O_3   0.235601 0.361875 0.445703 -0.538217
C55   C     C_3   0.197447 0.510941 0.407528 -0.252407
H19   H     H_    0.201240 0.549378 0.338352 0.169508
H20   H     H_    0.206897 0.631545 0.454925 0.116766
H21   H     H_    0.149871 0.469125 0.397174 0.161633
O24   O     O_3   0.764400 0.638119 0.554298 -0.538217
C56   C     C_3   0.802553 0.489051 0.592472 -0.252407
H22   H     H_    0.793104 0.368450 0.545074 0.116768
H23   H     H_    0.798758 0.450609 0.661647 0.169510
H24   H     H_    0.850130 0.530867 0.602829 0.161634
O25   O     O_3   0.794986 0.210258 0.817800 -0.568157
C57   C     C_3   0.784897 0.082892 0.743929 -0.244943
H25   H     H_    0.788091 0.936708 0.766185 0.176638
H26   H     H_    0.817467 0.107010 0.704663 0.139747
H27   H     H_    0.738726 0.105113 0.695168 0.180825
O26   O     O_3   0.205015 0.789749 0.182202 -0.568157
C58   C     C_3   0.215104 0.917113 0.256074 -0.244935
H28   H     H_    0.182542 0.892968 0.295351 0.139743
H29   H     H_    0.211898 0.063299 0.233818 0.176629
H30   H     H_    0.261279 0.894917 0.304824 0.180838
O27   O     O_3   0.705020 0.710180 0.682212 -0.568154
C59   C     C_3   0.715107 0.582826 0.756090 -0.244859
H31   H     H_    0.711799 0.436629 0.733836 0.176550
H32   H     H_    0.682610 0.607196 0.795456 0.139711
H33   H     H_    0.761320 0.604822 0.804759 0.180952
O28   O     O_3   0.294980 0.289813 0.317789 -0.568155
C60   C     C_3   0.284893 0.417169 0.243912 -0.244860
H34   H     H_    0.317397 0.392821 0.204554 0.139713
H35   H     H_    0.288191 0.563366 0.266167 0.176557
H36   H     H_    0.238684 0.395152 0.195234 0.180941

loop_
_geom_bond_atom_site_label_1
_geom_bond_atom_site_label_2
_ccdc_geom_bond_type
O17   V3    S    
C47   C51   T    
C51   C52   S    
O1    C5    A    
O19   V1    S    
C9    C21   A    
O3    C7    A    
C54   H16   S    
C10   C18   A    
O15   V3    S    
O26   C58   S    
C53   H13   S    
C54   H18   S    
C25   C33   A    
C33   C38   A    
C39   H11   S    
C49   C50   S    
O7    C3    A    
C56   H23   S    
C35   C40   A    
C26   C30   A    
C36   C39   A    
C40   C44   A    
O9    V1    S    
C23   H8    S    
C14   C18   A    
C14   O26   S    
C20   O23   S    
C15   O27   S    
C43   H3    S    
C58   H28   S    
C2    C47   S    
O1    V3    S    
O13   V1    S    
C31   C43   A    
O2    V4    S    
O3    V1    S    
C19   O24   S    
C28   C36   A    
C57   H25   S    
C1    O15   A    
C15   C31   A    
C17   O22   S    
C2    O16   A    
C16   C32   A    
O2    C6    A    
C60   H36   S    
C10   C22   A    
C11   C19   A    
C16   C20   A    
C13   O25   S    
C59   H33   S    
C44   H4    S    
C13   C29   A    
C34   C37   A    
O11   C7    A    
C11   C23   A    
C35   C36   A    
O12   C8    A    
C40   H12   S    
C24   H7    S    
O10   V2    S    
O24   C56   S    
C59   H32   S    
C45   C49   T    
O5    V1    S    
C3    C46   S    
C16   O28   S    
C56   H24   S    
C39   C43   A    
O7    V3    S    
C38   C42   A    
O8    V4    S    
C37   H9    S    
O18   V4    S    
C15   C19   A    
C7    C9    S    
C46   C50   T    
C55   H21   S    
C8    C10   S    
C21   H6    S    
C26   C34   A    
O5    C1    A    
C53   H14   S    
O23   C55   S    
C14   C30   A    
C21   C25   A    
O8    C4    A    
C58   H30   S    
C55   H20   S    
O9    C5    A    
C57   H27   S    
O14   V2    S    
O6    V2    S    
C60   H34   S    
C12   C20   A    
C27   C35   A    
C29   C41   A    
C59   H31   S    
C53   H15   S    
O16   V4    S    
C41   H1    S    
C58   H29   S    
C3    O13   A    
C38   H10   S    
C48   C52   T    
O6    C2    A    
C23   C27   A    
O27   C59   S    
C54   H17   S    
O11   V3    S    
C5    C11   S    
O12   V4    S    
C6    C12   S    
C56   H22   S    
C22   C26   A    
C18   O21   S    
C9    C17   A    
O10   C6    A    
O20   V2    S    
C32   C44   A    
O25   C57   S    
C33   C34   A    
C42   H2    S    
O4    C8    A    
C25   C29   A    
C55   H19   S    
C4    C45   S    
C12   C24   A    
C27   C31   A    
C13   C17   A    
O22   C54   S    
C57   H26   S    
C1    C48   S    
C37   C41   A    
C24   C28   A    
C4    O14   A    
C60   H35   S    
O21   C53   S    
C30   C42   A    
C22   H5    S    
O4    V2    S    
C28   C32   A    
O28   C60   S    
