data_mof_unit_58556.cif
_audit_creation_date              2012-12-10T18:13:50-0500
_audit_creation_method            fapswitch 2.2
_symmetry_space_group_name_H-M    P1
_symmetry_Int_Tables_number       1
_space_group_crystal_system       triclinic
_cell_length_a                    10.838644
_cell_length_b                    9.426413
_cell_length_c                    23.520259
_cell_angle_alpha                 90.146485
_cell_angle_beta                  89.407189
_cell_angle_gamma                 90.267682
_cell_volume                      2402.89151142

loop_
_atom_site_label
_atom_site_type_symbol
_atom_type_description
_atom_site_fract_x
_atom_site_fract_y
_atom_site_fract_z
_atom_type_partial_charge
C1    C     C_R   0.259089 0.499307 0.502685 0.786204
C2    C     C_R   0.287585 0.588979 0.970567 -0.163615
C3    C     C_R   0.286497 0.588666 0.029889 -0.164650
C4    C     C_R   0.390989 0.545253 0.059991 -0.013231
C5    C     C_R   0.497399 0.501957 0.029888 -0.018021
C6    C     C_R   0.602747 0.458463 0.059641 -0.023567
C7    C     C_R   0.708493 0.415800 0.029203 -0.163360
C8    C     C_R   0.709518 0.415859 0.969886 -0.161130
C9    C     C_R   0.391806 0.543245 0.119617 0.510668
C10   C     C_R   0.599459 0.458903 0.119269 0.577611
C11   C     C_R   0.496491 0.368242 0.238811 0.308422
C12   C     C_R   0.499396 0.499804 0.390955 0.825622
C13   C     C_R   0.499774 0.370074 0.298323 -0.292152
C14   C     C_R   0.497580 0.499097 0.328352 -0.070788
C15   C     C_R   0.492830 0.627118 0.298108 -0.232753
C16   C     C_R   0.490853 0.626204 0.238918 -0.161506
C17   C     C_R   0.493040 0.497632 0.208956 0.338001
C18   C     C_R   0.503161 0.372796 0.761130 -0.104146
C19   C     C_R   0.503594 0.372139 0.701862 -0.228934
C20   C     C_R   0.502453 0.500587 0.671646 -0.046835
C21   C     C_R   0.501071 0.629545 0.701812 -0.236772
C22   C     C_R   0.500306 0.629870 0.761072 -0.101492
C23   C     C_R   0.739444 0.500065 0.500964 0.810619
C24   C     C_R   0.501351 0.501579 0.790909 0.360232
C25   C     C_3   0.064855 0.606933 0.551766 0.506942
C26   C     C_3   0.066435 0.339440 0.518708 0.497315
C27   C     C_3   0.921016 0.610431 0.546677 -0.450549
C28   C     C_3   0.922648 0.352025 0.522694 -0.365177
C29   C     C_3   0.071250 0.531770 0.444418 -0.426465
C30   C     C_3   0.119484 0.496244 0.505232 0.018918
C31   C     C_3   0.876107 0.499543 0.503139 0.013862
C32   C     C_3   0.929332 0.537562 0.443980 -0.395648
C33   C     C_3   0.626298 0.084389 0.508830 -0.187446
C34   C     C_3   0.626033 0.916881 0.509723 -0.185511
C35   C     C_3   0.423223 0.083477 0.548100 -0.195356
C36   C     C_3   0.421389 0.916340 0.547475 -0.202420
C37   C     C_3   0.453434 0.082816 0.447095 -0.183884
C38   C     C_3   0.455685 0.916025 0.446706 -0.180802
C39   C     C_R   0.501353 0.500133 0.609067 0.791151
C40   C     C_R   0.603718 0.459653 0.880151 0.532079
C41   C     C_R   0.396303 0.544771 0.880476 0.531161
C42   C     C_R   0.393188 0.545872 0.940120 -0.013659
C43   C     C_R   0.498495 0.502229 0.969883 -0.017005
C44   C     C_R   0.604871 0.458762 0.939782 -0.014442
Cu1   Cu    Cu3+1 0.499860 0.642410 0.500030 0.899778
Cu2   Cu    Cu3+1 0.499860 0.357590 0.500030 0.896263
H1    H     H_    0.205436 0.622953 0.948689 0.190095
H2    H     H_    0.504561 0.271186 0.679811 0.145514
H3    H     H_    0.499993 0.730139 0.679717 0.146990
H4    H     H_    0.499145 0.729786 0.783887 0.139209
H5    H     H_    0.874133 0.591218 0.588290 0.135597
H6    H     H_    0.890878 0.338012 0.567543 0.159800
H7    H     H_    0.887586 0.717213 0.534661 0.178738
H8    H     H_    0.875300 0.265478 0.499983 0.172680
H9    H     H_    0.110425 0.629330 0.426096 0.177057
H10   H     H_    0.103115 0.451012 0.413220 0.200659
H11   H     H_    0.899051 0.645563 0.431546 0.171431
H12   H     H_    0.892246 0.464617 0.411134 0.164532
H13   H     H_    0.666697 0.125471 0.548978 0.139012
H14   H     H_    0.663877 0.879082 0.550771 0.138657
H15   H     H_    0.203524 0.622363 0.052035 0.189944
H16   H     H_    0.687935 0.120849 0.473635 0.136431
H17   H     H_    0.689686 0.878080 0.475752 0.137851
H18   H     H_    0.458424 0.120059 0.589869 0.142392
H19   H     H_    0.452798 0.877607 0.589443 0.138433
H20   H     H_    0.358613 0.120791 0.439023 0.140970
H21   H     H_    0.362880 0.873866 0.436998 0.135512
H22   H     H_    0.511170 0.120917 0.410888 0.139185
H23   H     H_    0.516817 0.880924 0.411175 0.136724
H24   H     H_    0.328223 0.123698 0.545306 0.139243
H25   H     H_    0.325576 0.878340 0.542914 0.183659
H26   H     H_    0.790695 0.381993 0.051081 0.189191
H27   H     H_    0.792493 0.382148 0.947745 0.189840
H28   H     H_    0.502990 0.270246 0.320932 0.143219
H29   H     H_    0.490934 0.728142 0.320096 0.150262
H30   H     H_    0.488541 0.725833 0.216130 0.152002
H31   H     H_    0.503664 0.273250 0.784002 0.139228
N1    N     N_R   0.500451 0.502060 0.851865 -0.470102
N2    N     N_R   0.494702 0.499589 0.147914 -0.457775
N3    N     N_3   0.500250 0.143650 0.501250 -0.113747
N4    N     N_3   0.500250 0.856350 0.501250 -0.113917
O1    O     O_R   0.317570 0.620260 0.500030 -0.566216
O2    O     O_R   0.317570 0.379740 0.500030 -0.600638
O3    O     O_R   0.499840 0.620290 0.417900 -0.595174
O4    O     O_R   0.499840 0.379710 0.417900 -0.589211
O5    O     O_R   0.682190 0.620260 0.500010 -0.596295
O6    O     O_R   0.682190 0.379740 0.500010 -0.602720
O7    O     O_R   0.499920 0.620230 0.582140 -0.598529
O8    O     O_R   0.499920 0.379770 0.582140 -0.592592
O9    O     O_2   0.705137 0.419458 0.850615 -0.537281
O10   O     O_2   0.295870 0.584925 0.851254 -0.539316
O11   O     O_2   0.290238 0.582981 0.149143 -0.543782
O12   O     O_2   0.700254 0.419807 0.148457 -0.533882
N5    N     N_2   0.111901 0.753407 0.546760 -0.407651
H32   H     H_    0.089878 0.813775 0.582098 0.258015
C45   C     C_3   0.100484 0.837483 0.495538 -0.781684
H33   H     H_    0.112400 0.950579 0.506395 0.227412
H34   H     H_    0.009737 0.825406 0.475120 0.228318
H35   H     H_    0.175974 0.813970 0.465499 0.245766
N6    N     N_2   0.107995 0.238805 0.474122 -0.416900
H36   H     H_    0.181445 0.176441 0.484765 0.265957
C46   C     C_3   0.028165 0.170017 0.433081 -0.777435
H37   H     H_    0.085773 0.115759 0.400399 0.232710
H38   H     H_    0.970097 0.247451 0.410761 0.243485
H39   H     H_    0.969283 0.088723 0.454136 0.219840
N7    N     N_2   0.094414 0.555251 0.609037 -0.467875
H40   H     H_    0.028921 0.501628 0.632913 0.270806
C47   C     C_3   0.198918 0.609067 0.640476 -0.700149
H41   H     H_    0.234211 0.524327 0.668558 0.244051
H42   H     H_    0.169769 0.700271 0.667271 0.234781
H43   H     H_    0.274110 0.643345 0.611481 0.250314
N8    N     N_2   0.111038 0.288048 0.573738 -0.446783
H44   H     H_    0.200461 0.311944 0.584787 0.267078
C48   C     C_3   0.068214 0.152025 0.595317 -0.759542
H45   H     H_    0.037237 0.165307 0.640106 0.249492
H46   H     H_    0.144649 0.074296 0.594439 0.212631
H47   H     H_    0.990294 0.108402 0.570363 0.236864
N9    N     N_2   0.499063 0.236512 0.209133 -0.416209
H48   H     H_    0.545936 0.157767 0.230180 0.249444
C49   C     C_3   0.379851 0.188144 0.189727 -0.663637
H49   H     H_    0.391074 0.087923 0.165343 0.232018
H50   H     H_    0.337559 0.267777 0.161361 0.252119
H51   H     H_    0.317375 0.168022 0.226641 0.220355

loop_
_geom_bond_atom_site_label_1
_geom_bond_atom_site_label_2
_ccdc_geom_bond_type
C15   H29   S    
C37   H22   S    
C11   C13   A    
C41   C42   A    
C19   C20   A    
C32   H12   S    
C21   H3    S    
C48   H45   S    
C7    C8    A    
Cu2   O8    S    
Cu1   Cu2   S    
C29   C30   S    
C12   O4    A    
C18   C24   A    
C39   O7    A    
C29   C32   S    
C5    C6    A    
Cu1   O1    S    
N7    H40   S    
C15   C16   A    
C45   H35   S    
C35   N3    S    
C17   N2    S    
C47   H41   S    
C12   O3    A    
C46   H39   S    
C18   C19   A    
C9    N2    A    
N9    H48   S    
C34   H17   S    
C35   C36   S    
C35   H24   S    
C27   H5    S    
C33   H16   S    
C23   O5    A    
C45   H34   S    
C35   H18   S    
C34   N4    S    
C36   H25   S    
C22   H4    S    
Cu2   O4    S    
C16   H30   S    
C5    C43   A    
C38   H23   S    
C25   N5    S    
C33   H13   S    
C23   O6    A    
C21   C22   A    
C37   H20   S    
C34   H14   S    
N5    H32   S    
C32   H11   S    
C9    O11   S    
N8    C48   S    
N8    H44   S    
C49   H50   S    
C25   N7    S    
C3    H15   S    
C37   N3    S    
C27   C31   S    
Cu1   O7    S    
C38   H21   S    
C41   N1    A    
C20   C39   S    
C28   H8    S    
C36   H19   S    
C16   C17   A    
C29   H9    S    
C10   O12   S    
C1    O1    A    
C49   H51   S    
C23   C31   S    
N5    C45   S    
C43   C44   A    
C37   C38   S    
C8    H27   S    
C31   C32   S    
C36   N4    S    
C45   H33   S    
N6    C46   S    
C33   C34   S    
C20   C21   A    
C46   H38   S    
C24   N1    S    
C41   O10   S    
C12   C14   S    
C26   C30   S    
C38   N4    S    
C22   C24   A    
Cu1   O3    S    
C1    O2    A    
C42   C43   A    
C3    C4    A    
C26   N8    S    
C7    H26   S    
C49   H49   S    
Cu2   O6    S    
C25   C30   S    
C11   C17   A    
C19   H2    S    
C28   C31   S    
Cu1   N4    S    
C8    C44   A    
C4    C5    A    
C6    C10   A    
C48   H46   S    
C10   N2    A    
C27   H7    S    
C33   N3    S    
C6    C7    A    
C29   H10   S    
C2    H1    S    
C25   C27   S    
C26   C28   S    
C47   H43   S    
C2    C3    A    
Cu2   N3    S    
C28   H6    S    
N7    C47   S    
C2    C42   A    
C18   H31   S    
C1    C30   S    
C47   H42   S    
Cu1   O5    S    
C40   N1    A    
C46   H37   S    
N9    C49   S    
C48   H47   S    
Cu2   O2    S    
C40   C44   A    
C13   H28   S    
C14   C15   A    
N6    H36   S    
C40   O9    S    
C4    C9    A    
C13   C14   A    
C11   N9    S    
C39   O8    A    
C26   N6    S    
