data_mof_unit_16394.cif
_audit_creation_date              2012-12-10T19:42:13-0500
_audit_creation_method            fapswitch 2.2
_symmetry_space_group_name_H-M    P1
_symmetry_Int_Tables_number       1
_space_group_crystal_system       triclinic
_cell_length_a                    10.893483
_cell_length_b                    10.924772
_cell_length_c                    9.740823
_cell_angle_alpha                 89.735197
_cell_angle_beta                  91.067714
_cell_angle_gamma                 90.702124
_cell_volume                      1158.94433817

loop_
_atom_site_label
_atom_site_type_symbol
_atom_type_description
_atom_site_fract_x
_atom_site_fract_y
_atom_site_fract_z
_atom_type_partial_charge
C1    C     C_R   0.501296 0.265500 0.500270 0.869788
C2    C     C_R   0.202639 0.599826 0.978047 -0.174036
C3    C     C_R   0.931356 0.525509 0.381202 -0.200891
C4    C     C_R   0.871733 0.504502 0.504939 -0.088495
C5    C     C_R   0.941833 0.489455 0.627247 0.011316
C6    C     C_R   0.068742 0.491098 0.620797 -0.204716
C7    C     C_R   0.128457 0.509296 0.496600 -0.090242
C8    C     C_R   0.058407 0.530006 0.375552 0.012515
C9    C     C_R   0.865746 0.576059 0.845211 -0.133194
C10   C     C_R   0.813802 0.561613 0.974493 0.383019
C11   C     C_R   0.784604 0.444230 0.023177 -0.227804
C12   C     C_R   0.262441 0.503637 0.498532 0.801622
C13   C     C_R   0.807151 0.341620 0.942695 -0.177723
C14   C     C_R   0.858738 0.355898 0.813206 -0.115075
C15   C     C_R   0.887699 0.473322 0.763845 0.052199
C16   C     C_2   0.501269 0.933470 0.386975 -0.101247
C17   C     C_2   0.491191 0.866363 0.501688 -0.314159
C18   C     C_2   0.495771 0.067445 0.387364 -0.142671
C19   C     C_2   0.507023 0.133441 0.502751 -0.298213
C20   C     C_2   0.441259 0.418628 0.922779 0.444668
C21   C     C_2   0.448611 0.414427 0.077571 -0.119509
C22   C     C_R   0.498219 0.734454 0.499828 0.849524
C23   C     C_R   0.737666 0.500791 0.501673 0.795262
C24   C     C_R   0.219670 0.687136 0.081531 0.425107
C25   C     C_R   0.173487 0.664748 0.212520 -0.108818
C26   C     C_R   0.111960 0.553920 0.240291 0.075278
C27   C     C_R   0.096062 0.466755 0.136562 -0.129622
C28   C     C_R   0.141227 0.489641 0.006348 -0.179674
Cu1   Cu    Cu3+1 0.500020 0.500020 0.638630 1.018075
Cu2   Cu    Cu3+1 0.499980 0.499980 0.361370 0.982259
H1    H     H_    0.238018 0.616727 0.876533 0.178242
H2    H     H_    0.744235 0.432156 0.122917 0.182610
H3    H     H_    0.784387 0.251038 0.980609 0.170753
H4    H     H_    0.875675 0.275972 0.751314 0.147156
H5    H     H_    0.512372 0.889418 0.288282 0.219275
H6    H     H_    0.474995 0.906767 0.600795 0.175008
H7    H     H_    0.484208 0.112539 0.288394 0.187526
H8    H     H_    0.523421 0.092155 0.602457 0.172748
H9    H     H_    0.555724 0.561266 0.894578 0.191028
H10   H     H_    0.405984 0.336747 0.128434 0.197463
H11   H     H_    0.531944 0.576047 0.105985 0.239806
H12   H     H_    0.185605 0.732825 0.292309 0.145380
H13   H     H_    0.048218 0.381177 0.156584 0.153970
H14   H     H_    0.128429 0.420554 0.928690 0.193276
H15   H     H_    0.878941 0.540037 0.287446 0.204367
H16   H     H_    0.121419 0.476782 0.713825 0.174563
H17   H     H_    0.888216 0.666943 0.807649 0.165358
N1    N     N_2   0.498640 0.498660 0.846910 -0.305417
N2    N     N_2   0.498610 0.498630 0.153040 -0.309707
O1    O     O_R   0.500020 0.321960 0.617040 -0.516707
O2    O     O_R   0.499980 0.321920 0.382900 -0.593860
O3    O     O_R   0.319660 0.500030 0.617070 -0.553812
O4    O     O_R   0.319620 0.499990 0.382930 -0.576637
O5    O     O_R   0.500020 0.678080 0.617100 -0.571451
O6    O     O_R   0.499980 0.678040 0.382960 -0.555926
O7    O     O_R   0.680380 0.500010 0.617070 -0.575376
O8    O     O_R   0.680340 0.499970 0.382930 -0.575662
Cl1   Cl    Cl    0.347309 0.305014 0.846497 -0.609089
Cl2   Cl    Cl    0.299323 0.824056 0.047347 -0.614384
Cl3   Cl    Cl    0.783836 0.691065 0.073800 -0.655045

loop_
_geom_bond_atom_site_label_1
_geom_bond_atom_site_label_2
_ccdc_geom_bond_type
C25   H12   S    
C14   H4    S    
C10   Cl3   S    
Cu2   O2    S    
C13   H3    S    
C22   O6    A    
C17   H6    S    
Cu1   Cu2   S    
C8    C26   S    
C1    O1    A    
Cu2   O6    S    
C12   O4    A    
C10   C11   A    
C21   N2    D    
C9    C15   A    
C23   O7    A    
C22   O5    A    
C13   C14   A    
C24   C25   A    
C1    O2    A    
C26   C27   A    
C20   N1    D    
C21   H10   S    
C24   Cl2   S    
H11   N2    S    
Cu1   O7    S    
Cu2   N2    S    
C3    H15   S    
C11   H2    S    
C9    H17   S    
C6    C7    A    
Cu1   O1    S    
C16   H5    S    
C2    C24   A    
C5    C6    A    
Cu2   O4    S    
C7    C12   S    
C5    C15   S    
C7    C8    A    
Cu1   O5    S    
Cu1   N1    S    
C20   Cl1   S    
C3    C4    A    
Cu2   O8    S    
C27   H13   S    
C11   C13   A    
C19   H8    S    
C20   C21   S    
C3    C8    A    
C28   H14   S    
C16   C18   S    
C18   C19   D    
C9    C10   A    
C27   C28   A    
C23   O8    A    
C4    C23   S    
C14   C15   A    
C4    C5    A    
C2    C28   A    
C6    H16   S    
C12   O3    A    
C25   C26   A    
C1    C19   S    
C18   H7    S    
C17   C22   S    
C16   C17   D    
C2    H1    S    
H9    N1    S    
Cu1   O3    S    
