data_mof_unit_57501.cif
_audit_creation_date              2013-03-05T16:33:33-0500
_audit_creation_method            fapswitch 2.2
_symmetry_space_group_name_H-M    P1
_symmetry_Int_Tables_number       1
_space_group_crystal_system       triclinic
_cell_length_a                    10.830839
_cell_length_b                    10.902168
_cell_length_c                    9.561241
_cell_angle_alpha                 90.822078
_cell_angle_beta                  90.169626
_cell_angle_gamma                 91.254636
_cell_volume                      1128.59486514

loop_
_atom_site_label
_atom_site_type_symbol
_atom_site_description
_atom_site_fract_x
_atom_site_fract_y
_atom_site_fract_z
_atom_type_partial_charge
O1    O     O_R   0.500000 0.319640 0.618810 -0.592056
O2    O     O_R   0.500010 0.319680 0.381230 -0.545930
C1    C     C_R   0.498630 0.262416 0.498455 0.834119
O3    O     O_R   0.319650 0.499970 0.618810 -0.585347
O4    O     O_R   0.319660 0.500010 0.381230 -0.574129
C2    C     C_R   0.262710 0.494625 0.499781 0.794412
Cu1   Cu    Cu3+1 0.499990 0.499980 0.640670 1.012661
Cu2   Cu    Cu3+1 0.500010 0.500020 0.359330 1.064460
O5    O     O_R   0.499990 0.680320 0.618770 -0.542557
O6    O     O_R   0.500000 0.680360 0.381190 -0.563356
O7    O     O_R   0.680340 0.499990 0.618770 -0.578721
O8    O     O_R   0.680350 0.500030 0.381190 -0.551755
C3    C     C_R   0.492486 0.737130 0.500243 0.883517
C4    C     C_R   0.737895 0.499057 0.500418 0.813306
C5    C     C_R   0.067320 0.537012 0.613269 0.087682
C6    C     C_R   0.129715 0.484088 0.502073 -0.086236
C7    C     C_R   0.062318 0.419118 0.398464 -0.141261
C8    C     C_R   0.932977 0.420139 0.400570 -0.090288
C9    C     C_R   0.871465 0.489673 0.502922 -0.100002
C10   C     C_R   0.940132 0.540780 0.614142 0.083262
C11   C     C_3   0.945068 0.670202 0.669241 -0.367333
C12   C     C_3   0.083977 0.663926 0.669274 -0.358266
H1    H     H_    0.910670 0.678595 0.777498 0.246430
H2    H     H_    0.129059 0.726733 0.593339 0.239057
C13   C     C_R   0.522312 0.065288 0.615781 0.006697
C14   C     C_R   0.499792 0.128993 0.493399 -0.229524
C15   C     C_R   0.476930 0.061360 0.367656 0.268134
C16   C     C_R   0.466220 0.932894 0.370676 0.243917
C17   C     C_R   0.485433 0.870429 0.497961 -0.233373
C18   C     C_R   0.514864 0.939026 0.618283 0.059875
C19   C     C_3   0.456376 0.941529 0.760742 0.236580
C20   C     C_3   0.466920 0.080583 0.757691 -0.407341
H3    H     H_    0.377122 0.128120 0.755588 0.220174
H4    H     H_    0.534931 0.119186 0.834677 0.228902
C21   C     C_R   0.562587 0.588991 0.074671 0.183258
N1    N     N_R   0.500790 0.500930 0.147930 -0.180358
C22   C     C_R   0.428025 0.419381 0.072842 0.068762
C23   C     C_R   0.429458 0.418027 0.924001 -0.013138
N2    N     N_R   0.500790 0.500890 0.852020 -0.208140
C24   C     C_R   0.557437 0.593588 0.927853 0.182033
C25   C     C_3   0.690200 0.633644 0.919925 0.033624
C26   C     C_3   0.697734 0.621073 0.078412 0.054657
H5    H     H_    0.109134 0.370664 0.315102 0.178730
H6    H     H_    0.513642 0.901082 0.843741 0.204716
H7    H     H_    0.370714 0.353523 0.127363 0.172214
H8    H     H_    0.374391 0.349956 0.867135 0.142063
H9    H     H_    0.747627 0.567824 0.860700 0.158578
N3    N     N_R   0.705124 0.760244 0.871941 0.101728
O9    O     O_R   0.741326 0.848614 0.956533 -0.311150
O10   O     O_R   0.702959 0.781141 0.738625 -0.401452
N4    N     N_R   0.778205 0.519834 0.113396 0.116596
O11   O     O_R   0.895965 0.543429 0.126052 -0.350663
O12   O     O_R   0.740884 0.406249 0.095711 -0.331070
H10   H     H_    0.717987 0.705290 0.141867 0.177113
H11   H     H_    0.881529 0.369783 0.320539 0.219948
H12   H     H_    0.908758 0.737314 0.593714 0.234717
H13   H     H_    0.124814 0.664755 0.775975 0.257575
N5    N     N_R   0.454248 0.121450 0.238090 0.145099
O13   O     O_R   0.547135 0.156483 0.161289 -0.307017
O14   O     O_R   0.343570 0.118551 0.184713 -0.334688
N6    N     N_R   0.427505 0.868152 0.245604 0.169587
O15   O     O_R   0.322504 0.807790 0.242815 -0.292727
O16   O     O_R   0.491292 0.878560 0.131164 -0.312175
N7    N     N_R   0.328365 0.895972 0.761258 0.136209
O17   O     O_R   0.291964 0.822546 0.859602 -0.305869
O18   O     O_R   0.248474 0.934017 0.670470 -0.364469

loop_
_geom_bond_atom_site_label_1
_geom_bond_atom_site_label_2
_geom_bond_distance
_ccdc_geom_bond_type
C5    C6    1.386959 A    
O4    Cu2   1.965147 S    
N4    O12   1.302722 A    
C7    H5    1.083275 S    
C13   C18   1.377682 A    
C22   C23   1.423105 A    
C11   H12   1.112451 S    
C2    C6    1.442770 S    
C25   C26   1.525581 S    
C1    C14   1.455037 S    
C9    C10   1.398051 A    
C26   N4    1.463122 S    
Cu2   O8    1.963767 S    
N7    O17   1.300138 A    
C13   C20   1.493798 S    
N3    O10   1.298311 A    
C7    C8    1.401362 A    
C25   H9    1.110138 S    
Cu1   Cu2   2.689966 S    
O6    C3    1.291484 A    
C11   C12   1.507550 S    
C20   H3    1.112285 S    
Cu1   O7    1.965147 S    
C18   C19   1.504027 S    
C16   C17   1.420088 A    
C14   C15   1.419591 A    
C17   C18   1.395379 A    
C8    H11   1.081408 S    
C12   H13   1.110584 S    
O3    Cu1   1.963766 S    
O4    C2    1.293514 A    
C4    C9    1.452679 S    
Cu1   N2    2.020642 S    
C3    C17   1.457399 S    
N1    C22   1.369165 A    
C25   N3    1.466434 S    
O8    C4    1.297895 A    
C21   C24   1.406353 A    
O2    C1    1.290732 A    
C11   H1    1.104356 S    
N6    O15   1.301401 A    
O7    C4    1.293561 A    
C12   H2    1.111814 S    
C23   H8    1.081304 S    
O3    C2    1.292784 A    
C6    C7    1.403158 A    
C19   H6    1.108147 S    
C16   N6    1.436638 S    
C22   H7    1.079676 S    
N4    O11   1.300534 A    
C26   H10   1.110686 S    
C15   C16   1.403536 A    
C23   N2    1.370061 A    
C10   C11   1.498812 S    
Cu2   O6    1.974194 S    
C8    C9    1.407440 A    
Cu2   N1    2.021454 S    
N2    C24   1.368455 A    
Cu1   O5    1.980202 S    
C21   C26   1.497703 S    
O5    C3    1.302419 A    
N3    O9    1.302050 A    
C24   C25   1.496069 S    
O1    C1    1.300968 A    
C13   C14   1.392876 A    
O1    Cu1   1.974193 S    
N5    O13   1.301081 A    
N5    O14   1.301025 A    
C19   N7    1.462521 S    
C15   N5    1.432726 S    
C5    C12   1.483568 S    
O2    Cu2   1.980200 S    
C19   C20   1.518490 S    
N7    O18   1.302247 A    
C5    C10   1.379105 A    
N6    O16   1.300778 A    
C21   N1    1.361709 A    
C20   H4    1.111699 S    
