data_mof_unit_36452.cif
_audit_creation_date              2012-10-26T18:25:53-0400
_audit_creation_method            fapswitch 2.2
_symmetry_space_group_name_H-M    P1
_symmetry_Int_Tables_number       1
_space_group_crystal_system       triclinic
_cell_length_a                    11.676575
_cell_length_b                    8.729378
_cell_length_c                    7.440173
_cell_angle_alpha                 102.07496
_cell_angle_beta                  94.396192
_cell_angle_gamma                 92.004145
_cell_volume                      738.397612551

loop_
_atom_site_label
_atom_site_type_symbol
_atom_type_description
_atom_site_fract_x
_atom_site_fract_y
_atom_site_fract_z
_atom_type_partial_charge
C1    C     C_R   0.493501 0.200782 0.455912 0.598831
C2    C     C_2   0.529906 0.962955 0.558506 0.180492
C3    C     C_R   0.506589 0.799222 0.544062 0.590631
C4    C     C_R   0.284129 0.499629 0.501858 0.585324
C5    C     C_R   0.715869 0.500305 0.498126 0.574437
C6    C     C_1   0.162623 0.499950 0.504694 0.059595
C7    C     C_1   0.837368 0.499830 0.495239 0.052769
C8    C     C_1   0.059982 0.499916 0.502343 0.014693
C9    C     C_1   0.940004 0.499775 0.497547 0.013710
C10   C     C_2   0.470530 0.037051 0.441310 0.180109
Cu1   Cu    Cu3+1 0.512570 0.517380 0.684380 1.125426
Cu2   Cu    Cu3+1 0.487430 0.482620 0.315620 1.115812
H1    H     H_    0.202789 0.041989 0.151433 0.377778
H2    H     H_    0.680801 0.205755 0.975276 0.370783
H3    H     H_    0.411316 0.378762 0.949185 0.261263
H4    H     H_    0.588670 0.621248 0.050825 0.254622
N1    N     N_2   0.468500 0.456430 0.038520 -0.223057
N2    N     N_2   0.531500 0.543570 0.961480 -0.227882
O1    O     O_R   0.508170 0.286130 0.619770 -0.485309
O2    O     O_2   0.275135 0.850641 0.382645 -0.293885
O3    O     O_3   0.266342 0.096943 0.239775 -0.520248
O4    O     O_2   0.725747 0.920045 0.756604 -0.269826
O5    O     O_2   0.724907 0.149999 0.616958 -0.301995
O6    O     O_3   0.609509 0.154602 0.903947 -0.485669
O7    O     O_R   0.491830 0.713870 0.380230 -0.488420
O8    O     O_R   0.486940 0.256780 0.308360 -0.449823
O9    O     O_R   0.513060 0.743220 0.691640 -0.448862
O10   O     O_R   0.347810 0.514690 0.655710 -0.513070
O11   O     O_R   0.652190 0.485310 0.344290 -0.533208
O12   O     O_R   0.326590 0.485340 0.344300 -0.461351
O13   O     O_R   0.673410 0.514660 0.655700 -0.470412
O14   O     O_2   0.385339 0.857938 0.115998 -0.244450
S1    S     S_3+6 0.347013 0.953491 0.291439 0.031815
S2    S     S_3+6 0.653268 0.047239 0.708650 0.029380

loop_
_geom_bond_atom_site_label_1
_geom_bond_atom_site_label_2
_ccdc_geom_bond_type
Cu2   N1    S    
Cu1   Cu2   S    
Cu1   N2    S    
Cu2   O11   S    
C5    C7    S    
Cu1   O9    S    
Cu2   O7    S    
O5    S2    D    
O14   S1    D    
C2    S2    S    
C3    O9    A    
N1    N2    D    
Cu1   O13   S    
Cu1   O1    S    
Cu1   O10   S    
O2    S1    D    
H4    N2    S    
C4    O10   A    
C2    C3    S    
C10   S1    S    
C5    O11   A    
C1    O8    A    
O4    S2    D    
O6    S2    S    
C1    O1    A    
O3    S1    S    
H1    O3    S    
C2    C10   D    
C7    C9    T    
C3    O7    A    
C4    C6    S    
H2    O6    S    
H3    N1    S    
C6    C8    T    
Cu2   O12   S    
C4    O12   A    
C1    C10   S    
Cu2   O8    S    
C8    C9    S    
C5    O13   A    
