data_mof_unit_44676.cif
_audit_creation_date              2012-12-11T15:21:52-0500
_audit_creation_method            fapswitch 2.2
_symmetry_space_group_name_H-M    P1
_symmetry_Int_Tables_number       1
_space_group_crystal_system       triclinic
_cell_length_a                    8.296274
_cell_length_b                    12.659738
_cell_length_c                    18.943445
_cell_angle_alpha                 93.758889
_cell_angle_beta                  93.910596
_cell_angle_gamma                 97.746971
_cell_volume                      1961.2242848

loop_
_atom_site_label
_atom_site_type_symbol
_atom_type_description
_atom_site_fract_x
_atom_site_fract_y
_atom_site_fract_z
_atom_type_partial_charge
Ba1   Ba    Ba6+2 0.160910 0.552960 0.466220 1.633748
Ba2   Ba    Ba6+2 0.649260 0.447030 0.533730 1.628877
C1    C     C_3   0.345425 0.823539 0.197825 -0.353966
C2    C     C_R   0.742081 0.815323 0.467958 -0.282986
C3    C     C_R   0.706912 0.997300 0.446141 -0.094690
C4    C     C_3   0.906923 0.838718 0.298339 0.335871
C5    C     C_R   0.646112 0.888034 0.441415 -0.015782
C6    C     C_R   0.891601 0.849525 0.506479 0.077749
C7    C     C_R   0.953231 0.961868 0.514288 -0.058516
C8    C     C_R   0.860033 0.036813 0.482702 -0.057369
C9    C     C_R   0.921618 0.148989 0.490403 0.066573
C10   C     C_R   0.167139 0.111027 0.555804 -0.004237
C11   C     C_R   0.106020 0.001730 0.551309 -0.105737
C12   C     C_3   0.390099 0.789897 0.271424 0.344135
C13   C     C_R   0.618348 0.541623 0.299698 -0.285005
C14   C     C_R   0.461388 0.491667 0.277629 0.069659
C15   C     C_R   0.403172 0.491541 0.206289 -0.132356
C16   C     C_3   0.869069 0.932646 0.257109 -0.397591
C17   C     C_R   0.505283 0.536628 0.155981 -0.021831
C18   C     C_R   0.668903 0.575766 0.178462 -0.145182
C19   C     C_R   0.723398 0.580280 0.250125 0.018873
C20   C     C_R   0.484892 0.622129 0.036546 0.201511
C21   C     C_R   0.426405 0.612019 0.964426 -0.071561
C22   C     C_R   0.329939 0.518439 0.933783 0.023339
C23   C     C_3   0.538424 0.768096 0.609967 0.290870
C24   C     C_R   0.286268 0.435663 0.977408 -0.088022
C25   C     C_R   0.343916 0.443480 0.048620 -0.104514
C26   C     C_R   0.444123 0.535531 0.079677 0.029743
C27   C     C_R   0.125288 0.451650 0.829964 -0.119797
C28   C     C_3   0.755910 0.316877 0.320952 0.311589
C29   C     C_R   0.084826 0.432966 0.756572 0.038595
C30   C     C_R   0.343952 0.530944 0.734230 0.024516
C31   C     C_R   0.388502 0.546785 0.807074 -0.137742
C32   C     C_R   0.280163 0.505753 0.856111 -0.000070
C33   C     C_R   0.195822 0.470387 0.709367 -0.266560
C34   C     C_3   0.554289 0.888890 0.613031 -0.373286
C35   C     C_3   0.723628 0.287687 0.241565 -0.398180
C36   C     C_3   0.096449 0.726839 0.687727 0.529740
C37   C     C_3   0.000697 0.677796 0.746473 -0.363322
C38   C     C_3   0.253783 0.228662 0.382211 0.277332
C39   C     C_3   0.240409 0.108467 0.366292 -0.342359
C40   C     C_3   0.194642 0.906876 0.745558 -0.200728
C41   C     C_3   0.092614 0.197175 0.843994 -0.229005
C42   C     C_3   0.690429 0.926557 0.802756 -0.258326
C43   C     C_3   0.724213 0.756926 0.033461 -0.241296
C44   C     C_3   0.921677 0.167421 0.727369 0.517870
C45   C     C_3   0.825455 0.054877 0.727438 -0.012616
C46   C     C_3   0.447407 0.221135 0.726092 0.318034
C47   C     C_3   0.485740 0.193985 0.802230 -0.375276
C48   C     C_R   0.071947 0.183331 0.528254 -0.279805
H1    H     H_    0.299314 0.721271 0.281888 0.111848
H2    H     H_    0.338952 0.251618 0.430254 0.069601
H3    H     H_    0.321593 0.752182 0.159376 0.086044
H4    H     H_    0.160537 0.083716 0.317088 0.115561
H5    H     H_    0.187819 0.065810 0.410328 0.081522
H6    H     H_    0.363273 0.085907 0.359032 0.147084
H7    H     H_    0.513518 0.764896 0.272425 -0.054624
H8    H     H_    0.446495 0.880830 0.181024 0.099071
H9    H     H_    0.648092 0.740506 0.589112 0.018582
H10   H     H_    0.431389 0.737933 0.572823 0.098074
H11   H     H_    0.495258 0.920853 0.658980 0.161948
H12   H     H_    0.622457 0.220212 0.231525 0.129691
H13   H     H_    0.684461 0.922415 0.614826 0.071234
H14   H     H_    0.493061 0.914339 0.564808 0.126427
H15   H     H_    0.233608 0.862766 0.197898 0.158354
H16   H     H_    0.772576 0.904758 0.213835 0.111262
H17   H     H_    0.943517 0.178735 0.670794 -0.052287
H18   H     H_    0.702396 0.058724 0.701998 0.119122
H19   H     H_    0.885575 0.997777 0.694940 0.023309
H20   H     H_    0.341358 0.266081 0.724259 0.003184
H21   H     H_    0.552658 0.273857 0.709813 0.140557
H22   H     H_    0.386391 0.137476 0.820192 0.097734
H23   H     H_    0.689278 0.356737 0.213991 0.063418
H24   H     H_    0.504926 0.268227 0.838174 0.093262
H25   H     H_    0.994222 0.868627 0.344736 0.065894
H26   H     H_    0.596171 0.154590 0.806848 0.180148
H27   H     H_    0.631058 0.050228 0.422425 0.108662
H28   H     H_    0.181777 0.949096 0.575362 0.108891
H29   H     H_    0.120317 0.267472 0.532815 0.065234
H30   H     H_    0.693853 0.731157 0.462971 0.065153
H31   H     H_    0.506941 0.590655 0.825017 0.065475
H32   H     H_    0.453016 0.678916 0.932327 0.062242
H33   H     H_    0.279211 0.455537 0.190231 0.094540
H34   H     H_    0.835123 0.263764 0.219492 0.122915
H35   H     H_    0.210041 0.363119 0.956616 0.058105
H36   H     H_    0.790274 0.801976 0.317750 -0.051733
H37   H     H_    0.312225 0.375398 0.079186 0.069495
H38   H     H_    0.036119 0.424589 0.866324 0.068420
H39   H     H_    0.754143 0.603145 0.140700 0.088131
H40   H     H_    0.162239 0.457483 0.652929 0.067310
H41   H     H_    0.662579 0.544357 0.354954 0.068617
H42   H     H_    0.825317 0.993702 0.293083 0.095733
H43   H     H_    0.979942 0.969299 0.233409 0.122151
H44   H     H_    0.643142 0.338695 0.342205 0.018529
H45   H     H_    0.144608 0.662129 0.656811 -0.026194
H46   H     H_    0.855365 0.385560 0.329805 0.058133
H47   H     H_    0.307924 0.772240 0.755239 0.172516
H48   H     H_    0.306914 0.957772 0.768473 0.100910
H49   H     H_    0.108798 0.897308 0.787710 0.084103
H50   H     H_    0.143318 0.948176 0.701418 0.127866
H51   H     H_    0.149556 0.120563 0.749351 0.165562
H52   H     H_    0.115604 0.124988 0.871041 0.080102
H53   H     H_    0.983384 0.226977 0.864179 0.151430
H54   H     H_    0.200622 0.257625 0.858313 0.100880
H55   H     H_    0.921371 0.005041 0.822065 0.202233
H56   H     H_    0.083733 0.654228 0.789075 0.047638
H57   H     H_    0.721175 0.856730 0.770494 0.148919
H58   H     H_    0.568987 0.944480 0.784000 0.133099
H59   H     H_    0.686053 0.906486 0.858852 0.097903
H60   H     H_    0.581174 0.737022 0.119289 0.192361
H61   H     H_    0.784773 0.833157 0.061638 0.112882
H62   H     H_    0.699779 0.771517 0.976877 0.105918
H63   H     H_    0.808474 0.696093 0.037598 0.107598
H64   H     H_    0.917620 0.606848 0.723539 0.134436
H65   H     H_    0.926441 0.735148 0.770593 0.111291
H66   H     H_    0.131843 0.249852 0.391761 0.011263
N1    N     N_2   0.232406 0.803948 0.719265 -0.422428
N2    N     N_2   0.078501 0.175305 0.767485 -0.456949
N3    N     N_2   0.811924 0.018354 0.798191 -0.417767
N4    N     N_2   0.573804 0.722071 0.065093 -0.436201
O1    O     O_2   0.160820 0.763040 0.533820 -0.490066
O2    O     O_2   0.753624 0.432105 0.750372 -0.499503
O3    O     O_3   0.828130 0.243325 0.754222 -0.617915
O4    O     O_3   0.890970 0.628600 0.535400 -0.478123
O5    O     O_3   0.427530 0.446070 0.416950 -0.491068
O6    O     O_2   0.637430 0.550200 0.669460 -0.441130
O7    O     O_3   0.519709 0.732884 0.677927 -0.652515
O8    O     O_2   0.504394 0.112935 0.551017 -0.482626
O9    O     O_3   0.416389 0.127237 0.680555 -0.640699
O10   O     O_3   0.385950 0.698560 0.408070 -0.494075
O11   O     O_2   0.311851 0.887868 0.451596 -0.487770
O12   O     O_3   0.310586 0.278324 0.323146 -0.635537
O13   O     O_3   0.989345 0.778354 0.646184 -0.643958
O14   O     O_3   0.386559 0.876380 0.321249 -0.607749
O15   O     O_2   0.172860 0.449730 0.330520 -0.463943
O16   O     O_3   0.962080 0.644700 0.373110 -0.481383
O17   O     O_2   0.058588 0.574506 0.248318 -0.499687
O18   O     O_3   0.978345 0.767543 0.253941 -0.603490
O19   O     O_2   0.649470 0.236890 0.466160 -0.468461
O20   O     O_3   0.919320 0.371390 0.464540 -0.492133
O21   O     O_3   0.424350 0.301430 0.591880 -0.486604
O22   O     O_3   0.800967 0.227907 0.352979 -0.643199
O23   O     O_3   0.382770 0.553920 0.582990 -0.486654
O24   O     O_3   0.848220 0.355290 0.626830 -0.474717
P1    P     P_3+3 0.986780 0.745970 0.554690 0.982773
P2    P     P_3+3 0.341450 0.417130 0.341310 0.980099
P3    P     P_3+3 0.931739 0.638241 0.280840 0.944004
P4    P     P_3+3 0.823520 0.254020 0.445250 0.973240
P5    P     P_3+3 0.882319 0.367489 0.720499 0.929690
P6    P     P_3+3 0.433965 0.837607 0.406329 0.928158
P7    P     P_3+3 0.469532 0.594133 0.669067 0.934228
P8    P     P_3+3 0.377096 0.162450 0.593641 0.918513

loop_
_geom_bond_atom_site_label_1
_geom_bond_atom_site_label_2
_ccdc_geom_bond_type
C37   H56   S    
O3    P5    S    
C21   H32   S    
Ba2   O24   S    
C10   P8    S    
Ba1   P1    S    
C6    P1    S    
C2    C6    A    
C48   H29   S    
O20   P4    S    
C35   H12   S    
C43   H62   S    
C4    H25   S    
C20   N4    S    
C24   C25   A    
Ba2   O19   S    
C19   P3    S    
C46   H20   S    
Ba1   O5    S    
C2    H30   S    
O5    P2    S    
C40   H48   S    
C36   C37   S    
C29   P5    S    
C9    P4    S    
Ba2   P4    S    
C13   C14   A    
O14   P6    S    
C44   N2    S    
C14   P2    S    
Ba1   Ba2   S    
C36   O13   S    
C7    C11   A    
C41   H54   S    
C39   H5    S    
C27   H38   S    
C28   H46   S    
O7    P7    S    
C44   C45   S    
C36   N1    S    
O8    P8    D    
C45   H19   S    
C17   C18   A    
C6    C7    A    
C47   H22   S    
C36   H45   S    
O10   P6    S    
C21   C22   A    
C35   H34   S    
C23   H10   S    
C34   H13   S    
C7    C8    A    
C1    H8    S    
C42   H59   S    
C37   H64   S    
C45   N3    S    
C38   O12   S    
C20   C26   A    
Ba2   O23   S    
Ba1   P2    S    
C1    H15   S    
C2    C5    A    
C41   H53   S    
C42   H58   S    
C4    C16   S    
O19   P4    D    
O2    P5    D    
O22   P4    S    
O9    P8    S    
Ba1   O10   S    
H60   N4    S    
C3    C5    A    
C14   C15   A    
C12   O14   S    
C42   N3    S    
C38   H2    S    
C27   C32   A    
C22   C32   S    
C28   C35   S    
C15   H33   S    
C4    O18   S    
C30   C33   A    
C39   H6    S    
O24   P5    S    
Ba1   O23   S    
C40   H50   S    
C5    P6    S    
O6    P7    D    
C12   H1    S    
C13   C19   A    
O18   P3    S    
O15   P2    D    
C31   C32   A    
C47   H26   S    
C10   C11   A    
C25   H37   S    
C17   C26   S    
C1    C12   S    
Ba1   O20   S    
Ba2   O6    S    
C43   N4    S    
C46   C47   S    
C37   H65   S    
O1    P1    D    
C44   O3    S    
O13   P1    S    
H51   N2    S    
C46   H21   S    
C3    H27   S    
C34   H11   S    
Ba1   O16   S    
C45   H18   S    
O4    P1    S    
C42   H57   S    
C16   H43   S    
C12   H7    S    
C35   H23   S    
C11   H28   S    
C38   C39   S    
C23   C34   S    
C47   H24   S    
O17   P3    D    
C22   C24   A    
C28   O22   S    
C10   C48   A    
C43   H61   S    
C40   N1    S    
Ba2   O4    S    
C16   H16   S    
C18   H39   S    
C4    H36   S    
O12   P2    S    
C30   C31   A    
C23   O7    S    
Ba1   O4    S    
C16   H42   S    
C44   H17   S    
C27   C29   A    
C9    C48   A    
C34   H14   S    
C40   H49   S    
C1    H3    S    
C38   H66   S    
C30   P7    S    
C24   H35   S    
O23   P7    S    
C15   C17   A    
C29   C33   A    
H47   N1    S    
C33   H40   S    
C46   O9    S    
Ba1   O1    S    
C39   H4    S    
C41   H52   S    
O16   P3    S    
C8    C9    A    
C41   N2    S    
C13   H41   S    
Ba2   O5    S    
C43   H63   S    
C3    C8    A    
C18   C19   A    
C28   H44   S    
C25   C26   A    
Ba2   O21   S    
C20   C21   A    
H55   N3    S    
O11   P6    D    
Ba2   O20   S    
C23   H9    S    
Ba1   O15   S    
C31   H31   S    
O21   P8    S    
