data_mof_unit_11806.cif
_audit_creation_date              2013-03-05T16:44:39-0500
_audit_creation_method            fapswitch 2.2
_symmetry_space_group_name_H-M    P1
_symmetry_Int_Tables_number       1
_space_group_crystal_system       triclinic
_cell_length_a                    27.69506
_cell_length_b                    10.716121
_cell_length_c                    9.83341
_cell_angle_alpha                 90.29189
_cell_angle_beta                  90.080911
_cell_angle_gamma                 90.297921
_cell_volume                      2918.3146156

loop_
_atom_site_label
_atom_site_type_symbol
_atom_site_description
_atom_site_fract_x
_atom_site_fract_y
_atom_site_fract_z
_atom_type_partial_charge
O1    O     O_R   0.500010 0.316790 0.614690 -0.610980
O2    O     O_R   0.500000 0.316760 0.385350 -0.635064
C1    C     C_R   0.502908 0.260238 0.498974 0.883149
O3    O     O_R   0.428760 0.500040 0.614660 -0.619736
O4    O     O_R   0.428750 0.500000 0.385310 -0.617525
C2    C     C_R   0.405912 0.500204 0.499947 0.884757
Zn1   Zn    Zn3+2 0.500000 0.500020 0.653130 0.947383
Zn2   Zn    Zn3+2 0.500000 0.499980 0.346870 0.939895
O5    O     O_R   0.500000 0.683240 0.614650 -0.619792
O6    O     O_R   0.499990 0.683210 0.385310 -0.628455
O7    O     O_R   0.571250 0.500000 0.614690 -0.624631
O8    O     O_R   0.571240 0.499960 0.385340 -0.628273
C3    C     C_R   0.500706 0.739696 0.500078 0.902144
C4    C     C_R   0.594046 0.500139 0.500162 0.858582
C5    C     C_R   0.177162 0.390732 0.540093 0.503440
O9    O     O_2   0.202260 0.286521 0.569060 -0.552585
N1    N     N_R   0.201015 0.497327 0.503561 -0.358529
C6    C     C_R   0.177032 0.604356 0.471627 0.505063
C7    C     C_R   0.277793 0.499743 0.624849 -0.101959
C8    C     C_R   0.327909 0.501168 0.624137 -0.210877
C9    C     C_R   0.327291 0.498979 0.377156 -0.212256
C10   C     C_R   0.277101 0.497738 0.378156 -0.095873
C11   C     C_R   0.252425 0.497801 0.502006 0.319312
C12   C     C_R   0.101287 0.499400 0.517583 -0.057206
C13   C     C_R   0.126733 0.389439 0.547010 -0.019671
C14   C     C_R   0.101400 0.281420 0.583214 -0.137570
C15   C     C_R   0.126644 0.607618 0.478232 -0.021110
C16   C     C_R   0.353080 0.500172 0.500264 -0.046008
H1    H     H_    0.345746 0.499177 0.280354 0.152244
H2    H     H_    0.257329 0.496596 0.283054 0.139151
H3    H     H_    0.120232 0.196262 0.608583 0.189818
C17   C     C_R   0.646790 0.501267 0.501151 -0.037840
C18   C     C_R   0.973796 0.389678 0.543671 0.070154
C19   C     C_R   0.975295 0.618848 0.529786 -0.014920
C20   C     C_R   0.949187 0.505469 0.532297 0.036775
C21   C     C_R   0.946610 0.278075 0.541890 -0.225808
C22   C     C_R   0.896785 0.280445 0.531815 -0.160463
C23   C     C_R   0.872366 0.393982 0.523658 0.006347
C24   C     C_R   0.898288 0.507822 0.525171 -0.085912
C25   C     C_R   0.873479 0.623078 0.515080 -0.078164
C26   C     C_R   0.822393 0.618661 0.510807 0.494704
N2    N     N_R   0.798686 0.506689 0.507382 -0.354269
C27   C     C_R   0.822261 0.395814 0.512910 0.496302
C28   C     C_R   0.721877 0.493720 0.626633 -0.106646
C29   C     C_R   0.671777 0.491810 0.625040 -0.219825
C30   C     C_R   0.672629 0.512700 0.378970 -0.221973
C31   C     C_R   0.722831 0.515022 0.381036 -0.118118
C32   C     C_R   0.747305 0.505417 0.504834 0.341705
O10   O     O_2   0.796988 0.287708 0.509012 -0.570449
C33   C     C_R   0.024797 0.389304 0.553369 0.045704
C34   C     C_R   0.050434 0.501032 0.526542 0.067891
C35   C     C_R   0.025553 0.614322 0.506658 0.039179
C36   C     C_R   0.051230 0.280868 0.585577 -0.228480
H4    H     H_    0.652702 0.482724 0.720594 0.161532
H5    H     H_    0.741056 0.486196 0.722278 0.130410
H6    H     H_    0.034103 0.194847 0.616068 0.139322
O11   O     O_2   0.201992 0.707431 0.435309 -0.552805
C37   C     C_R   0.101154 0.715410 0.444221 -0.145239
H7    H     H_    0.346792 0.503443 0.720410 0.152606
H8    H     H_    0.258562 0.500705 0.720679 0.137817
H9    H     H_    0.119620 0.797920 0.407391 0.191695
C38   C     C_R   0.950089 0.732376 0.550894 0.057296
C39   C     C_R   0.900545 0.736904 0.517223 0.086557
O12   O     O_2   0.796050 0.723911 0.515193 -0.575035
C40   C     C_R   0.051225 0.717982 0.456305 -0.219905
H10   H     H_    0.654138 0.520371 0.282264 0.159203
H11   H     H_    0.032800 0.799822 0.420091 0.148334
C41   C     C_R   0.488514 0.065144 0.609866 0.115937
C42   C     C_R   0.505260 0.127691 0.495189 -0.160992
C43   C     C_R   0.519832 0.061083 0.376319 0.074867
C44   C     C_R   0.515915 0.931930 0.379345 -0.224471
H12   H     H_    0.526130 0.877045 0.291685 0.162077
C45   C     C_R   0.501435 0.871308 0.498121 -0.140819
C46   C     C_R   0.486853 0.937879 0.611650 0.135760
C47   C     C_3   0.505717 0.930798 0.753801 -0.477069
C48   C     C_3   0.507833 0.071639 0.752078 -0.466558
H13   H     H_    0.541941 0.886828 0.760119 0.202306
H14   H     H_    0.482086 0.115306 0.824149 0.201025
H15   H     H_    0.545248 0.109602 0.756436 0.208943
C49   C     C_R   0.479992 0.402553 0.070738 0.193901
N3    N     N_R   0.499670 0.499140 0.142800 -0.103776
C50   C     C_R   0.523793 0.589977 0.072687 -0.127357
H16   H     H_    0.542203 0.663851 0.127721 0.138345
C51   C     C_R   0.523821 0.589936 0.928487 -0.135144
H17   H     H_    0.542292 0.663663 0.874417 0.142955
N4    N     N_R   0.499670 0.499180 0.857150 -0.105985
C52   C     C_R   0.479835 0.402761 0.927931 0.210729
C53   C     C_3   0.428269 0.362386 0.922573 -0.498075
C54   C     C_3   0.428690 0.360759 0.076774 -0.504058
H18   H     H_    0.404375 0.435498 0.880408 0.213969
H19   H     H_    0.423521 0.268404 0.876339 0.199002
H20   H     H_    0.404700 0.432079 0.122609 0.216995
H21   H     H_    0.425010 0.265490 0.119856 0.201166
C55   C     C_3   0.971786 0.838690 0.637163 -0.439442
C56   C     C_3   0.997624 0.792076 0.765802 -0.312789
C57   C     C_3   0.013151 0.900840 0.857069 -0.878904
H22   H     H_    0.038030 0.964068 0.801302 0.264018
H23   H     H_    0.981146 0.954375 0.891567 0.259464
H24   H     H_    0.032207 0.864501 0.947951 0.255259
H25   H     H_    0.972952 0.730002 0.823945 0.223305
H26   H     H_    0.030391 0.738432 0.738845 0.238454
H27   H     H_    0.995965 0.899601 0.577081 0.188954
H28   H     H_    0.942437 0.900109 0.674766 0.202495
C58   C     C_3   0.879651 0.862258 0.473140 -0.363900
C59   C     C_3   0.864817 0.860382 0.322374 -0.323468
C60   C     C_3   0.842627 0.984573 0.280622 -0.817831
H29   H     H_    0.809778 0.003684 0.341832 0.292290
H30   H     H_    0.869028 0.061857 0.295560 0.252760
H31   H     H_    0.832338 0.980686 0.171495 0.244699
H32   H     H_    0.897279 0.842937 0.258746 0.206200
H33   H     H_    0.838415 0.784730 0.300586 0.250107
H34   H     H_    0.849700 0.891307 0.540716 0.251741
H35   H     H_    0.906935 0.938108 0.481709 0.165768
H36   H     H_    0.742756 0.523993 0.286881 0.127396
C61   C     C_3   0.541225 0.126417 0.251761 -0.356532
C62   C     C_3   0.567177 0.043273 0.147167 -0.399663
C63   C     C_3   0.592239 0.122384 0.039241 -0.863541
H37   H     H_    0.565889 0.185249 0.989405 0.254781
H38   H     H_    0.621433 0.179657 0.086142 0.265161
H39   H     H_    0.608398 0.060568 0.960779 0.253533
H40   H     H_    0.594808 0.985312 0.198805 0.233845
H41   H     H_    0.540550 0.981358 0.095099 0.223078
H42   H     H_    0.511667 0.174895 0.197314 0.216544
H43   H     H_    0.568061 0.196575 0.288388 0.218137
H44   H     H_    0.478381 0.893200 0.825649 0.205687
H45   H     H_    0.877448 0.192268 0.529707 0.181174
H46   H     H_    0.962959 0.186975 0.543299 0.133032

loop_
_geom_bond_atom_site_label_1
_geom_bond_atom_site_label_2
_geom_bond_distance
_ccdc_geom_bond_type
C31   H36   1.082954 S    
C28   C32   1.396118 A    
C52   C53   1.490853 S    
C26   N2    1.365043 A    
C20   C24   1.411652 A    
C56   C57   1.527036 S    
C12   C15   1.408766 A    
C59   H32   1.112141 S    
N3    C50   1.367700 A    
Zn1   O7    2.009676 S    
N1    C11   1.423890 S    
C25   C39   1.428410 A    
C62   H41   1.112001 S    
C48   H14   1.109582 S    
C21   C22   1.383701 A    
C1    C42   1.422522 S    
C51   N4    1.367581 A    
C30   H10   1.083142 S    
C49   C52   1.404294 A    
C63   H38   1.110856 S    
C23   C24   1.412275 A    
C49   N3    1.362355 A    
O7    C4    1.291863 A    
C5    C13   1.398385 A    
Zn1   N4    2.006312 S    
C60   H29   1.110905 S    
C41   C46   1.364527 A    
C61   C62   1.538721 S    
C57   H24   1.110502 S    
C19   C38   1.420260 A    
C18   C21   1.409914 A    
C62   C63   1.527074 S    
Zn1   O5    2.001428 S    
C19   C20   1.410972 A    
C17   C29   1.404602 A    
C49   C54   1.488870 S    
O5    C3    1.281635 A    
C54   H20   1.109643 S    
C6    O11   1.349892 S    
C2    C16   1.463172 S    
C7    C8    1.388009 A    
C41   C42   1.393520 A    
C40   H11   1.078742 S    
C57   H23   1.110860 S    
C48   H15   1.111935 S    
C43   C44   1.388178 A    
C37   H9    1.083318 S    
C59   H33   1.108797 S    
C14   H3    1.083479 S    
O1    Zn1   1.997679 S    
C9    C10   1.390064 A    
C42   C43   1.426358 A    
O3    Zn1   2.008411 S    
C58   C59   1.537853 S    
C33   C34   1.414967 A    
C45   C46   1.383633 A    
C33   C36   1.413670 A    
C61   H42   1.110265 S    
C46   C47   1.494009 S    
C34   C35   1.413384 A    
C12   C13   1.407275 A    
O3    C2    1.292622 A    
C62   H40   1.111885 S    
C63   H39   1.110500 S    
C4    C17   1.460762 S    
C24   C25   1.420317 A    
C44   C45   1.397626 A    
C56   H25   1.111981 S    
C27   O10   1.350737 S    
C8    C16   1.404346 A    
C18   C33   1.415585 A    
C9    H1    1.081078 S    
O6    C3    1.278008 A    
Zn2   N3    2.006686 S    
C47   H44   1.111708 S    
C7    C11   1.396561 A    
C47   C48   1.510290 S    
C22   C23   1.397670 A    
C37   C40   1.388457 A    
C31   C32   1.397026 A    
C53   H19   1.109984 S    
Zn2   O8    2.008411 S    
C57   H22   1.111117 S    
C38   C39   1.412203 A    
N1    C6    1.366114 A    
N2    C32   1.423159 S    
C51   H17   1.081410 S    
C8    H7    1.080992 S    
C47   H13   1.112379 S    
C25   C26   1.415916 A    
C9    C16   1.404666 A    
O8    C4    1.292955 A    
C55   H28   1.111103 S    
C50   C51   1.417982 A    
C38   C55   1.536319 S    
C43   C61   1.532287 S    
C21   H46   1.078412 S    
N2    C27   1.359988 A    
C14   C36   1.389679 A    
C28   C29   1.387646 A    
N4    C52   1.362454 A    
C58   H34   1.108465 S    
C22   H45   1.083792 S    
C36   H6    1.078561 S    
C5    N1    1.366478 A    
C30   C31   1.390547 A    
C61   H43   1.112660 S    
C10   H2    1.083012 S    
C3    C45   1.410634 S    
C17   C30   1.404852 A    
O2    Zn2   2.001429 S    
C6    C15   1.397725 A    
C53   H18   1.109781 S    
C39   C58   1.529879 S    
C15   C37   1.398648 A    
C29   H4    1.083160 S    
O4    Zn2   2.009679 S    
C7    H8    1.083119 S    
C41   C48   1.497740 S    
C59   C60   1.526684 S    
C19   C35   1.411697 A    
O2    C1    1.276278 A    
C13   C14   1.398336 A    
C44   H12   1.079932 S    
C63   H37   1.110856 S    
C28   H5    1.083051 S    
O4    C2    1.293372 A    
C60   H30   1.110979 S    
C12   C34   1.411455 A    
C18   C20   1.423611 A    
C54   H21   1.111558 S    
C55   C56   1.539257 S    
C58   H35   1.109728 S    
C56   H26   1.108531 S    
C23   C27   1.391777 A    
C53   C54   1.516541 S    
C55   H27   1.106362 S    
Zn2   O6    1.997678 S    
C50   H16   1.081746 S    
C10   C11   1.397345 A    
C26   O12   1.346990 S    
O1    C1    1.289267 A    
C35   C40   1.408201 A    
C5    O9    1.349867 S    
C60   H31   1.110413 S    
