data_mof_unit_44622.cif
_audit_creation_date              2012-12-10T17:29:20-0500
_audit_creation_method            fapswitch 2.2
_symmetry_space_group_name_H-M    P1
_symmetry_Int_Tables_number       1
_space_group_crystal_system       triclinic
_cell_length_a                    12.050283
_cell_length_b                    12.850708
_cell_length_c                    13.323883
_cell_angle_alpha                 86.916502
_cell_angle_beta                  111.225807
_cell_angle_gamma                 92.94389
_cell_volume                      1919.38374037

loop_
_atom_site_label
_atom_site_type_symbol
_atom_type_description
_atom_site_fract_x
_atom_site_fract_y
_atom_site_fract_z
_atom_type_partial_charge
C1    C     C_R   0.477476 0.299809 0.497682 0.892794
C2    C     C_R   0.593765 0.459402 0.822922 -0.116457
C3    C     C_R   0.533649 0.811588 0.497582 -0.062464
C4    C     C_R   0.561992 0.485500 0.706741 0.900893
C5    C     C_R   0.463591 0.188693 0.497199 -0.087223
C6    C     C_R   0.376616 0.030107 0.544650 -0.170620
C7    C     C_R   0.380847 0.137778 0.535967 -0.116440
C8    C     C_R   0.539077 0.133147 0.463343 -0.209160
C9    C     C_R   0.537748 0.026015 0.474316 0.164020
C10   C     C_R   0.455983 0.974241 0.515533 0.149405
C11   C     C_R   0.454904 0.867297 0.527137 -0.199598
C12   C     C_R   0.538757 0.446874 0.982574 0.004855
C13   C     C_R   0.616448 0.862303 0.458686 -0.162781
C14   C     C_R   0.618128 0.969995 0.446550 -0.141716
C15   C     C_R   0.028786 0.625844 0.438336 0.556400
C16   C     C_R   0.522008 0.700272 0.501040 0.914071
C17   C     C_R   0.145830 0.612029 0.443359 0.564463
C18   C     C_R   0.139170 0.436922 0.504902 0.736412
C19   C     C_R   0.022990 0.448955 0.506177 -0.262224
C20   C     C_R   0.967230 0.544949 0.473108 -0.256033
C21   C     C_R   0.852322 0.557638 0.477198 0.079560
C22   C     C_R   0.855770 0.387982 0.557621 -0.095395
C23   C     C_R   0.504961 0.443879 0.869949 -0.053806
C24   C     C_R   0.965115 0.369830 0.546712 0.653641
C25   C     C_R   0.436372 0.503239 0.293699 0.908913
C26   C     C_R   0.263551 0.542659 0.999141 -0.110353
C27   C     C_R   0.400938 0.501564 0.178107 -0.206904
C28   C     C_R   0.714642 0.459973 0.889490 -0.205232
C29   C     C_R   0.749124 0.454163 0.001790 -0.019769
C30   C     C_R   0.661057 0.451551 0.047427 -0.168400
C31   C     C_2   0.240960 0.634409 0.148642 0.960547
C32   C     C_2   0.810873 0.307030 0.617479 1.058068
C33   C     C_2   0.177853 0.494733 0.773105 0.967496
C34   C     C_R   0.448501 0.457993 0.025600 0.027984
C35   C     C_2   0.533417 0.349544 0.192193 0.890631
C36   C     C_2   0.877248 0.457563 0.071720 0.983028
C37   C     C_R   0.335320 0.490767 0.956650 -0.035893
C38   C     C_R   0.299084 0.471861 0.847155 -0.131230
C39   C     C_R   0.381657 0.433448 0.808687 0.591561
C40   C     C_R   0.468689 0.443981 0.134897 -0.059666
C41   C     C_R   0.302110 0.557505 0.109328 -0.060293
F1    F     F_    0.977838 0.719178 0.402785 -0.610966
F2    F     F_    0.019173 0.277943 0.584718 -0.561675
F3    F     F_    0.201892 0.692328 0.409386 -0.612589
F4    F     F_    0.189764 0.342833 0.529635 -0.557680
F5    F     F_    0.341230 0.377915 0.718101 -0.598398
H1    H     H_    0.677073 0.818725 0.435063 0.180733
H2    H     H_    0.392036 0.827319 0.558492 0.190540
H3    H     H_    0.257144 0.754168 0.245470 0.393351
H4    H     H_    0.755044 0.270824 0.740876 0.342608
H5    H     H_    0.001901 0.480836 0.744620 0.336762
H6    H     H_    0.538785 0.192678 0.197401 0.346881
H7    H     H_    0.000277 0.463121 0.222380 0.345495
H8    H     H_    0.313541 0.990823 0.576019 0.182000
H9    H     H_    0.681384 0.009240 0.415379 0.177461
H10   H     H_    0.322506 0.181007 0.562630 0.254659
H11   H     H_    0.600605 0.173454 0.430671 0.193723
H12   H     H_    0.806361 0.629422 0.446960 0.182375
H13   H     H_    0.182845 0.578943 0.946473 0.188004
H14   H     H_    0.782537 0.469857 0.853967 0.229894
H15   H     H_    0.689019 0.459788 0.133251 0.205876
N1    N     N_R   0.798200 0.480260 0.519790 -0.167281
N2    N     N_R   0.201820 0.519740 0.480210 -0.238816
O1    O     O_R   0.579910 0.341070 0.505280 -0.627905
O2    O     O_R   0.307822 0.701459 0.229670 -0.778945
O3    O     O_2   0.804243 0.215797 0.593448 -0.588088
O4    O     O_R   0.783557 0.333287 0.705822 -0.786712
O5    O     O_2   0.164376 0.559420 0.699519 -0.675541
O6    O     O_R   0.079557 0.449991 0.793461 -0.743549
O7    O     O_2   0.627125 0.356875 0.269042 -0.608901
O8    O     O_R   0.487806 0.251371 0.153524 -0.763691
O9    O     O_2   0.954097 0.457340 0.031825 -0.571406
O10   O     O_R   0.910639 0.460553 0.183683 -0.795926
O11   O     O_R   0.388440 0.353740 0.492580 -0.545573
O12   O     O_R   0.643280 0.490550 0.663120 -0.590923
O13   O     O_R   0.451810 0.503220 0.650420 -0.567721
O14   O     O_R   0.611560 0.646260 0.507420 -0.646742
O15   O     O_R   0.420090 0.658930 0.494720 -0.544394
O16   O     O_R   0.548190 0.496780 0.349580 -0.585566
O17   O     O_R   0.356720 0.509450 0.336880 -0.595410
O18   O     O_2   0.133012 0.642583 0.106862 -0.571656
Zn1   Zn    Zn3+2 0.627850 0.491540 0.508480 1.011220
Zn2   Zn    Zn3+2 0.372150 0.508460 0.491520 1.101387

loop_
_geom_bond_atom_site_label_1
_geom_bond_atom_site_label_2
_ccdc_geom_bond_type
C1    O1    A    
C34   C37   A    
C19   C20   A    
O11   Zn2   S    
C29   C36   S    
C29   C30   A    
H3    O2    S    
C1    C5    S    
C1    O11   A    
C32   O3    D    
C28   C29   A    
C18   C19   A    
C38   C39   A    
C18   N2    A    
C25   O17   A    
C31   O2    S    
C16   O14   A    
C4    O12   A    
O15   Zn2   S    
C35   O7    D    
C8    C9    A    
C26   H13   S    
C3    C13   A    
C33   O6    S    
C14   H9    S    
N1    Zn1   S    
C35   O8    S    
C13   C14   A    
C11   H2    S    
C7    H10   S    
C6    H8    S    
O17   Zn2   S    
O13   Zn2   S    
C28   H14   S    
C15   C20   A    
C36   O10   S    
C5    C7    A    
H4    O4    S    
N2    Zn2   S    
C2    C4    S    
C9    C14   A    
C37   C38   A    
C8    H11   S    
C22   N1    A    
C27   C41   A    
C12   C23   A    
C27   C40   A    
C26   C37   A    
O1    Zn1   S    
C21   N1    A    
C22   C32   S    
C39   F5    S    
C32   O4    S    
C22   C24   A    
C5    C8    A    
C12   C34   A    
C18   F4    S    
C13   H1    S    
C9    C10   A    
C15   C17   A    
C31   C41   S    
C12   C30   A    
C25   O16   A    
H7    O10   S    
C15   F1    S    
C6    C10   A    
O16   Zn1   S    
O12   Zn1   S    
C6    C7    A    
C25   C27   S    
C33   C38   S    
C31   O18   D    
C19   C24   A    
C17   F3    S    
C21   H12   S    
H6    O8    S    
C17   N2    A    
O14   Zn1   S    
C23   C39   A    
C35   C40   S    
C16   O15   A    
C4    O13   A    
C3    C11   A    
C10   C11   A    
C20   C21   A    
C33   O5    D    
C30   H15   S    
C2    C23   A    
C24   F2    S    
C34   C40   A    
C2    C28   A    
H5    O6    S    
C3    C16   S    
C36   O9    D    
C26   C41   A    
