data_mof_unit_17059.cif
_audit_creation_date              2012-12-11T15:57:29-0500
_audit_creation_method            fapswitch 2.2
_symmetry_space_group_name_H-M    P1
_symmetry_Int_Tables_number       1
_space_group_crystal_system       triclinic
_cell_length_a                    10.713625
_cell_length_b                    10.759675
_cell_length_c                    17.014557
_cell_angle_alpha                 99.783585
_cell_angle_beta                  100.042638
_cell_angle_gamma                 61.537755
_cell_volume                      1689.3087398

loop_
_atom_site_label
_atom_site_type_symbol
_atom_type_description
_atom_site_fract_x
_atom_site_fract_y
_atom_site_fract_z
_atom_type_partial_charge
C1    C     C_R   0.352953 0.778834 0.403387 0.562438
C2    C     C_2   0.336454 0.354003 0.835504 -0.153473
C3    C     C_2   0.459337 0.277947 0.803890 -0.141689
C4    C     C_R   0.407249 0.374691 0.356396 0.563475
C5    C     C_2   0.472770 0.277899 0.720281 0.227947
C6    C     C_1   0.818316 0.342246 0.708680 -0.003049
C7    C     C_1   0.844756 0.313369 0.776261 -0.002203
C8    C     C_1   0.358878 0.763868 0.713728 -0.042668
C9    C     C_1   0.325459 0.811098 0.780446 -0.046341
C10   C     C_R   0.890217 0.308753 0.084504 0.555137
C11   C     C_R   0.322403 0.302631 0.118721 0.553717
C12   C     C_2   0.810218 0.332791 0.150595 0.308758
C13   C     C_R   0.265666 0.944552 0.095798 0.585847
C14   C     C_R   0.885280 0.296968 0.858598 0.549303
C15   C     C_R   0.309104 0.296531 0.897094 0.547351
C16   C     C_R   0.776672 0.377843 0.405058 0.547255
C17   C     C_R   0.280201 0.880948 0.857148 0.554269
C18   C     C_R   0.381599 0.714158 0.631524 0.565861
C19   C     C_R   0.375489 0.350628 0.586538 0.575540
C20   C     C_R   0.773694 0.381046 0.629614 0.549389
C21   C     C_1   0.378381 0.362546 0.271610 -0.057396
C22   C     C_1   0.352217 0.344080 0.200553 -0.052031
C23   C     C_2   0.856443 0.222228 0.194946 -0.154450
C24   C     C_2   0.843269 0.341765 0.331760 0.264526
C25   C     C_3   0.665314 0.064090 0.690858 0.014296
C26   C     C_3   0.799974 0.994628 0.648334 -0.337274
C27   C     C_3   0.573413 0.480651 0.165449 -0.017362
C28   C     C_3   0.498585 0.517563 0.081586 -0.381335
C29   C     C_3   0.001747 0.414061 0.305078 0.010947
C30   C     C_3   0.001964 0.538330 0.273483 -0.325908
C31   C     C_3   0.570114 0.991353 0.222868 -0.050572
C32   C     C_3   0.656547 0.780843 0.360747 0.037202
C33   C     C_3   0.755340 0.777342 0.437515 -0.316563
C34   C     C_2   0.834843 0.237345 0.278946 -0.147708
C35   C     C_2   0.320924 0.864230 0.338141 -0.109235
C36   C     C_2   0.315781 0.888229 0.173148 -0.121647
C37   C     C_2   0.390505 0.936141 0.231662 0.239572
C38   C     C_2   0.418093 0.890895 0.313447 0.234517
C39   C     C_2   0.356188 0.337623 0.666136 -0.080651
Cr1   Cr    Cr6+3 0.608020 0.610770 0.522990 0.995912
Cr2   Cr    Cr6+3 0.289390 0.599570 0.488050 0.991576
Cr3   Cr    Cr6+3 0.602610 0.289690 0.489020 1.019268
Cr4   Cr    Cr6+3 0.053780 0.052210 0.965970 1.008862
Cr5   Cr    Cr6+3 0.060060 0.372530 0.992430 1.020352
Cr6   Cr    Cr6+3 0.372600 0.061970 0.991430 1.027791
H1    H     H_    0.927801 0.114786 0.172044 0.100936
H2    H     H_    0.881445 0.024464 0.682796 0.163086
H3    H     H_    0.844402 0.877243 0.643209 0.086756
H4    H     H_    0.774907 0.029071 0.587134 0.169118
H5    H     H_    0.510562 0.567501 0.209763 0.135085
H6    H     H_    0.573624 0.382817 0.178696 0.117606
H7    H     H_    0.554234 0.428677 0.036172 0.139238
H8    H     H_    0.386477 0.536531 0.077980 0.111464
H9    H     H_    0.498394 0.615113 0.068158 0.178935
H10   H     H_    0.060799 0.398969 0.366217 0.148607
H11   H     H_    0.054965 0.316351 0.263915 0.142493
H12   H     H_    0.247853 0.444199 0.808455 0.104389
H13   H     H_    0.968547 0.632094 0.318746 0.119525
H14   H     H_    0.108411 0.511917 0.259612 0.124403
H15   H     H_    0.927662 0.567184 0.217659 0.193353
H16   H     H_    0.626203 0.880483 0.194287 0.097427
H17   H     H_    0.614330 0.005927 0.285587 0.162095
H18   H     H_    0.593836 0.057058 0.190539 0.137101
H19   H     H_    0.708763 0.780807 0.310367 0.102542
H20   H     H_    0.644921 0.682246 0.348864 0.213140
H21   H     H_    0.704487 0.782837 0.490418 0.174690
H22   H     H_    0.857702 0.677994 0.435566 0.124449
H23   H     H_    0.247735 0.388149 0.681720 0.046594
H24   H     H_    0.777961 0.869438 0.444489 0.109284
H25   H     H_    0.816601 0.156612 0.298205 0.089816
H26   H     H_    0.287922 0.807550 0.182604 0.034185
H27   H     H_    0.218877 0.888882 0.302492 0.044716
H28   H     H_    0.550133 0.198633 0.837379 0.152192
H29   H     H_    0.587238 0.029890 0.655074 0.142608
H30   H     H_    0.694307 0.024467 0.750960 0.121474
O1    O     O_R   0.749250 0.499990 0.439200 -0.518043
O2    O     O_R   0.411120 0.181190 0.091480 -0.502069
O3    O     O_R   0.364220 0.944920 0.062310 -0.467035
O4    O     O_R   0.477870 0.725740 0.440280 -0.481206
O5    O     O_R   0.158740 0.906940 0.874970 -0.506326
O6    O     O_R   0.930920 0.176940 0.885610 -0.496697
O7    O     O_R   0.910730 0.394510 0.895320 -0.514074
O8    O     O_R   0.185840 0.361180 0.920280 -0.495358
O9    O     O_R   0.399210 0.173040 0.915160 -0.521266
O10   O     O_R   0.353170 0.937370 0.898860 -0.492243
O11   O     O_3   0.162150 0.162240 0.983280 -0.261599
O12   O     O_R   0.299400 0.468710 0.556310 -0.518975
O13   O     O_R   0.260770 0.742210 0.412610 -0.531141
O14   O     O_R   0.297990 0.466320 0.394220 -0.511701
O15   O     O_R   0.487720 0.253870 0.385870 -0.475576
O16   O     O_R   0.721940 0.304340 0.422320 -0.550310
O17   O     O_R   0.750770 0.502570 0.614050 -0.526723
O18   O     O_R   0.479280 0.728140 0.602370 -0.493213
O19   O     O_R   0.262290 0.744790 0.587460 -0.510044
O20   O     O_3   0.610580 0.213612 0.698187 -0.532276
O21   O     O_3   0.711295 0.470726 0.173626 -0.525033
O22   O     O_3   0.858172 0.449993 0.307423 -0.548118
O23   O     O_R   0.489240 0.256450 0.560730 -0.456712
O24   O     O_3   0.420937 0.042207 0.218155 -0.530456
O25   O     O_3   0.524175 0.903963 0.368534 -0.539228
O26   O     O_R   0.723350 0.306730 0.584410 -0.476917
O27   O     O_3   0.500010 0.500010 0.500020 -0.290725
O28   O     O_R   0.170650 0.915100 0.051290 -0.530353
O29   O     O_R   0.941960 0.184500 0.049060 -0.549837
O30   O     O_R   0.922640 0.402670 0.071640 -0.495542
O31   O     O_R   0.196880 0.368740 0.083740 -0.508057

loop_
_geom_bond_atom_site_label_1
_geom_bond_atom_site_label_2
_ccdc_geom_bond_type
Cr2   O14   S    
C39   H23   S    
C31   H16   S    
Cr1   O18   S    
Cr5   O8    S    
C2    H12   S    
Cr5   O30   S    
C20   O17   A    
C12   C23   D    
C1    C35   S    
C29   C30   S    
C17   O10   A    
C36   C37   D    
C25   H29   S    
Cr5   O7    S    
Cr3   O23   S    
C10   C12   S    
Cr2   O27   S    
Cr3   O16   S    
Cr4   O29   S    
C11   O2    A    
C7    C14   S    
C8    C9    T    
C30   H15   S    
Cr6   O3    S    
C31   O24   S    
C13   O28   A    
C34   H25   S    
C27   H5    S    
C26   H3    S    
C1    O13   A    
C16   C24   S    
C23   H1    S    
C21   C22   T    
C31   H17   S    
C27   O21   S    
Cr5   O11   S    
Cr3   O27   S    
C5    O20   S    
C19   O23   A    
C27   H6    S    
C33   H21   S    
C4    O15   A    
Cr2   O12   S    
C24   O22   S    
C31   H18   S    
C35   C38   D    
C32   H19   S    
C13   C36   S    
C38   O25   S    
C26   H4    S    
C28   H9    S    
C15   O8    A    
C20   O26   A    
C29   H10   S    
C25   C26   S    
C17   O5    A    
C24   C34   D    
Cr1   O1    S    
Cr3   O15   S    
Cr6   O10   S    
C37   C38   S    
Cr2   O19   S    
C23   C34   S    
C30   H14   S    
C11   O31   A    
C8    C18   S    
Cr1   O4    S    
Cr1   O17   S    
C2    C15   S    
C15   O9    A    
C19   C39   S    
C26   H2    S    
C9    C17   S    
C35   H27   S    
C25   O20   S    
Cr5   O31   S    
C5    C39   D    
C1    O4    A    
Cr6   O9    S    
C14   O7    A    
Cr3   O26   S    
C37   O24   S    
C33   H22   S    
C4    O14   A    
Cr2   O13   S    
C13   O3    A    
Cr4   O6    S    
C16   O1    A    
Cr4   O11   S    
C3    C5    S    
C28   H8    S    
C36   H26   S    
C6    C7    T    
C29   H11   S    
C33   H24   S    
C6    C20   S    
C11   C22   S    
C19   O12   A    
C29   O22   S    
C32   C33   S    
C10   O29   A    
C2    C3    D    
Cr4   O5    S    
C4    C21   S    
C28   H7    S    
C18   O19   A    
C30   H13   S    
Cr6   O11   S    
C3    H28   S    
Cr4   O28   S    
Cr1   O27   S    
C32   O25   S    
C16   O16   A    
C27   C28   S    
C18   O18   A    
C12   O21   S    
C10   O30   A    
Cr6   O2    S    
C14   O6    A    
C25   H30   S    
C32   H20   S    
