data_mof_unit_11447.cif
_audit_creation_date              2013-03-05T15:58:17-0500
_audit_creation_method            fapswitch 2.2
_symmetry_space_group_name_H-M    P1
_symmetry_Int_Tables_number       1
_space_group_crystal_system       triclinic
_cell_length_a                    12.619557
_cell_length_b                    13.147225
_cell_length_c                    15.400456
_cell_angle_alpha                 83.938862
_cell_angle_beta                  100.118589
_cell_angle_gamma                 96.739182
_cell_volume                      2488.54805298

loop_
_atom_site_label
_atom_site_type_symbol
_atom_site_description
_atom_site_fract_x
_atom_site_fract_y
_atom_site_fract_z
_atom_type_partial_charge
O1    O     O_R   0.374950 0.371210 0.521360 -0.589194
O2    O     O_R   0.542050 0.338030 0.492790 -0.593309
C1    C     C_R   0.442356 0.309344 0.506268 0.890605
O3    O     O_R   0.368720 0.526070 0.390200 -0.580506
O4    O     O_R   0.535820 0.492890 0.361630 -0.541467
C2    C     C_R   0.433692 0.513447 0.335518 0.927505
Zn1   Zn    Zn3+2 0.388420 0.522150 0.519080 1.109029
Zn2   Zn    Zn3+2 0.611580 0.477850 0.480920 1.065806
O5    O     O_R   0.457950 0.661970 0.507210 -0.559982
O6    O     O_R   0.625050 0.628790 0.478640 -0.641853
O7    O     O_R   0.464180 0.507110 0.638370 -0.564469
O8    O     O_R   0.631280 0.473930 0.609800 -0.594997
C3    C     C_R   0.555811 0.691379 0.489182 0.932643
C4    C     C_R   0.565425 0.486066 0.664451 0.918420
C5    C     C_R   0.386125 0.517494 0.240587 -0.252887
C6    C     C_R   0.607224 0.487974 0.759492 -0.139910
C7    C     C_R   0.238883 0.459159 0.127567 -0.089551
C8    C     C_R   0.275291 0.483895 0.213963 0.264046
C9    C     C_R   0.452415 0.546908 0.175649 0.273831
C10   C     C_R   0.410260 0.531392 0.085520 -0.027807
C11   C     C_R   0.307734 0.475673 0.064481 -0.113057
C12   C     C_R   0.469232 0.565499 0.016323 0.011754
C13   C     C_R   0.447541 0.515729 0.937146 -0.032839
C14   C     C_R   0.344556 0.456560 0.917444 0.218698
C15   C     C_R   0.273876 0.441263 0.979779 0.249234
C16   C     C_R   0.544200 0.653117 0.021798 -0.112732
C17   C     C_R   0.618819 0.674370 0.964426 0.321995
C18   C     C_R   0.622058 0.603540 0.902438 -0.109132
C19   C     C_R   0.531469 0.528238 0.884063 0.071400
C20   C     C_R   0.714362 0.602945 0.860842 0.224579
C21   C     C_R   0.708167 0.540046 0.790529 0.150823
C22   C     C_R   0.530401 0.467526 0.814687 -0.107837
H1    H     H_    0.468406 0.406986 0.796977 0.220547
H2    H     H_    0.155366 0.428177 0.110152 0.234860
H3    H     H_    0.543146 0.707198 0.069881 0.210329
C23   C     C_R   0.718002 0.930424 0.558029 0.349198
C24   C     C_R   0.591437 0.800386 0.487097 -0.154883
C25   C     C_R   0.315926 0.195082 0.416251 -0.193439
C26   C     C_R   0.310942 0.117048 0.360477 0.321718
C27   C     C_R   0.390027 0.048212 0.379746 -0.094736
C28   C     C_R   0.463742 0.046565 0.460453 0.075597
C29   C     C_R   0.468880 0.126727 0.515442 -0.019314
C30   C     C_R   0.537428 0.971463 0.485209 -0.046296
C31   C     C_R   0.633100 0.994478 0.547610 -0.134817
C32   C     C_R   0.636075 0.073336 0.604008 0.222189
C33   C     C_R   0.548405 0.132740 0.592678 0.212468
C34   C     C_R   0.516176 0.871354 0.455814 0.292070
C35   C     C_R   0.694945 0.832116 0.529749 -0.279159
C36   C     C_R   0.400414 0.205012 0.488058 -0.057318
H4    H     H_    0.263875 0.256289 0.396600 0.216225
C37   C     C_R   0.141119 0.654225 0.615461 0.165177
N1    N     N_R   0.239390 0.551900 0.544730 -0.180295
C38   C     C_R   0.758985 0.367055 0.406826 0.416399
C39   C     C_R   0.853135 0.320966 0.409155 -0.242066
C40   C     C_R   0.949592 0.359978 0.458231 0.262944
C41   C     C_R   0.952875 0.454927 0.495622 -0.047733
C42   C     C_R   0.853583 0.492120 0.500385 0.155337
C43   C     C_R   0.049337 0.513804 0.529165 0.009627
C44   C     C_R   0.045394 0.597454 0.579684 -0.005722
C45   C     C_R   0.945868 0.622740 0.593350 -0.073554
C46   C     C_R   0.851560 0.570926 0.553788 -0.091694
C47   C     C_R   0.149034 0.497383 0.508571 0.040988
C48   C     C_R   0.238876 0.628690 0.598145 0.412076
N2    N     N_R   0.759950 0.448600 0.455730 -0.180467
H5    H     H_    0.157192 0.444143 0.462158 0.191878
N3    N     N_R   0.168626 0.386793 0.957186 0.236717
O9    O     O_R   0.099360 0.423159 0.891836 -0.213211
O10   O     O_R   0.145056 0.297084 0.997511 -0.252913
N4    N     N_R   0.815315 0.658417 0.894938 0.266028
O11   O     O_R   0.862003 0.636399 0.975946 -0.257080
O12   O     O_R   0.856835 0.735548 0.847291 -0.210279
H6    H     H_    0.755635 0.778341 0.546507 0.183706
N5    N     N_R   0.716656 0.080463 0.682013 0.258197
O13   O     O_R   0.789304 0.159352 0.688839 -0.198408
O14   O     O_R   0.719466 0.006386 0.745189 -0.232244
N6    N     N_R   0.826912 0.963721 0.596672 0.254479
O15   O     O_R   0.871857 0.053014 0.569916 -0.261086
O16   O     O_R   0.886685 0.899274 0.646985 -0.257236
N7    N     N_R   0.414465 0.835685 0.404145 0.195462
O17   O     O_R   0.413603 0.788005 0.334085 -0.334456
O18   O     O_R   0.323596 0.840775 0.431637 -0.299559
H7    H     H_    0.395838 0.999128 0.329319 0.210955
N8    N     N_R   0.231599 0.112465 0.280966 0.241473
O19   O     O_R   0.158815 0.177331 0.262369 -0.256213
O20   O     O_R   0.229000 0.041135 0.227874 -0.264444
N9    N     N_R   0.535057 0.193234 0.662146 0.199737
O21   O     O_R   0.440850 0.190165 0.686288 -0.299628
O22   O     O_R   0.615592 0.252194 0.700901 -0.299946
N10   N     N_R   0.337385 0.687084 0.633313 0.241721
O23   O     O_R   0.392576 0.654232 0.708297 -0.330584
O24   O     O_R   0.351675 0.784436 0.607755 -0.303522
H8    H     H_    0.939625 0.684001 0.633328 0.223291
N11   N     N_R   0.140003 0.737526 0.668374 0.244042
O25   O     O_R   0.100107 0.821702 0.632060 -0.250886
O26   O     O_R   0.190314 0.734161 0.749790 -0.225953
N12   N     N_R   0.660117 0.318974 0.361775 0.231594
O27   O     O_R   0.632367 0.222520 0.383780 -0.407335
O28   O     O_R   0.620386 0.357859 0.283404 -0.309950
N13   N     N_R   0.035754 0.294412 0.480874 0.214365
O29   O     O_R   0.050607 0.231614 0.425213 -0.289827
O30   O     O_R   0.086071 0.283767 0.562170 -0.268592
H9    H     H_    0.849023 0.250165 0.377972 0.240561
H10   H     H_    0.778226 0.592338 0.568186 0.183342
N14   N     N_R   0.803530 0.516776 0.759354 0.216900
O31   O     O_R   0.803471 0.428632 0.727976 -0.256293
O32   O     O_R   0.895915 0.571665 0.777466 -0.292629
N15   N     N_R   0.686064 0.770308 0.967134 0.244789
O33   O     O_R   0.725884 0.806772 0.042737 -0.243922
O34   O     O_R   0.690007 0.829971 0.894550 -0.243209
N16   N     N_R   0.198051 0.474413 0.273147 0.204380
O35   O     O_R   0.173059 0.557297 0.300760 -0.312797
O36   O     O_R   0.133255 0.390394 0.279403 -0.336528
N17   N     N_R   0.563530 0.586136 0.202507 0.213114
O37   O     O_R   0.641631 0.543222 0.180438 -0.292672
O38   O     O_R   0.586721 0.665557 0.248730 -0.330978
N18   N     N_R   0.304177 0.419329 0.832626 0.208210
O39   O     O_R   0.270619 0.483215 0.766028 -0.322165
O40   O     O_R   0.280227 0.321068 0.826331 -0.245492

loop_
_geom_bond_atom_site_label_1
_geom_bond_atom_site_label_2
_geom_bond_distance
_ccdc_geom_bond_type
C43   C47   1.395893 A    
C5    C8    1.418206 A    
N3    O10   1.301185 A    
C40   C41   1.422284 A    
N11   O25   1.300809 A    
N5    O14   1.300861 A    
C28   C29   1.408984 A    
C9    C10   1.423406 A    
C34   N7    1.441957 S    
N14   O32   1.299463 A    
C1    C36   1.448779 S    
C25   C36   1.400109 A    
C38   C39   1.389068 A    
C41   C42   1.413580 A    
C6    C21   1.403687 A    
Zn1   O7    1.917986 S    
C16   C17   1.387054 A    
C13   C19   1.432508 A    
C18   C19   1.430726 A    
C46   H10   1.063632 S    
N6    O16   1.301258 A    
Zn1   N1    2.076619 S    
C19   C22   1.396911 A    
C29   C33   1.417752 A    
C20   C21   1.416589 A    
O7    C4    1.322678 A    
N9    O22   1.299868 A    
C9    N17   1.440428 S    
Zn2   N2    2.063939 S    
N18   O39   1.298340 A    
C32   N5    1.434635 S    
N5    O13   1.301265 A    
N4    O12   1.301742 A    
O5    C3    1.318119 A    
N16   O35   1.301310 A    
C23   N6    1.435682 S    
C2    C5    1.477582 S    
N13   O29   1.301464 A    
N18   O40   1.301605 A    
N12   O28   1.298714 A    
C13   C14   1.435346 A    
N10   O24   1.300005 A    
C3    C24   1.449552 S    
C24   C34   1.398919 A    
N3    O9    1.301113 A    
C44   C45   1.392096 A    
N11   O26   1.300900 A    
C38   N12   1.428639 S    
C28   C30   1.412939 A    
C35   H6    1.082649 S    
O3    Zn1   1.952424 S    
N14   O31   1.301683 A    
N15   O34   1.300963 A    
C45   H8    1.081955 S    
C25   C26   1.395074 A    
C27   H7    1.077895 S    
C37   C48   1.391909 A    
C14   C15   1.405560 A    
O3    C2    1.308835 A    
C26   C27   1.397980 A    
N7    O18   1.301269 A    
N9    O21   1.301575 A    
C43   C44   1.422822 A    
C32   C33   1.403784 A    
N1    C48   1.369226 A    
C7    C11   1.397767 A    
C45   C46   1.376309 A    
O1    C1    1.308034 A    
C5    C9    1.409212 A    
C30   C31   1.428551 A    
N8    O19   1.301069 A    
C17   N15   1.435356 S    
Zn2   O8    1.952424 S    
N12   O27   1.300878 A    
C48   N10   1.433648 S    
C7    C8    1.388769 A    
N6    O15   1.301286 A    
C24   C35   1.392916 A    
C37   N11   1.435191 S    
C27   C28   1.415439 A    
N13   O30   1.301841 A    
C10   C12   1.410672 A    
C14   N18   1.431127 S    
C4    C6    1.467846 S    
C23   C31   1.416226 A    
C37   C44   1.400470 A    
C7    H2    1.082429 S    
N15   O33   1.301434 A    
C20   N4    1.434719 S    
C31   C32   1.414305 A    
C42   N2    1.354776 A    
N17   O37   1.301501 A    
Zn1   O5    1.946610 S    
C11   C15   1.404369 A    
C39   C40   1.388538 A    
C47   H5    1.076976 S    
N8    O20   1.301667 A    
O1    Zn1   1.968845 S    
C39   H9    1.083554 S    
O2    Zn2   1.946611 S    
C15   N3    1.437014 S    
C8    N16   1.433896 S    
O8    C4    1.315205 A    
O6    C3    1.309104 A    
O4    Zn2   1.917986 S    
C42   C46   1.394281 A    
C25   H4    1.083228 S    
C6    C22   1.383767 A    
C22   H1    1.069902 S    
C18   C20   1.425701 A    
O2    C1    1.316045 A    
C26   N8    1.440911 S    
N1    C47   1.339165 A    
C21   N14   1.446645 S    
O4    C2    1.331342 A    
C38   N2    1.371493 A    
C41   C43   1.410742 A    
C23   C35   1.389570 A    
N4    O11   1.301090 A    
N16   O36   1.300504 A    
C29   C36   1.404530 A    
N7    O17   1.301670 A    
C16   H3    1.082090 S    
C10   C11   1.412797 A    
Zn2   O6    1.968844 S    
C12   C16   1.402068 A    
C40   N13   1.438828 S    
C17   C18   1.410865 A    
C12   C13   1.413900 A    
C33   N9    1.442209 S    
N10   O23   1.299164 A    
C30   C34   1.417546 A    
N17   O38   1.301812 A    
