data_mof_unit_53084.cif
_audit_creation_date              2012-12-11T15:17:58-0500
_audit_creation_method            fapswitch 2.2
_symmetry_space_group_name_H-M    P1
_symmetry_Int_Tables_number       1
_space_group_crystal_system       triclinic
_cell_length_a                    15.696407
_cell_length_b                    15.660159
_cell_length_c                    34.638215
_cell_angle_alpha                 90.065643
_cell_angle_beta                  89.964528
_cell_angle_gamma                 119.724648
_cell_volume                      7394.01963551

loop_
_atom_site_label
_atom_site_type_symbol
_atom_type_description
_atom_site_fract_x
_atom_site_fract_y
_atom_site_fract_z
_atom_type_partial_charge
C1    C     C_R   0.579300 0.441084 0.555435 0.594245
C2    C     C_R   0.558546 0.137564 0.555202 0.590701
C3    C     C_R   0.819627 0.396675 0.560208 0.548887
C4    C     C_R   0.441040 0.579260 0.055418 0.598512
C5    C     C_R   0.138005 0.558959 0.055411 0.599499
C6    C     C_R   0.420909 0.862364 0.055310 0.596735
C7    C     C_R   0.920193 0.453752 0.720848 0.405383
C8    C     C_R   0.508923 0.459831 0.716422 0.402529
C9    C     C_R   0.517952 0.031355 0.714408 0.383452
C10   C     C_R   0.490782 0.956454 0.215700 0.389267
C11   C     C_R   0.464239 0.512511 0.216377 0.400371
C12   C     C_R   0.046677 0.533763 0.216288 0.390382
C13   C     C_R   0.992155 0.422124 0.857849 0.206404
C14   C     C_R   0.558997 0.573234 0.851572 0.208250
C15   C     C_R   0.418048 0.981119 0.851835 0.188335
C16   C     C_R   0.438561 0.013167 0.351997 0.193932
C17   C     C_R   0.575348 0.562677 0.352261 0.205542
C18   C     C_R   0.987245 0.423698 0.352360 0.206024
C19   C     C_R   0.035813 0.442809 0.894078 -0.097981
C20   C     C_R   0.545858 0.597994 0.888797 -0.102200
C21   C     C_R   0.399333 0.948754 0.889833 -0.102509
C22   C     C_R   0.452470 0.050350 0.389374 -0.101315
C23   C     C_R   0.598626 0.548290 0.389523 -0.101212
C24   C     C_R   0.949897 0.400874 0.389658 -0.100024
C25   C     C_R   0.053827 0.606371 0.892863 -0.050060
C26   C     C_R   0.394301 0.441992 0.895280 -0.040948
C27   C     C_R   0.550200 0.940706 0.892114 -0.048638
C28   C     C_R   0.607579 0.051323 0.394024 -0.047802
C29   C     C_R   0.444347 0.394313 0.394425 -0.048045
C30   C     C_R   0.948793 0.555357 0.394219 -0.047960
C31   C     C_R   0.007114 0.585648 0.856439 0.193245
C32   C     C_R   0.406261 0.415511 0.857429 0.190480
C33   C     C_R   0.571932 0.976268 0.853812 0.199715
C34   C     C_R   0.594258 0.012578 0.356177 0.195493
C35   C     C_R   0.419030 0.408002 0.356638 0.192361
C36   C     C_R   0.988046 0.580480 0.356489 0.190610
C37   C     C_R   0.981490 0.495126 0.838216 -0.003222
C38   C     C_R   0.486766 0.483983 0.835058 -0.009169
C39   C     C_R   0.502456 0.990934 0.833205 -0.006178
C40   C     C_R   0.511885 0.998815 0.334591 -0.005242
C41   C     C_R   0.487535 0.490176 0.335022 -0.003939
C42   C     C_R   0.002043 0.511542 0.334991 -0.004631
C43   C     C_R   0.071933 0.535628 0.911008 -0.083422
C44   C     C_R   0.461919 0.536306 0.910180 -0.083886
C45   C     C_R   0.460724 0.922449 0.909512 -0.082122
C46   C     C_R   0.538433 0.075111 0.409914 -0.082689
C47   C     C_R   0.537247 0.462601 0.410129 -0.083383
C48   C     C_R   0.925044 0.462529 0.410102 -0.083176
C49   C     C_R   0.577449 0.442050 0.445476 0.564015
C50   C     C_R   0.558236 0.135419 0.445406 0.565114
C51   C     C_R   0.864645 0.422574 0.445467 0.574442
C52   C     C_R   0.441945 0.577208 0.945505 0.562076
C53   C     C_R   0.135576 0.558124 0.945444 0.563705
C54   C     C_R   0.422363 0.864387 0.945434 0.563484
C55   C     C_R   0.854542 0.417072 0.600404 -0.041488
C56   C     C_R   0.554733 0.457132 0.594897 -0.031476
C57   C     C_R   0.538729 0.093231 0.593965 -0.033439
C58   C     C_R   0.446504 0.905891 0.094325 -0.024688
C59   C     C_R   0.457603 0.555153 0.094851 -0.031666
C60   C     C_R   0.097083 0.542215 0.094802 -0.032061
C61   C     C_R   0.825561 0.334369 0.623993 -0.145617
C62   C     C_R   0.634069 0.513560 0.619640 -0.144428
C63   C     C_R   0.476689 0.111513 0.617647 -0.138236
C64   C     C_R   0.367900 0.889611 0.118525 -0.148196
C65   C     C_R   0.515668 0.635164 0.119176 -0.137922
C66   C     C_R   0.117600 0.482434 0.118894 -0.138511
C67   C     C_R   0.850430 0.343965 0.662991 0.247442
C68   C     C_R   0.621094 0.517549 0.659188 0.235309
C69   C     C_R   0.464619 0.087479 0.656530 0.172809
C70   C     C_R   0.380821 0.908463 0.157958 0.173350
C71   C     C_R   0.521044 0.623190 0.158689 0.234776
C72   C     C_R   0.099685 0.476307 0.158373 0.232445
C73   C     C_R   0.899931 0.438611 0.679452 -0.004190
C74   C     C_R   0.525829 0.463395 0.674733 -0.012170
C75   C     C_R   0.516865 0.044605 0.672677 -0.026553
C76   C     C_R   0.475115 0.944624 0.173933 -0.013878
C77   C     C_R   0.466781 0.528245 0.174649 -0.010781
C78   C     C_R   0.059653 0.531345 0.174533 -0.037226
C79   C     C_R   0.931644 0.521598 0.655981 -0.086070
C80   C     C_R   0.445328 0.411586 0.650050 -0.095807
C81   C     C_R   0.573379 0.019332 0.648801 -0.077262
C82   C     C_R   0.555385 0.968201 0.149671 -0.085205
C83   C     C_R   0.413428 0.446981 0.150358 -0.093647
C84   C     C_R   0.033081 0.586376 0.150459 -0.119301
C85   C     C_R   0.912042 0.512673 0.616378 0.242087
C86   C     C_R   0.458571 0.407772 0.610166 0.230690
C87   C     C_R   0.584947 0.043159 0.609386 0.229793
C88   C     C_R   0.542333 0.949597 0.109873 0.232755
C89   C     C_R   0.408139 0.459236 0.110488 0.230697
C90   C     C_R   0.051386 0.592593 0.110628 0.227880
C91   C     C_R   0.958156 0.482328 0.797145 0.428710
C92   C     C_R   0.490287 0.469259 0.793558 0.418065
C93   C     C_R   0.512222 0.006672 0.791590 0.425086
C94   C     C_R   0.507797 0.981894 0.292972 0.426069
C95   C     C_R   0.474326 0.494822 0.293505 0.429069
C96   C     C_R   0.019559 0.524286 0.293449 0.430395
Cr1   Cr    Cr6+3 0.522350 0.263930 0.500020 1.123379
Cr2   Cr    Cr6+3 0.736070 0.258420 0.500020 1.128332
Cr3   Cr    Cr6+3 0.741580 0.477650 0.500020 1.119338
Cr4   Cr    Cr6+3 0.263930 0.522350 0.000020 1.129620
Cr5   Cr    Cr6+3 0.258420 0.736070 0.000020 1.128169
Cr6   Cr    Cr6+3 0.477650 0.741580 0.000020 1.129676
H1    H     H_    0.783266 0.261435 0.611718 0.185875
H2    H     H_    0.708003 0.551191 0.608348 0.218041
H3    H     H_    0.440210 0.149314 0.606211 0.211304
H4    H     H_    0.294211 0.856688 0.107012 0.209397
H5    H     H_    0.553609 0.709038 0.107612 0.211697
H6    H     H_    0.152886 0.443687 0.107199 0.211854
H7    H     H_    0.046915 0.387577 0.908284 0.217610
H8    H     H_    0.598911 0.669043 0.900321 0.215602
H9    H     H_    0.332252 0.937282 0.903310 0.217806
H10   H     H_    0.398265 0.065972 0.401680 0.216126
H11   H     H_    0.668550 0.601804 0.401657 0.215423
H12   H     H_    0.934035 0.330987 0.401932 0.216448
H13   H     H_    0.972000 0.593988 0.668889 0.206145
H14   H     H_    0.372187 0.371592 0.662190 0.207640
H15   H     H_    0.611634 0.984459 0.661340 0.210961
H16   H     H_    0.627973 0.998142 0.162111 0.204886
H17   H     H_    0.373325 0.374074 0.162813 0.205392
H18   H     H_    0.000973 0.627251 0.163085 0.208266
N1    N     N_R   0.867276 0.415729 0.784641 -0.090697
N2    N     N_R   0.551615 0.439860 0.778922 -0.095208
N3    N     N_R   0.530887 0.093939 0.776578 -0.082778
N4    N     N_R   0.443187 0.893228 0.277857 -0.081453
N5    N     N_R   0.447649 0.558245 0.278846 -0.086194
N6    N     N_R   0.108806 0.549380 0.278657 -0.081350
N7    N     N_R   0.848575 0.401899 0.747029 -0.077087
N8    N     N_R   0.560593 0.435087 0.740923 -0.080977
N9    N     N_R   0.533700 0.105967 0.738587 -0.062213
N10   N     N_R   0.434928 0.880789 0.239804 -0.083391
N11   N     N_R   0.442606 0.566806 0.240854 -0.078059
N12   N     N_R   0.122081 0.554113 0.240651 -0.098231
N13   N     N_R   0.010486 0.521787 0.733451 -0.174169
N14   N     N_R   0.445237 0.486197 0.731123 -0.159554
N15   N     N_R   0.502128 0.944827 0.729453 -0.180954
N16   N     N_R   0.557654 0.044297 0.230864 -0.165875
N17   N     N_R   0.487948 0.446850 0.231111 -0.163778
N18   N     N_R   0.958188 0.511681 0.231151 -0.154051
N19   N     N_R   0.029291 0.535535 0.771033 -0.140416
N20   N     N_R   0.436265 0.491076 0.769139 -0.136350
N21   N     N_R   0.498912 0.932565 0.767536 -0.137690
N22   N     N_R   0.565853 0.056859 0.268952 -0.140097
N23   N     N_R   0.493116 0.438309 0.269125 -0.138507
N24   N     N_R   0.944799 0.506797 0.269186 -0.137916
O1    O     O_R   0.498680 0.159540 0.541860 -0.495568
O2    O     O_R   0.840460 0.339140 0.541860 -0.456057
O3    O     O_R   0.660860 0.501320 0.541860 -0.498918
O4    O     O_R   0.159540 0.498680 0.041860 -0.495992
O5    O     O_R   0.339140 0.840460 0.041860 -0.496407
O6    O     O_R   0.501320 0.660860 0.041860 -0.493856
O7    O     O_R   0.532760 0.358060 0.540030 -0.457553
O8    O     O_R   0.641940 0.174700 0.540030 -0.474380
O9    O     O_R   0.825300 0.467240 0.540030 -0.426072
O10   O     O_R   0.358060 0.532760 0.040030 -0.456123
O11   O     O_R   0.174700 0.641940 0.040030 -0.455398
O12   O     O_R   0.467240 0.825300 0.040030 -0.454295
O13   O     O_R   0.498590 0.161190 0.456930 -0.494836
O14   O     O_R   0.838810 0.337400 0.456930 -0.494219
O15   O     O_R   0.662600 0.501410 0.456930 -0.499806
O16   O     O_R   0.161190 0.498590 0.956930 -0.497543
O17   O     O_R   0.337400 0.838810 0.956930 -0.497624
O18   O     O_R   0.501410 0.662600 0.956930 -0.496968
O19   O     O_R   0.532680 0.359580 0.461300 -0.491861
O20   O     O_R   0.640420 0.173100 0.461300 -0.494123
O21   O     O_R   0.826900 0.467320 0.461300 -0.489761
O22   O     O_R   0.359580 0.532680 0.961300 -0.493827
O23   O     O_R   0.173100 0.640420 0.961300 -0.494352
O24   O     O_R   0.467320 0.826900 0.961300 -0.494045
O25   O     O_3   0.666667 0.333333 0.499990 -0.321269
O26   O     O_3   0.333333 0.666667 0.999990 -0.304044
S1    S     S_3+6 0.966630 0.622254 0.588500 0.092143
O27   O     O_2   0.040817 0.707387 0.612100 -0.219241
O28   O     O_2   0.017165 0.608969 0.554018 -0.225540
O29   O     O_3   0.879599 0.647460 0.573538 -0.486675
H19   H     H_    0.913621 0.703559 0.555546 0.382354
S2    S     S_3+6 0.353893 0.340915 0.580690 0.085934
O30   O     O_2   0.339193 0.239639 0.573974 -0.241590
O31   O     O_2   0.264466 0.332415 0.600230 -0.199518
O32   O     O_3   0.370041 0.398362 0.538057 -0.495882
H20   H     H_    0.316388 0.350273 0.521368 0.379665
S3    S     S_3+6 0.656055 0.008641 0.580550 0.083809
O33   O     O_2   0.756728 0.096006 0.575266 -0.233291
O34   O     O_2   0.664916 0.927331 0.599732 -0.205212
O35   O     O_3   0.602520 0.969815 0.537132 -0.497936
H21   H     H_    0.652235 0.965252 0.520993 0.378832
S4    S     S_3+6 0.646892 0.982202 0.080855 0.083840
O36   O     O_2   0.737360 0.061103 0.100381 -0.202947
O37   O     O_2   0.657933 0.893100 0.074907 -0.240225
O38   O     O_3   0.633569 0.023811 0.037796 -0.497834
H22   H     H_    0.687492 0.027819 0.021616 0.379198
S5    S     S_3+6 0.339656 0.353722 0.081477 0.084945
O39   O     O_2   0.330208 0.264071 0.101296 -0.201878
O40   O     O_2   0.239065 0.340302 0.074992 -0.238633
O41   O     O_3   0.395924 0.367935 0.038687 -0.498678
H23   H     H_    0.347371 0.313665 0.022331 0.379548
S6    S     S_3+6 0.016439 0.663537 0.081930 0.082366
O42   O     O_2   0.937327 0.674615 0.101838 -0.200073
O43   O     O_2   0.104248 0.763592 0.075788 -0.244389
O44   O     O_3   0.974470 0.608377 0.038950 -0.496411
H24   H     H_    0.969412 0.657921 0.022855 0.378635
S7    S     S_3+6 0.824874 0.237147 0.689443 0.059716
O45   O     O_2   0.735772 0.207438 0.714018 -0.251502
O46   O     O_2   0.806183 0.154321 0.662517 -0.235407
O47   O     O_3   0.920790 0.260960 0.717987 -0.439198
H25   H     H_    0.898532 0.200793 0.733710 0.393072
S8    S     S_3+6 0.725930 0.591519 0.687905 0.058932
O48   O     O_2   0.754821 0.526538 0.709432 -0.258495
O49   O     O_2   0.810275 0.661406 0.662960 -0.230467
O50   O     O_3   0.699860 0.656489 0.719668 -0.431412
H26   H     H_    0.762074 0.697566 0.733719 0.399549
S9    S     S_3+6 0.383677 0.113075 0.683567 0.088028
O51   O     O_2   0.442330 0.209810 0.703978 -0.202678
O52   O     O_2   0.310935 0.119840 0.657356 -0.210628
O53   O     O_3   0.322472 0.024588 0.716485 -0.404181
H27   H     H_    0.289573 0.962673 0.701438 0.361155
S10   S     S_3+6 0.276571 0.884101 0.186114 0.090183
O54   O     O_2   0.303678 0.965225 0.214990 -0.147710
O55   O     O_2   0.195353 0.876934 0.160892 -0.206082
O56   O     O_3   0.236231 0.777265 0.209800 -0.445115
H28   H     H_    0.236030 0.730999 0.190231 0.325356
S11   S     S_3+6 0.596159 0.729134 0.186815 0.063289
O57   O     O_2   0.667940 0.811380 0.161476 -0.227488
O58   O     O_2   0.532386 0.761546 0.207143 -0.252798
O59   O     O_3   0.658505 0.702862 0.219675 -0.433302
H29   H     H_    0.697865 0.764968 0.234115 0.400521
S12   S     S_3+6 0.129316 0.399529 0.186218 0.064567
O60   O     O_2   0.138693 0.326962 0.160649 -0.221757
O61   O     O_2   0.225279 0.462126 0.206483 -0.256624
O62   O     O_3   0.041093 0.337803 0.219124 -0.430858
H30   H     H_    0.063970 0.298724 0.233814 0.400641
S13   S     S_3+6 0.959289 0.306795 0.836581 0.070430
O63   O     O_2   0.850882 0.252689 0.828871 -0.184830
O64   O     O_2   0.013620 0.322985 0.799131 -0.233259
O65   O     O_3   0.987036 0.238762 0.866059 -0.480074
H31   H     H_    0.973790 0.180133 0.850640 0.393736
S14   S     S_3+6 0.662605 0.660137 0.825156 0.076320
O66   O     O_2   0.717767 0.611558 0.810015 -0.208770
O67   O     O_2   0.628395 0.696855 0.791859 -0.203896
O68   O     O_3   0.737793 0.755814 0.853268 -0.464056
H32   H     H_    0.793393 0.799234 0.836298 0.401349
S15   S     S_3+6 0.328504 0.998367 0.827285 0.106691
O69   O     O_2   0.374074 0.102978 0.813690 -0.150559
O70   O     O_2   0.291620 0.930596 0.793026 -0.204233
O71   O     O_3   0.233482 0.974005 0.856527 -0.467706
H33   H     H_    0.187713 0.985001 0.840399 0.407306
S16   S     S_3+6 0.332467 0.994175 0.326589 0.097721
O72   O     O_2   0.363104 0.062938 0.292688 -0.193371
O73   O     O_2   0.277311 0.889879 0.312374 -0.178248
O74   O     O_3   0.258458 0.015309 0.355346 -0.463810
H34   H     H_    0.200903 0.000764 0.339091 0.406701
S17   S     S_3+6 0.662752 0.667951 0.326700 0.074664
O75   O     O_2   0.701679 0.635592 0.293491 -0.210619
O76   O     O_2   0.614382 0.723223 0.311510 -0.208101
O77   O     O_3   0.756500 0.742702 0.355623 -0.461905
H35   H     H_    0.800183 0.799403 0.339144 0.403493
S18   S     S_3+6 0.005156 0.335560 0.326906 0.075560
O78   O     O_2   0.934352 0.296593 0.293698 -0.211977
O79   O     O_2   0.108289 0.383450 0.311723 -0.207399
O80   O     O_3   0.986195 0.241650 0.355920 -0.460524
H36   H     H_    0.999367 0.197624 0.339514 0.402913
C97   C     C_1   0.086710 0.701824 0.910359 0.332027
N25   N     N_1   0.112951 0.778134 0.924255 -0.178774
C98   C     C_1   0.311013 0.372984 0.918120 0.336661
N26   N     N_1   0.244464 0.317831 0.936319 -0.188652
C99   C     C_1   0.617804 0.919076 0.912579 0.331881
N27   N     N_1   0.671774 0.901710 0.928895 -0.182193
C100  C     C_1   0.693987 0.069527 0.415693 0.331664
N28   N     N_1   0.763058 0.084098 0.432957 -0.182607
C101  C     C_1   0.375972 0.308435 0.416244 0.332556
N29   N     N_1   0.321332 0.239793 0.433628 -0.181750
C102  C     C_1   0.929822 0.623670 0.415719 0.341204
N30   N     N_1   0.914615 0.678254 0.432839 -0.177996
S19   S     S_3+6 0.986148 0.675699 0.833236 0.074568
O81   O     O_2   0.943300 0.716527 0.861737 -0.217965
O82   O     O_2   0.083057 0.757650 0.819293 -0.219665
O83   O     O_3   0.908847 0.629448 0.795538 -0.456599
H37   H     H_    0.915330 0.687522 0.781553 0.392768
S20   S     S_3+6 0.316610 0.298936 0.838226 0.081809
O84   O     O_2   0.346050 0.276273 0.799951 -0.188073
O85   O     O_2   0.300817 0.219290 0.866329 -0.223939
O86   O     O_3   0.210703 0.300054 0.832856 -0.465239
H38   H     H_    0.161995 0.232107 0.825132 0.390604
S21   S     S_3+6 0.682645 0.995574 0.831141 0.078891
O87   O     O_2   0.766595 0.041729 0.859203 -0.223882
O88   O     O_2   0.668469 0.897372 0.818808 -0.215164
O89   O     O_3   0.711810 0.069055 0.792231 -0.450592
H39   H     H_    0.767484 0.066360 0.780002 0.386295
S22   S     S_3+6 0.684009 0.987025 0.335687 0.076431
O90   O     O_2   0.774879 0.083263 0.327334 -0.220781
O91   O     O_2   0.708787 0.930396 0.364232 -0.215526
O92   O     O_3   0.645643 0.921114 0.294648 -0.458238
H40   H     H_    0.704903 0.923321 0.283575 0.391088
S23   S     S_3+6 0.304144 0.318583 0.336258 0.077638
O93   O     O_2   0.308551 0.226381 0.328580 -0.220450
O94   O     O_2   0.223217 0.295880 0.364669 -0.212542
O95   O     O_3   0.277399 0.356196 0.294834 -0.458509
H41   H     H_    0.220987 0.296615 0.283791 0.393207
S24   S     S_3+6 0.013552 0.695675 0.335973 0.078479
O96   O     O_2   0.917532 0.690997 0.327287 -0.222063
O97   O     O_2   0.069385 0.776738 0.364631 -0.214599
O98   O     O_3   0.080028 0.722756 0.295140 -0.446697
H42   H     H_    0.077660 0.779740 0.283967 0.408417

loop_
_geom_bond_atom_site_label_1
_geom_bond_atom_site_label_2
_ccdc_geom_bond_type
C6    O12   A    
Cr6   O26   S    
C4    O10   A    
S1    O27   D    
C33   S21   S    
Cr1   O1    S    
C24   H12   S    
C71   S11   S    
N4    N10   A    
Cr3   O15   S    
C72   C78   A    
S21   O88   D    
S7    O45   D    
C6    C58   S    
C36   C42   A    
O68   H32   S    
S8    O50   S    
S10   O56   S    
C79   C85   A    
C93   N21   A    
O59   H29   S    
C25   C43   A    
C15   S15   S    
C2    C57   S    
C26   C44   A    
C98   N26   T    
C7    C73   S    
Cr2   O8    S    
O98   H42   S    
C27   C33   A    
C2    O1    A    
C26   C32   A    
S1    O28   D    
C28   C46   A    
O74   H34   S    
S23   O93   D    
C28   C100  S    
S24   O97   D    
C29   C47   A    
C18   C24   A    
C30   C48   A    
C61   H1    S    
C1    C56   S    
C10   N16   A    
C7    N13   A    
S11   O59   S    
C79   H13   S    
C18   C42   A    
N14   N20   A    
C97   N25   T    
S8    O49   D    
Cr3   O9    S    
S17   O76   D    
C96   N24   A    
C88   S4    S    
Cr5   O11   S    
C68   C74   A    
C102  N30   T    
S18   O80   S    
C81   H15   S    
C3    O9    A    
S19   O83   S    
Cr1   O25   S    
O35   H21   S    
Cr4   O22   S    
S15   O69   D    
C59   C89   A    
S18   O79   D    
C83   H17   S    
Cr5   O23   S    
Cr4   O16   S    
O29   H19   S    
C39   C93   S    
C20   H8    S    
C80   C86   A    
C6    O5    A    
C11   C77   S    
C52   O22   A    
Cr2   O25   S    
C3    C55   S    
C38   C92   S    
C43   C53   S    
S2    O32   S    
C66   C72   A    
C63   C69   A    
Cr1   O19   S    
S20   O86   S    
C12   C78   S    
C16   C22   A    
C50   O20   A    
C57   C63   A    
C67   C73   A    
C32   C38   A    
C63   H3    S    
O71   H33   S    
C92   N20   A    
C13   C37   A    
C84   H18   S    
C8    N8    A    
C66   H6    S    
C44   C52   S    
O92   H40   S    
C19   H7    S    
O41   H23   S    
N17   N23   A    
C28   C34   A    
O44   H24   S    
C54   O17   A    
C5    O4    A    
C72   S12   S    
C101  N29   T    
N3    N9    A    
S21   O89   S    
C58   C64   A    
S7    O46   D    
C84   C90   A    
C78   C84   A    
S6    O44   S    
C14   S14   S    
C21   H9    S    
C19   C43   A    
C46   C50   S    
O50   H26   S    
C21   C45   A    
S3    O34   D    
C50   O13   A    
C2    O8    A    
C83   C89   A    
S1    O29   S    
S16   O73   D    
C48   C51   S    
C17   C41   A    
C23   C47   A    
C37   C91   S    
N15   N21   A    
Cr4   O26   S    
S5    O39   D    
C94   N22   A    
S22   O92   S    
C14   C20   A    
C69   S9    S    
S17   O75   D    
S10   O54   D    
S6    O43   D    
S14   O66   D    
C60   C90   A    
C76   C82   A    
O56   H28   S    
C13   C19   A    
S8    O48   D    
C75   C81   A    
S17   O77   S    
C26   C98   S    
Cr2   O2    S    
C18   S18   S    
O86   H38   S    
S3    O33   D    
C8    N14   A    
C17   S17   S    
C62   H2    S    
C7    N7    A    
C31   C37   A    
C34   S22   S    
S15   O70   D    
S24   O98   S    
S22   O91   D    
C55   C85   A    
C10   N10   A    
O62   H30   S    
C67   S7    S    
C92   N2    A    
C14   C38   A    
S11   O57   D    
C25   C97   S    
N5    N11   A    
C24   C48   A    
C36   S24   S    
S9    O51   D    
N6    N12   A    
Cr6   O18   S    
C74   C80   A    
S18   O78   D    
C86   S2    S    
C8    C74   S    
S19   O81   D    
C89   S5    S    
C96   N6    A    
Cr5   O26   S    
S13   O64   D    
C17   C23   A    
C56   C86   A    
C23   H11   S    
C64   H4    S    
C15   C39   A    
C81   C87   A    
C61   C67   A    
Cr6   O6    S    
C91   N19   A    
C9    N15   A    
O95   H41   S    
S9    O52   D    
C16   C40   A    
C45   C54   S    
C20   C44   A    
C64   C70   A    
C68   S8    S    
S21   O87   D    
C57   C87   A    
S7    O47   S    
S20   O85   D    
C1    O3    A    
O65   H31   S    
C82   H16   S    
C69   C75   A    
S4    O37   D    
O80   H36   S    
C31   S19   S    
C30   C102  S    
Cr6   O12   S    
C71   C77   A    
C32   S20   S    
O89   H39   S    
C99   N27   T    
S3    O35   S    
Cr4   O10   S    
Cr3   O3    S    
S16   O72   D    
S2    O30   D    
C53   O16   A    
Cr6   O24   S    
C12   N12   A    
C5    C60   S    
C22   C46   A    
C91   N1    A    
O53   H27   S    
C10   C76   S    
C25   C31   A    
C56   C62   A    
C80   H14   S    
C95   N23   A    
C93   N3    A    
C77   C83   A    
C40   C94   S    
S6    O42   D    
C73   C79   A    
C11   N11   A    
C87   S3    S    
Cr2   O20   S    
C13   S13   S    
N1    N7    A    
N13   N19   A    
Cr3   O25   S    
C9    N9    A    
O32   H20   S    
S23   O95   S    
S12   O62   S    
C4    O6    A    
C29   C35   A    
C51   O14   A    
S12   O61   D    
S14   O68   S    
C30   C36   A    
C42   C96   S    
C100  N28   T    
C70   S10   S    
S22   O90   D    
S15   O71   S    
O77   H35   S    
Cr5   O17   S    
C11   N17   A    
S5    O41   S    
C29   C101  S    
S23   O94   D    
C65   C71   A    
C47   C49   S    
S5    O40   D    
C70   C76   A    
O83   H37   S    
S4    O38   S    
C27   C45   A    
C41   C95   S    
C35   S23   S    
Cr4   O4    S    
C82   C88   A    
C55   C61   A    
C4    C59   S    
Cr5   O5    S    
S19   O82   D    
S14   O67   D    
C1    O7    A    
S13   O65   S    
C12   N18   A    
C62   C68   A    
N16   N22   A    
C95   N5    A    
C5    O11   A    
O38   H22   S    
C35   C41   A    
C33   C39   A    
C16   S16   S    
C49   O19   A    
C51   O21   A    
C60   C66   A    
N2    N8    A    
C85   S1    S    
C54   O24   A    
Cr2   O14   S    
C15   C21   A    
S9    O53   S    
C90   S6    S    
O47   H25   S    
C3    O2    A    
S11   O58   D    
S12   O60   D    
S24   O96   D    
C52   O18   A    
S13   O63   D    
C27   C99   S    
S20   O84   D    
C34   C40   A    
N18   N24   A    
C9    C75   S    
C53   O23   A    
S4    O36   D    
C58   C88   A    
C49   O15   A    
C65   H5    S    
Cr1   O7    S    
C59   C65   A    
S10   O55   D    
C22   H10   S    
Cr1   O13   S    
S2    O31   D    
Cr3   O21   S    
S16   O74   S    
C94   N4    A    
