data_mof_unit_38572.cif
_audit_creation_date              2012-10-26T19:40:08-0400
_audit_creation_method            fapswitch 2.2
_symmetry_space_group_name_H-M    P1
_symmetry_Int_Tables_number       1
_space_group_crystal_system       triclinic
_cell_length_a                    15.015977
_cell_length_b                    8.758454
_cell_length_c                    7.519356
_cell_angle_alpha                 103.128988
_cell_angle_beta                  94.711265
_cell_angle_gamma                 93.995815
_cell_volume                      955.8339854

loop_
_atom_site_label
_atom_site_type_symbol
_atom_type_description
_atom_site_fract_x
_atom_site_fract_y
_atom_site_fract_z
_atom_type_partial_charge
C1    C     C_R   0.490581 0.199467 0.453990 0.587688
C2    C     C_R   0.180675 0.354598 0.472929 0.192047
C3    C     C_R   0.766718 0.497068 0.493119 0.039782
C4    C     C_R   0.233095 0.498610 0.502405 0.031916
C5    C     C_R   0.804993 0.353052 0.455859 0.154284
C6    C     C_R   0.193838 0.641281 0.523503 0.158995
C7    C     C_R   0.898602 0.352309 0.459084 0.032218
C8    C     C_R   0.100687 0.641809 0.526551 0.029265
C9    C     C_R   0.952785 0.496972 0.494571 -0.004037
C10   C     C_R   0.046906 0.497269 0.497132 -0.003147
C11   C     C_R   0.913052 0.641404 0.525695 0.031908
C12   C     C_R   0.502598 0.799750 0.547142 0.603935
C13   C     C_R   0.086905 0.353047 0.467850 0.026562
C14   C     C_R   0.939418 0.210493 0.427846 -0.095411
C15   C     C_R   0.059997 0.783592 0.557364 -0.094978
C16   C     C_3   0.414666 0.962913 0.125740 0.042582
C17   C     C_3   0.360983 0.827002 0.989034 -0.265558
C18   C     C_3   0.626570 0.056829 0.795450 -0.012638
C19   C     C_3   0.659434 0.196125 0.953690 -0.286729
C20   C     C_R   0.032072 0.210897 0.433053 -0.103421
C21   C     C_R   0.967739 0.783450 0.557754 -0.099735
C22   C     C_2   0.475152 0.029784 0.434730 0.307403
C23   C     C_2   0.507565 0.968465 0.573842 0.296442
C24   C     C_R   0.329418 0.499284 0.501069 0.627344
C25   C     C_R   0.670495 0.498166 0.497969 0.626189
C26   C     C_R   0.819632 0.640519 0.524535 0.199964
Cl1   Cl    Cl    0.767115 0.817868 0.556699 -0.609318
Cl2   Cl    Cl    0.234023 0.177422 0.437341 -0.517008
Cl3   Cl    Cl    0.734312 0.174973 0.402106 -0.658963
Cl4   Cl    Cl    0.261910 0.817216 0.535012 -0.554076
Cl5   Cl    Cl    0.392012 0.321862 0.907274 -0.412551
Cl6   Cl    Cl    0.606924 0.680382 0.092889 -0.443900
Cu1   Cu    Cu3+1 0.510010 0.517380 0.684380 1.151535
Cu2   Cu    Cu3+1 0.489990 0.482620 0.315620 1.171740
H1    H     H_    0.900438 0.097584 0.399765 0.204178
H2    H     H_    0.666066 0.065980 0.679510 0.222894
H3    H     H_    0.638934 0.946841 0.839836 0.215366
H4    H     H_    0.731431 0.190447 0.996625 0.160371
H5    H     H_    0.651751 0.307963 0.910563 0.195213
H6    H     H_    0.619923 0.194018 0.071574 0.213628
H7    H     H_    0.098890 0.896444 0.583561 0.198492
H8    H     H_    0.059898 0.098311 0.408124 0.176108
H9    H     H_    0.940156 0.896263 0.583842 0.176107
H10   H     H_    0.485008 0.970399 0.089067 0.178047
H11   H     H_    0.381672 0.070400 0.114907 0.223819
H12   H     H_    0.288602 0.827433 0.009883 0.189645
H13   H     H_    0.370035 0.839460 0.848585 0.184869
H14   H     H_    0.384238 0.713530 0.006155 0.198212
N1    N     N_2   0.474890 0.456420 0.038520 0.042805
N2    N     N_2   0.525110 0.543580 0.961480 0.026359
O1    O     O_R   0.506510 0.286130 0.619770 -0.437108
O2    O     O_3   0.534162 0.061919 0.748777 -0.570068
O3    O     O_R   0.493490 0.713870 0.380230 -0.449022
O4    O     O_R   0.489600 0.256770 0.308360 -0.543822
O5    O     O_R   0.510400 0.743230 0.691640 -0.523249
O6    O     O_R   0.378710 0.514640 0.655720 -0.486874
O7    O     O_R   0.621290 0.485360 0.344280 -0.466028
O8    O     O_R   0.361800 0.485290 0.344300 -0.463200
O9    O     O_R   0.638200 0.514710 0.655700 -0.486823
O10   O     O_3   0.410913 0.935919 0.302391 -0.530249

loop_
_geom_bond_atom_site_label_1
_geom_bond_atom_site_label_2
_ccdc_geom_bond_type
C16   H11   S    
Cu1   O5    S    
Cu2   O7    S    
C20   H8    S    
C1    O4    A    
C11   C26   A    
C19   H4    S    
Cu1   O1    S    
C2    Cl2   S    
C9    C10   A    
C16   H10   S    
C2    C4    A    
C12   O3    A    
C1    O1    A    
C17   H14   S    
C15   C21   A    
C7    C9    A    
Cu1   O6    S    
Cu1   Cu2   S    
C26   Cl1   S    
C18   O2    S    
C1    C22   S    
Cu1   O9    S    
Cu2   O8    S    
C9    C11   A    
C12   C23   S    
Cl6   N2    S    
C23   O2    S    
C19   H5    S    
Cl5   N1    S    
C4    C6    A    
C6    Cl4   S    
C18   H3    S    
Cu2   O4    S    
C8    C15   A    
C5    Cl3   S    
C3    C26   A    
C22   O10   S    
C4    C24   S    
C12   O5    A    
C24   O6    A    
C19   H6    S    
C25   O7    A    
C24   O8    A    
C14   C20   A    
C3    C25   S    
C17   H12   S    
C15   H7    S    
Cu2   O3    S    
C8    C10   A    
N1    N2    D    
C16   O10   S    
C14   H1    S    
C5    C7    A    
C2    C13   A    
C22   C23   D    
C18   C19   S    
Cu2   N1    S    
C6    C8    A    
C25   O9    A    
C13   C20   A    
Cu1   N2    S    
C21   H9    S    
C18   H2    S    
C11   C21   A    
C7    C14   A    
C17   H13   S    
C16   C17   S    
C3    C5    A    
C10   C13   A    
