data_mof_unit_67517.cif
_audit_creation_date              2013-03-05T15:41:20-0500
_audit_creation_method            fapswitch 2.2
_symmetry_space_group_name_H-M    P1
_symmetry_Int_Tables_number       1
_space_group_crystal_system       triclinic
_cell_length_a                    10.811131
_cell_length_b                    8.936243
_cell_length_c                    7.678292
_cell_angle_alpha                 101.563365
_cell_angle_beta                  95.683638
_cell_angle_gamma                 93.713899
_cell_volume                      720.448040569

loop_
_atom_site_label
_atom_site_type_symbol
_atom_site_description
_atom_site_fract_x
_atom_site_fract_y
_atom_site_fract_z
_atom_type_partial_charge
O1    O     O_R   0.509190 0.286130 0.619780 -0.559520
O2    O     O_R   0.490810 0.713870 0.380220 -0.555101
O3    O     O_R   0.485310 0.256770 0.308360 -0.611208
O4    O     O_R   0.514690 0.743230 0.691640 -0.617109
C1    C     C_R   0.488864 0.201158 0.455654 0.825124
C2    C     C_R   0.505231 0.797711 0.544155 0.794275
O5    O     O_R   0.328790 0.514640 0.655680 -0.580888
O6    O     O_R   0.671210 0.485360 0.344320 -0.614026
O7    O     O_R   0.304910 0.485280 0.344260 -0.580442
O8    O     O_R   0.695090 0.514720 0.655740 -0.586697
C3    C     C_R   0.260476 0.509422 0.501190 0.743217
C4    C     C_R   0.739911 0.504968 0.501810 0.770094
Cu1   Cu    Cu3+1 0.514140 0.517380 0.684380 0.951903
Cu2   Cu    Cu3+1 0.485860 0.482620 0.315620 0.946532
N1    N     N_2   0.464560 0.456420 0.038510 -0.225042
N2    N     N_2   0.535440 0.543580 0.961490 -0.231408
C5    C     C_3   0.045826 0.417239 0.597881 0.073064
C6    C     C_3   0.955051 0.618680 0.420313 0.072550
C7    C     C_3   0.947068 0.375058 0.432693 -0.242774
C8    C     C_3   0.053942 0.658677 0.585456 -0.245845
H1    H     H_    0.897798 0.261309 0.372428 0.134595
H2    H     H_    0.099605 0.773149 0.652713 0.123854
C9    C     C_3   0.877569 0.513737 0.508930 -0.003040
C10   C     C_3   0.122605 0.519717 0.504566 -0.019113
C11   C     C_3   0.973785 0.554407 0.677537 -0.196469
C12   C     C_3   0.024330 0.480513 0.340098 -0.229114
H3    H     H_    0.947607 0.586021 0.814212 0.142980
H4    H     H_    0.034008 0.456363 0.200591 0.122196
H5    H     H_    0.407705 0.372535 0.950186 0.245972
H6    H     H_    0.588768 0.631185 0.049511 0.230117
C13   C     C_2   0.465333 0.033926 0.438763 -0.220867
C14   C     C_2   0.519372 0.963357 0.563328 -0.231859
C15   C     C_R   0.111605 0.318756 0.706831 0.091170
C16   C     C_R   0.112262 0.355342 0.891709 -0.153266
C17   C     C_R   0.163825 0.262208 0.998750 -0.135740
C18   C     C_R   0.224283 0.139552 0.923047 -0.163205
C19   C     C_R   0.235482 0.108630 0.740872 -0.169434
C20   C     C_R   0.176928 0.196243 0.630224 -0.149120
H7    H     H_    0.071450 0.455959 0.949969 0.099543
H8    H     H_    0.160523 0.283671 0.140980 0.149870
H9    H     H_    0.265639 0.074940 0.010798 0.161477
H10   H     H_    0.291264 0.018807 0.689589 0.116945
H11   H     H_    0.184486 0.171203 0.488106 0.104124
C21   C     C_R   0.912229 0.731926 0.312300 0.086966
C22   C     C_R   0.965806 0.884167 0.356598 -0.187136
C23   C     C_R   0.963229 0.972999 0.226746 -0.146789
C24   C     C_R   0.897066 0.915952 0.059484 -0.103465
C25   C     C_R   0.827979 0.774560 0.024136 -0.180926
C26   C     C_R   0.839699 0.679287 0.147080 -0.181097
H12   H     H_    0.020371 0.929194 0.483794 0.130744
H13   H     H_    0.018417 0.081728 0.251631 0.122299
H14   H     H_    0.903933 0.977430 0.954643 0.156962
H15   H     H_    0.774239 0.734464 0.895367 0.176310
H16   H     H_    0.799912 0.561723 0.108177 0.154671
C27   C     C_R   0.380506 0.944330 0.284861 0.115373
C28   C     C_R   0.270003 0.863262 0.310491 -0.128703
C29   C     C_R   0.203154 0.758697 0.168631 -0.079495
C30   C     C_R   0.240089 0.740403 0.999616 -0.121023
C31   C     C_R   0.346743 0.821816 0.972410 -0.121494
C32   C     C_R   0.422621 0.914702 0.116269 -0.137943
H17   H     H_    0.239451 0.870765 0.440247 0.089646
H18   H     H_    0.122396 0.691843 0.187806 0.142503
H19   H     H_    0.185916 0.664119 0.889562 0.148617
H20   H     H_    0.361282 0.823670 0.838401 0.162688
H21   H     H_    0.511953 0.965869 0.097385 0.136303
C33   C     C_R   0.620685 0.043621 0.695540 0.148796
C34   C     C_R   0.597316 0.119276 0.865200 -0.074342
C35   C     C_R   0.693297 0.209927 0.980400 -0.128947
C36   C     C_R   0.810547 0.229761 0.923342 -0.134303
C37   C     C_R   0.832985 0.152374 0.753822 -0.152009
C38   C     C_R   0.738942 0.058968 0.640738 -0.186934
H22   H     H_    0.503664 0.115394 0.902575 0.112808
H23   H     H_    0.676533 0.264940 0.112529 0.181413
H24   H     H_    0.884651 0.299048 0.013018 0.123083
H25   H     H_    0.923781 0.155429 0.711424 0.156334
H26   H     H_    0.757033 0.001355 0.508805 0.140775

loop_
_geom_bond_atom_site_label_1
_geom_bond_atom_site_label_2
_geom_bond_distance
_ccdc_geom_bond_type
C21   C26   1.400510 A    
C2    C14   1.454324 S    
C27   C28   1.407963 A    
C17   C18   1.370822 A    
C6    C12   1.539832 S    
C29   H18   1.064905 S    
C22   C23   1.392719 A    
O5    C3    1.324608 A    
C4    C9    1.480216 S    
C31   H20   1.059369 S    
O1    C1    1.323973 A    
C18   C19   1.389441 A    
C7    H1    1.106150 S    
C10   C12   1.534592 S    
C16   C17   1.386545 A    
C38   H26   1.082929 S    
C8    C11   1.549172 S    
N2    H6    1.026778 S    
C26   H16   1.080819 S    
C3    C10   1.501766 S    
O4    Cu1   2.007425 S    
C28   C29   1.389405 A    
C34   H22   1.079657 S    
C19   H10   1.070551 S    
C7    C12   1.541271 S    
C8    C10   1.542849 S    
C35   C36   1.393620 A    
C37   C38   1.381670 A    
C33   C34   1.397199 A    
C31   C32   1.395267 A    
C27   C32   1.395743 A    
C18   H9    1.056879 S    
O2    C2    1.318325 A    
C5    C15   1.496148 S    
N1    H5    1.026450 S    
C25   H15   1.077377 S    
C5    C10   1.524265 S    
C16   H7    1.064180 S    
C24   C25   1.388559 A    
O4    C2    1.316983 A    
C35   H23   1.073221 S    
C23   H13   1.079098 S    
C34   C35   1.391917 A    
C7    C9    1.536203 S    
O7    Cu2   1.991248 S    
C19   C20   1.399952 A    
C6    C21   1.499144 S    
C33   C38   1.391897 A    
O6    C4    1.328517 A    
C15   C16   1.390576 A    
C36   H24   1.074653 S    
O7    C3    1.324041 A    
O3    Cu2   2.007425 S    
O8    C4    1.310325 A    
C25   C26   1.394471 A    
C8    H2    1.108658 S    
C32   H21   1.076996 S    
O1    Cu1   2.022084 S    
C21   C22   1.405502 A    
C14   C33   1.459721 S    
C30   H19   1.068224 S    
C23   C24   1.388980 A    
O6    Cu2   1.992127 S    
C28   H17   1.071211 S    
C13   C14   1.353751 D    
O3    C1    1.321636 A    
O8    Cu1   1.991248 S    
C24   H14   1.067341 S    
C11   H3    1.100704 S    
C12   H4    1.066490 S    
C15   C20   1.402707 A    
C5    C11   1.549405 S    
C17   H8    1.074868 S    
C30   C31   1.379286 A    
C20   H11   1.081509 S    
C29   C30   1.377083 A    
C22   H12   1.077652 S    
C6    C9    1.520215 S    
C5    C7    1.542315 S    
C6    C8    1.542372 S    
C9    C11   1.544601 S    
C36   C37   1.398110 A    
O2    Cu2   2.022085 S    
O5    Cu1   1.992125 S    
Cu1   N2    2.081186 S    
C37   H25   1.064736 S    
Cu2   N1    2.081186 S    
C13   C27   1.479666 S    
Cu1   Cu2   2.769600 S    
N1    N2    1.319355 D    
C1    C13   1.476938 S    
