data_mof_unit_31772.cif
_audit_creation_date              2012-12-10T20:47:09-0500
_audit_creation_method            fapswitch 2.2
_symmetry_space_group_name_H-M    P1
_symmetry_Int_Tables_number       1
_space_group_crystal_system       triclinic
_cell_length_a                    10.760175
_cell_length_b                    8.927483
_cell_length_c                    8.107436
_cell_angle_alpha                 89.513384
_cell_angle_beta                  89.997861
_cell_angle_gamma                 89.996039
_cell_volume                      778.782583955

loop_
_atom_site_label
_atom_site_type_symbol
_atom_type_description
_atom_site_fract_x
_atom_site_fract_y
_atom_site_fract_z
_atom_type_partial_charge
C1    C     C_R   0.499999 0.217990 0.500103 0.963673
C2    C     C_R   0.066055 0.360370 0.607663 0.060374
C3    C     C_R   0.128103 0.464420 0.500943 -0.094300
C4    C     C_R   0.871899 0.464418 0.500919 -0.094257
C5    C     C_R   0.063261 0.555915 0.391311 -0.217552
C6    C     C_R   0.936750 0.555947 0.391315 -0.217544
C7    C     C_1   0.500000 0.065125 0.499850 -0.223689
C8    C     C_1   0.500000 0.934749 0.498968 -0.214504
C9    C     C_R   0.499999 0.781965 0.499480 0.946672
C10   C     C_R   0.260076 0.486372 0.500579 0.909942
C11   C     C_R   0.739926 0.486380 0.500571 0.909961
C12   C     C_R   0.129300 0.252790 0.709344 0.090575
C13   C     C_R   0.870678 0.252702 0.709219 0.090628
C14   C     C_R   0.063737 0.162902 0.820483 -0.201116
C15   C     C_R   0.936198 0.162847 0.820415 -0.201091
C16   C     C_R   0.933940 0.360344 0.607623 0.060407
H1    H     H_    0.111007 0.633396 0.309247 0.162783
H2    H     H_    0.889001 0.633480 0.309277 0.162740
H3    H     H_    0.112541 0.084365 0.899921 0.147962
H4    H     H_    0.887374 0.084250 0.899783 0.147943
H5    H     H_    0.299759 0.234245 0.808515 0.211258
H6    H     H_    0.268155 0.110295 0.657929 0.170012
H7    H     H_    0.731947 0.110113 0.657721 0.170019
H8    H     H_    0.700162 0.234087 0.808163 0.211326
N1    N     N_1   0.500000 0.500000 0.073640 -0.041299
N2    N     N_1   0.500000 0.500000 0.926360 -0.047055
N3    N     N_3   0.258450 0.222286 0.692510 -0.435352
N4    N     N_3   0.741567 0.222113 0.692232 -0.435529
O1    O     O_R   0.500000 0.285350 0.636850 -0.626577
O2    O     O_R   0.500000 0.714650 0.636850 -0.615905
O3    O     O_R   0.500000 0.285360 0.363100 -0.619181
O4    O     O_R   0.500000 0.714640 0.363100 -0.614709
O5    O     O_R   0.316770 0.500000 0.636900 -0.608443
O6    O     O_R   0.683230 0.500000 0.636900 -0.608494
O7    O     O_R   0.316780 0.500000 0.363150 -0.626896
O8    O     O_R   0.683220 0.500000 0.363150 -0.626864
Zn1   Zn    Zn3+2 0.500000 0.500000 0.682780 0.972731
Zn2   Zn    Zn3+2 0.500000 0.500000 0.317220 0.981351

loop_
_geom_bond_atom_site_label_1
_geom_bond_atom_site_label_2
_ccdc_geom_bond_type
C4    C16   A    
C13   N4    S    
C10   O7    A    
O4    Zn2   S    
N1    Zn2   S    
O6    Zn1   S    
C2    C16   A    
O3    Zn2   S    
C2    C12   A    
O8    Zn2   S    
C2    C3    A    
H5    N3    S    
C7    C8    T    
N2    Zn1   S    
C3    C10   S    
H7    N4    S    
C4    C11   S    
C5    C6    A    
C9    O2    A    
C1    O1    A    
C11   O8    A    
C12   C14   A    
C10   O5    A    
H6    N3    S    
C13   C15   A    
C15   H4    S    
C6    H2    S    
C5    H1    S    
C12   N3    S    
C1    O3    A    
O7    Zn2   S    
C4    C6    A    
C13   C16   A    
O1    Zn1   S    
C14   C15   A    
C9    O4    A    
N1    N2    T    
C1    C7    S    
C14   H3    S    
C11   O6    A    
O5    Zn1   S    
H8    N4    S    
O2    Zn1   S    
C8    C9    S    
C3    C5    A    
