data_mof_unit_19581.cif
_audit_creation_date              2012-12-11T17:41:48-0500
_audit_creation_method            fapswitch 2.2
_symmetry_space_group_name_H-M    P1
_symmetry_Int_Tables_number       1
_space_group_crystal_system       triclinic
_cell_length_a                    7.225371
_cell_length_b                    23.82296
_cell_length_c                    26.168924
_cell_angle_alpha                 89.994327
_cell_angle_beta                  90.007674
_cell_angle_gamma                 89.996079
_cell_volume                      4504.44960079

loop_
_atom_site_label
_atom_site_type_symbol
_atom_type_description
_atom_site_fract_x
_atom_site_fract_y
_atom_site_fract_z
_atom_type_partial_charge
O1    O     O_R   0.607880 0.800910 0.198150 -0.532320
O2    O     O_R   0.392120 0.199090 0.801850 -0.534519
O3    O     O_R   0.392120 0.199090 0.698150 -0.534958
O4    O     O_R   0.607880 0.800910 0.301850 -0.533785
O5    O     O_R   0.107880 0.699090 0.301850 -0.532511
O6    O     O_R   0.892120 0.300910 0.698150 -0.533570
O7    O     O_R   0.892120 0.300910 0.801850 -0.532888
O8    O     O_R   0.107880 0.699090 0.198150 -0.533839
O9    O     O_R   0.278160 0.807580 0.301500 -0.541426
O10   O     O_R   0.721840 0.192420 0.698500 -0.540436
O11   O     O_R   0.721840 0.192420 0.801500 -0.540305
O12   O     O_R   0.278160 0.807580 0.198500 -0.540739
O13   O     O_R   0.778160 0.692420 0.198500 -0.541506
O14   O     O_R   0.221840 0.307580 0.801500 -0.537865
O15   O     O_R   0.221840 0.307580 0.698500 -0.541132
O16   O     O_R   0.778160 0.692420 0.301500 -0.540765
C1    C     C_R   0.446893 0.821147 0.318471 0.714702
C2    C     C_R   0.553155 0.178814 0.681649 0.704907
C3    C     C_R   0.553151 0.178791 0.818390 0.709236
C4    C     C_R   0.446817 0.821226 0.181682 0.709543
C5    C     C_R   0.946886 0.678852 0.181528 0.714255
C6    C     C_R   0.053163 0.321180 0.818354 0.719886
C7    C     C_R   0.053101 0.321142 0.681525 0.714767
C8    C     C_R   0.946851 0.678805 0.318341 0.710791
O17   O     O_3   0.441370 0.714400 0.250000 -0.371751
O18   O     O_3   0.558630 0.285600 0.750000 -0.370250
O19   O     O_3   0.941370 0.785600 0.250000 -0.371611
O20   O     O_3   0.058630 0.214400 0.750000 -0.375912
V1    V     V_3+5 0.166530 0.756600 0.250000 1.449827
V2    V     V_3+5 0.833470 0.243400 0.750000 1.444559
V3    V     V_3+5 0.666530 0.743400 0.250000 1.449853
V4    V     V_3+5 0.333470 0.256600 0.750000 1.448309
C9    C     C_R   0.179517 0.440396 0.590069 0.480455
C10   C     C_R   0.828688 0.553588 0.403345 0.408074
C11   C     C_R   0.820460 0.559548 0.090119 0.479534
C12   C     C_R   0.171301 0.446349 0.903420 0.409974
C13   C     C_R   0.681466 0.089960 0.934668 0.386636
C14   C     C_R   0.328753 0.946970 0.097324 0.395754
C15   C     C_R   0.320491 0.940474 0.409844 0.479777
C16   C     C_R   0.671403 0.053678 0.596548 0.411104
C17   C     C_R   0.190052 0.400353 0.629644 -0.224810
C18   C     C_R   0.819334 0.594677 0.364708 -0.200867
C19   C     C_R   0.809920 0.599615 0.129670 -0.224490
C20   C     C_R   0.180650 0.405287 0.864763 -0.200719
C21   C     C_R   0.693013 0.128303 0.893785 -0.229417
C22   C     C_R   0.320022 0.905829 0.135922 -0.201639
C23   C     C_R   0.309968 0.900408 0.370294 -0.223736
C24   C     C_R   0.680773 0.094743 0.635203 -0.209418
H1    H     H_    0.313208 0.398300 0.653130 0.179629
H2    H     H_    0.705322 0.593894 0.337837 0.177137
H3    H     H_    0.686768 0.601677 0.153147 0.179733
H4    H     H_    0.294613 0.406106 0.837886 0.176693
H5    H     H_    0.818176 0.152615 0.888565 0.168965
H6    H     H_    0.207303 0.906881 0.163194 0.175758
H7    H     H_    0.186851 0.898363 0.346792 0.179782
H8    H     H_    0.794877 0.093963 0.662044 0.173773
C25   C     C_R   0.042334 0.363391 0.639473 -0.124185
C26   C     C_R   0.956861 0.636040 0.359806 -0.119526
C27   C     C_R   0.957631 0.636586 0.139490 -0.123657
C28   C     C_R   0.043181 0.363909 0.859848 -0.120070
C29   C     C_R   0.542911 0.136483 0.860346 -0.117034
C30   C     C_R   0.456560 0.864097 0.140300 -0.117138
C31   C     C_R   0.457644 0.863413 0.360506 -0.123750
C32   C     C_R   0.543151 0.136075 0.640160 -0.120391
C33   C     C_R   0.883756 0.366827 0.608417 -0.136889
C34   C     C_R   0.104147 0.636196 0.394885 -0.144571
C35   C     C_R   0.116204 0.633131 0.108445 -0.138455
C36   C     C_R   0.895984 0.363697 0.894947 -0.136202
C37   C     C_R   0.381416 0.104592 0.867973 -0.131883
C38   C     C_R   0.602470 0.863707 0.104803 -0.142880
C39   C     C_R   0.616169 0.866841 0.391582 -0.137721
C40   C     C_R   0.395782 0.136231 0.605105 -0.145455
C41   C     C_R   0.873889 0.405620 0.568336 -0.092963
C42   C     C_R   0.111642 0.596695 0.434481 -0.082774
C43   C     C_R   0.126074 0.594317 0.068385 -0.094979
C44   C     C_R   0.888476 0.403178 0.934557 -0.078733
C45   C     C_R   0.370590 0.065418 0.907784 -0.078769
C46   C     C_R   0.609176 0.903247 0.065207 -0.090718
C47   C     C_R   0.626017 0.905653 0.431644 -0.094133
C48   C     C_R   0.388274 0.096759 0.565490 -0.082661
H9    H     H_    0.751737 0.406257 0.544433 0.215659
H10   H     H_    0.224490 0.598781 0.461677 0.178055
H11   H     H_    0.248227 0.593669 0.044492 0.214855
H12   H     H_    0.775670 0.401058 0.961756 0.179502
H13   H     H_    0.245704 0.040844 0.912084 0.198343
H14   H     H_    0.721073 0.901037 0.037724 0.174479
H15   H     H_    0.748121 0.906277 0.455566 0.215113
H16   H     H_    0.275363 0.098852 0.538315 0.179138
C49   C     C_R   0.020048 0.442821 0.558799 -0.043892
C50   C     C_R   0.975263 0.555110 0.439270 -0.046657
C51   C     C_R   0.979923 0.557106 0.058857 -0.043404
C52   C     C_R   0.024775 0.444790 0.939351 -0.048021
C53   C     C_R   0.518610 0.058021 0.941741 -0.041169
C54   C     C_R   0.473322 0.945067 0.060807 -0.040149
C55   C     C_R   0.479899 0.942889 0.441140 -0.043677
C56   C     C_R   0.524718 0.055194 0.560656 -0.047140
C57   C     C_1   0.003555 0.482444 0.516621 0.177997
C58   C     C_1   0.989517 0.515374 0.481385 0.134725
C59   C     C_1   0.996417 0.517462 0.016694 0.177513
C60   C     C_1   0.010474 0.484524 0.981467 0.136538
C61   C     C_1   0.500333 0.017871 0.983484 0.146113
C62   C     C_1   0.486472 0.984767 0.018609 0.129916
C63   C     C_1   0.496369 0.982528 0.483307 0.177651
C64   C     C_1   0.510416 0.015463 0.518537 0.135537
S1    S     S_3+6 0.368978 0.485849 0.579583 0.021239
O21   O     O_2   0.505781 0.482159 0.622743 -0.318336
O22   O     O_2   0.461834 0.468883 0.530667 -0.303426
O23   O     O_3   0.292714 0.552301 0.574308 -0.493494
H17   H     H_    0.398086 0.573475 0.559652 0.375853
S2    S     S_3+6 0.651497 0.502390 0.405616 0.062399
O24   O     O_2   0.496481 0.524791 0.437858 -0.292082
O25   O     O_2   0.578689 0.491410 0.352731 -0.300225
O26   O     O_3   0.727012 0.441668 0.430891 -0.469928
H18   H     H_    0.824987 0.428563 0.407257 0.346814
S3    S     S_3+6 0.631016 0.514081 0.079654 0.024178
O27   O     O_2   0.494256 0.517778 0.122813 -0.315999
O28   O     O_2   0.538097 0.531026 0.030731 -0.304607
O29   O     O_3   0.707313 0.447632 0.074408 -0.489824
H19   H     H_    0.601949 0.426449 0.059754 0.378516
S4    S     S_3+6 0.348460 0.497557 0.905704 0.058918
O30   O     O_2   0.503582 0.475131 0.937909 -0.291506
O31   O     O_2   0.421116 0.508597 0.852816 -0.303906
O32   O     O_3   0.272982 0.558250 0.931029 -0.472495
H20   H     H_    0.174977 0.571384 0.907408 0.343728
S5    S     S_3+6 0.872593 0.082198 0.976171 0.064686
O33   O     O_2   0.952994 0.024708 0.968379 -0.294803
O34   O     O_2   0.018720 0.125535 0.965424 -0.327217
O35   O     O_3   0.802314 0.088247 0.037177 -0.418179
H21   H     H_    0.739014 0.125079 0.038857 0.343140
S6    S     S_3+6 0.153319 0.998744 0.095993 0.105861
O36   O     O_2   0.993344 0.976189 0.065736 -0.268701
O37   O     O_2   0.088039 0.010907 0.149404 -0.296110
O38   O     O_3   0.227328 0.058774 0.069062 -0.424497
H22   H     H_    0.327629 0.072282 0.091751 0.349023
S7    S     S_3+6 0.131057 0.985958 0.420272 0.024282
O39   O     O_2   0.994506 0.982337 0.377048 -0.315624
O40   O     O_2   0.037877 0.968957 0.469133 -0.304323
O41   O     O_3   0.207389 0.052391 0.425626 -0.490739
H23   H     H_    0.102032 0.073557 0.440301 0.377429
S8    S     S_3+6 0.848725 0.002520 0.594203 0.050998
O42   O     O_2   0.003407 0.024940 0.561851 -0.291326
O43   O     O_2   0.921997 0.991580 0.647048 -0.316218
O44   O     O_3   0.773169 0.941771 0.569008 -0.471816
H24   H     H_    0.675320 0.928679 0.592689 0.342268
H25   H     H_    0.767860 0.338780 0.614477 0.141426
H26   H     H_    0.211940 0.667667 0.392370 0.134260
H27   H     H_    0.232103 0.661180 0.114496 0.140275
H28   H     H_    0.788264 0.332202 0.892433 0.137187
H29   H     H_    0.263567 0.109470 0.842782 0.146020
H30   H     H_    0.709672 0.832016 0.106986 0.133162
H31   H     H_    0.732035 0.838770 0.385555 0.140615
H32   H     H_    0.287922 0.167682 0.607654 0.135390

loop_
_geom_bond_atom_site_label_1
_geom_bond_atom_site_label_2
_ccdc_geom_bond_type
O17   V3    S    
S7    O41   S    
O18   V4    S    
C61   C62   T    
O12   V1    S    
O19   V1    S    
C37   C45   A    
C38   H30   S    
S8    O44   S    
C43   H11   S    
O35   H21   S    
C44   H12   S    
C39   C47   A    
C57   C58   T    
O32   H20   S    
C15   S7    S    
O16   V3    S    
S1    O22   D    
O11   C3    A    
C22   C30   A    
O8    V1    S    
C14   S6    S    
C23   H7    S    
O10   C2    A    
C5    C27   S    
C23   C31   A    
C24   C32   A    
C38   C46   A    
S3    O27   D    
C34   C42   A    
O1    V3    S    
C33   C41   A    
O23   H17   S    
C30   C38   A    
O3    C2    A    
O2    V4    S    
C41   H9    S    
C16   C24   A    
S2    O24   D    
C18   C26   A    
C27   C35   A    
O29   H19   S    
C17   H1    S    
C39   H31   S    
O11   V2    S    
S4    O31   D    
C10   C18   A    
C40   H32   S    
C26   C34   A    
S5    O35   S    
C11   S3    S    
C48   C56   A    
C11   C19   A    
O5    V1    S    
C22   H6    S    
C36   H28   S    
S4    O32   S    
C43   C51   A    
C12   C52   A    
O15   C7    A    
C45   H13   S    
O16   C8    A    
O7    V2    S    
S7    O40   D    
C14   C54   A    
C42   C50   A    
C16   C56   A    
C47   H15   S    
C55   C63   S    
C13   S5    S    
S1    O23   S    
C17   C25   A    
C14   C22   A    
C13   C53   A    
C2    C32   S    
S7    O39   D    
C9    S1    S    
S8    O42   D    
C53   C61   S    
S3    O28   D    
C21   C29   A    
C40   C48   A    
C49   C57   S    
S6    O37   D    
C10   C50   A    
C47   C55   A    
C9    C49   A    
O10   V2    S    
C59   C60   T    
C18   H2    S    
S3    O29   S    
O12   C4    A    
O8    C5    A    
O13   C5    A    
C19   C27   A    
C20   C28   A    
S2    O26   S    
C15   C55   A    
C44   C52   A    
C7    C25   S    
O4    C1    A    
C46   C54   A    
O9    C1    A    
O6    V2    S    
C31   C39   A    
C56   C64   S    
C35   H27   S    
S5    O33   D    
C10   S2    S    
C12   C20   A    
S6    O38   S    
C35   C43   A    
C33   H25   S    
S4    O30   D    
C52   C60   S    
C15   C23   A    
O26   H18   S    
C42   H10   S    
C29   C37   A    
C24   H8    S    
O1    C4    A    
O2    C3    A    
O13   V3    S    
C25   C33   A    
O15   V4    S    
C20   H4    S    
S8    O43   D    
O9    V1    S    
C36   C44   A    
O7    C6    A    
S1    O21   D    
C9    C17   A    
O14   C6    A    
O20   V2    S    
S6    O36   D    
C37   H29   S    
C41   C49   A    
C48   H16   S    
C1    C31   S    
C6    C28   S    
C19   H3    S    
O38   H22   S    
O5    C8    A    
C3    C29   S    
O6    C7    A    
C16   S8    S    
C45   C53   A    
C32   C40   A    
C4    C30   S    
O3    V4    S    
C12   S4    S    
S2    O25   D    
C34   H26   S    
O4    V3    S    
O41   H23   S    
C21   H5    S    
O14   V4    S    
C28   C36   A    
C8    C26   S    
C46   H14   S    
C63   C64   T    
S5    O34   D    
C51   C59   S    
C13   C21   A    
C50   C58   S    
O44   H24   S    
C54   C62   S    
C11   C51   A    
