data_mof_unit_29702.cif
_audit_creation_date              2012-10-26T20:06:15-0400
_audit_creation_method            fapswitch 2.2
_symmetry_space_group_name_H-M    P1
_symmetry_Int_Tables_number       1
_space_group_crystal_system       triclinic
_cell_length_a                    9.524489
_cell_length_b                    10.891187
_cell_length_c                    13.512411
_cell_angle_alpha                 90.793694
_cell_angle_beta                  74.047875
_cell_angle_gamma                 88.894409
_cell_volume                      1347.18792817

loop_
_atom_site_label
_atom_site_type_symbol
_atom_type_description
_atom_site_fract_x
_atom_site_fract_y
_atom_site_fract_z
_atom_type_partial_charge
C1    C     C_R   0.496998 0.738599 0.503548 0.586462
C2    C     C_R   0.378034 0.509401 0.813976 0.007364
C3    C     C_R   0.624136 0.934594 0.500807 -0.176804
C4    C     C_R   0.422782 0.505520 0.699935 0.536942
C5    C     C_R   0.628798 0.061633 0.496235 -0.176929
C6    C     C_R   0.508841 0.128738 0.482967 -0.042177
C7    C     C_R   0.386380 0.066552 0.470595 0.256505
C8    C     C_R   0.369352 0.944289 0.498183 0.332593
C9    C     C_R   0.494344 0.873805 0.503098 -0.030956
C10   C     C_R   0.901776 0.584139 0.558138 0.350289
C11   C     C_R   0.048440 0.576878 0.563491 0.052837
C12   C     C_R   0.437784 0.523653 0.979083 0.063403
C13   C     C_R   0.099560 0.418634 0.439356 0.067717
C14   C     C_R   0.950303 0.417175 0.440721 -0.010141
C15   C     C_R   0.504049 0.262483 0.492457 0.542482
C16   C     C_R   0.576098 0.508911 0.301191 0.555776
C17   C     C_R   0.799589 0.557104 0.028137 -0.132310
C18   C     C_R   0.615769 0.530403 0.190120 -0.004718
C19   C     C_R   0.240245 0.464777 0.865601 -0.119954
C20   C     C_R   0.202999 0.446235 0.971175 -0.135263
C21   C     C_R   0.301953 0.472098 0.027068 -0.065363
C22   C     C_R   0.475113 0.544374 0.872091 0.022077
C23   C     C_R   0.542589 0.546894 0.033471 0.031642
C24   C     C_R   0.689290 0.565648 0.978116 0.021735
C25   C     C_R   0.720546 0.598685 0.875433 -0.116216
C26   C     C_R   0.609721 0.598584 0.826616 -0.101685
C27   C     C_R   0.506069 0.557669 0.140921 0.211748
C28   C     C_R   0.763255 0.529961 0.132532 -0.163187
Cu1   Cu    Cu3+1 0.359340 0.499980 0.500000 1.082192
Cu2   Cu    Cu3+1 0.640660 0.500020 0.500000 1.012755
H1    H     H_    0.850012 0.515620 0.169115 0.148775
H2    H     H_    0.099114 0.406701 0.009239 0.120862
H3    H     H_    0.629278 0.641017 0.753662 0.205326
H4    H     H_    0.721036 0.884610 0.506275 0.192577
H5    H     H_    0.331896 0.177592 0.377418 0.311993
H6    H     H_    0.047199 0.820364 0.456141 0.350444
H7    H     H_    0.864400 0.734032 0.641680 0.314389
H8    H     H_    0.130698 0.641326 0.287641 0.374771
H9    H     H_    0.726167 0.106980 0.502799 0.176398
H10   H     H_    0.083339 0.634539 0.616650 0.170529
H11   H     H_    0.176142 0.355074 0.389249 0.145415
H12   H     H_    0.914306 0.351285 0.392821 0.121615
H13   H     H_    0.828459 0.628495 0.834263 0.125227
H14   H     H_    0.913015 0.567794 0.986091 0.132776
H15   H     H_    0.163512 0.438092 0.823547 0.139637
H16   H     H_    0.273698 0.446842 0.106968 0.164989
N1    N     N_R   0.147940 0.499970 0.499970 -0.234458
N2    N     N_R   0.852060 0.500060 0.499990 -0.204254
O1    O     O_R   0.381250 0.680340 0.500010 -0.405285
O2    O     O_2   0.174502 0.825960 0.641903 -0.331711
O3    O     O_2   0.080479 0.999747 0.566365 -0.246856
O4    O     O_3   0.150133 0.800921 0.453757 -0.478172
O5    O     O_3   0.810453 0.678865 0.606815 -0.708163
O6    O     O_2   0.401554 0.742768 0.276913 -0.228018
O7    O     O_2   0.314621 0.736471 0.122952 -0.271061
O8    O     O_3   0.211351 0.579526 0.265375 -0.553716
O9    O     O_R   0.618820 0.680370 0.500010 -0.466830
O10   O     O_R   0.323240 0.499950 0.650980 -0.515161
O11   O     O_R   0.560810 0.499980 0.650980 -0.485472
O12   O     O_R   0.381180 0.319630 0.499990 -0.489053
O13   O     O_R   0.618750 0.319660 0.499990 -0.517126
O14   O     O_R   0.439190 0.500020 0.349020 -0.447569
O15   O     O_R   0.676760 0.500050 0.349020 -0.529631
O16   O     O_3   0.280893 0.123346 0.433666 -0.627715
S1    S     S_3+6 0.187928 0.893017 0.543536 0.051903
S2    S     S_3+6 0.356771 0.659176 0.202116 0.033810

loop_
_geom_bond_atom_site_label_1
_geom_bond_atom_site_label_2
_ccdc_geom_bond_type
C2    C22   A    
C2    C4    S    
C23   C24   A    
C19   H15   S    
H5    O16   S    
C3    C9    A    
C16   O15   A    
C1    O9    A    
H8    O8    S    
C15   O12   A    
C26   H3    S    
C11   N1    A    
C19   C20   A    
H6    O4    S    
Cu1   O12   S    
C14   H12   S    
H7    O5    S    
Cu2   O11   S    
C25   H13   S    
C13   H11   S    
C15   O13   A    
C17   H14   S    
C1    C9    S    
C8    S1    S    
C27   S2    S    
Cu1   O1    S    
C13   C14   A    
C24   C25   A    
C12   C23   A    
Cu1   Cu2   S    
C16   O14   A    
Cu1   N1    S    
O6    S2    D    
Cu2   O15   S    
C4    O11   A    
Cu2   N2    S    
C25   C26   A    
C6    C7    A    
C23   C27   A    
C5    H9    S    
C10   N2    A    
C5    C6    A    
O2    S1    D    
O8    S2    S    
C7    O16   S    
C17   C24   A    
O3    S1    D    
C10   C11   A    
O4    S1    S    
C22   C26   A    
C11   H10   S    
Cu2   O9    S    
C12   C22   A    
C7    C8    A    
O7    S2    D    
C18   C28   A    
Cu1   O10   S    
C20   C21   A    
C21   H16   S    
C20   H2    S    
Cu2   O13   S    
C4    O10   A    
C13   N1    A    
C10   O5    S    
Cu1   O14   S    
C14   N2    A    
C3    H4    S    
C6    C15   S    
C2    C19   A    
C17   C28   A    
C1    O1    A    
C12   C21   A    
C28   H1    S    
C18   C27   A    
C8    C9    A    
C3    C5    A    
C16   C18   S    
