data_mof_unit_23904.cif
_audit_creation_date              2012-12-11T14:52:25-0500
_audit_creation_method            fapswitch 2.2
_symmetry_space_group_name_H-M    P1
_symmetry_Int_Tables_number       1
_space_group_crystal_system       triclinic
_cell_length_a                    8.189983
_cell_length_b                    15.145298
_cell_length_c                    27.005141
_cell_angle_alpha                 97.034319
_cell_angle_beta                  92.629371
_cell_angle_gamma                 80.480598
_cell_volume                      3277.59415719

loop_
_atom_site_label
_atom_site_type_symbol
_atom_type_description
_atom_site_fract_x
_atom_site_fract_y
_atom_site_fract_z
_atom_type_partial_charge
Ba1   Ba    Ba6+2 0.860900 0.457020 0.523210 1.645401
Ba2   Ba    Ba6+2 0.328940 0.542910 0.476780 1.647969
C1    C     C_3   0.692861 0.140158 0.655897 -0.354207
C2    C     C_R   0.884558 0.574287 0.178261 0.580296
C3    C     C_2   0.726211 0.521189 0.269733 -0.076247
C4    C     C_3   0.185285 0.257282 0.658424 0.286979
C5    C     C_3   0.692717 0.517690 0.323983 -0.067796
C6    C     C_1   0.988247 0.477592 0.339144 0.050763
C7    C     C_2   0.021157 0.467479 0.289914 -0.022617
C8    C     C_2   0.881611 0.494468 0.252558 0.225970
C9    C     C_R   0.987393 0.495596 0.098453 -0.078801
C10   C     C_R   0.006698 0.413819 0.119619 -0.034833
C11   C     C_R   0.070140 0.333731 0.090285 -0.061539
C12   C     C_3   0.686288 0.230472 0.636127 0.336469
C13   C     C_R   0.922399 0.576071 0.127776 -0.031137
C14   C     C_2   0.847694 0.525470 0.355610 -0.275974
C15   C     C_2   0.351134 0.481755 0.642929 -0.249482
C16   C     C_3   0.148192 0.238742 0.710423 -0.326024
C17   C     C_R   0.158732 0.418102 0.970125 0.019764
C18   C     C_R   0.039439 0.579232 0.974775 0.019614
C19   C     C_R   0.122089 0.499335 0.947512 0.050760
C20   C     C_R   0.250914 0.342082 0.942578 -0.098829
C21   C     C_R   0.300293 0.344960 0.894161 -0.058219
C22   C     C_R   0.258881 0.423423 0.870607 -0.030883
C23   C     C_3   0.559485 0.671930 0.634926 0.375503
C24   C     C_R   0.168762 0.500693 0.897118 -0.078375
C25   C     C_R   0.125997 0.579428 0.873333 -0.033743
C26   C     C_R   0.170925 0.579400 0.823261 0.591868
C27   C     C_R   0.306238 0.426058 0.821086 0.578742
C28   C     C_3   0.223904 0.268097 0.417660 0.305080
C29   C     C_2   0.460741 0.482687 0.730535 -0.064169
C30   C     C_3   0.501847 0.487800 0.676668 -0.057048
C31   C     C_1   0.206154 0.523457 0.659168 -0.013443
C32   C     C_2   0.167592 0.527255 0.706759 -0.126274
C33   C     C_2   0.301041 0.503506 0.745417 0.220256
C34   C     C_3   0.651768 0.696928 0.683524 -0.281080
C35   C     C_R   0.104352 0.415691 0.019465 0.019911
C36   C     C_R   0.031330 0.496773 0.047790 0.050420
C37   C     C_R   0.001819 0.578997 0.025997 0.019933
C38   C     C_R   0.118921 0.334554 0.041560 -0.099397
C39   C     C_R   0.898392 0.656993 0.106245 -0.060423
C40   C     C_3   0.254721 0.166314 0.404043 -0.385278
C41   C     C_R   0.996700 0.656761 0.949515 -0.099697
C42   C     C_R   0.038496 0.656599 0.900023 -0.058320
C43   C     C_R   0.936569 0.658549 0.056612 -0.099480
C44   C     C_R   0.765202 0.768357 0.488431 -0.249786
C45   C     C_3   0.010976 0.739904 0.342999 0.276099
C46   C     C_R   0.850963 0.827867 0.469377 0.014932
C47   C     C_R   0.790045 0.920706 0.475208 -0.133862
C48   C     C_R   0.640461 0.955421 0.500738 0.013690
C49   C     C_R   0.558442 0.892084 0.520301 -0.108541
C50   C     C_R   0.620390 0.800008 0.513901 0.041349
C51   C     C_R   0.421027 0.088583 0.532758 -0.130027
C52   C     C_3   0.118414 0.743849 0.624496 0.227833
C53   C     C_R   0.355947 0.180240 0.538327 0.007117
C54   C     C_R   0.584193 0.212363 0.494214 0.074740
C55   C     C_R   0.650204 0.120032 0.487838 -0.115462
C56   C     C_3   0.047218 0.758920 0.291014 -0.311949
C57   C     C_R   0.571608 0.055579 0.507717 0.004422
C58   C     C_R   0.440523 0.241966 0.520750 -0.285736
C59   C     C_3   0.147609 0.766558 0.680840 0.460286
C60   C     C_3   0.714252 0.329744 0.371659 0.299569
C61   C     C_3   0.747416 0.291000 0.317642 -0.372454
C62   C     C_3   0.063336 0.830443 0.600229 -0.244142
C63   C     C_3   0.182074 0.413620 0.270022 -0.286103
C64   C     C_3   0.515597 0.772362 0.368447 0.347458
C65   C     C_3   0.520046 0.863591 0.350972 -0.371413
C66   C     C_R   0.962115 0.413763 0.169704 0.583293
F1    F     F_    0.261779 0.824866 0.690001 -0.704098
H1    H     H_    0.795957 0.226227 0.612698 0.103428
H2    H     H_    0.808299 0.124607 0.678588 0.138640
H3    H     H_    0.840255 0.228408 0.316408 0.140876
H4    H     H_    0.796880 0.339342 0.297235 0.078251
H5    H     H_    0.630897 0.275077 0.298609 0.117212
H6    H     H_    0.571280 0.243389 0.613175 -0.036873
H7    H     H_    0.691047 0.086177 0.624173 0.077167
H8    H     H_    0.446079 0.648833 0.644813 -0.093356
H9    H     H_    0.633641 0.614507 0.613179 0.067191
H10   H     H_    0.568137 0.745069 0.709070 0.170895
H11   H     H_    0.696744 0.635651 0.702110 0.044597
H12   H     H_    0.348754 0.147470 0.374623 0.127968
H13   H     H_    0.759011 0.728968 0.676224 0.118258
H14   H     H_    0.584228 0.141928 0.679363 0.132578
H15   H     H_    0.186126 0.291738 0.738416 0.128404
H16   H     H_    0.085796 0.674101 0.349085 0.096136
H17   H     H_    0.877549 0.735494 0.344981 -0.006092
H18   H     H_    0.175162 0.774043 0.290149 0.140272
H19   H     H_    0.037662 0.698713 0.263992 0.132276
H20   H     H_    0.957950 0.817241 0.280036 0.120956
H21   H     H_    0.628879 0.754584 0.391711 -0.048182
H22   H     H_    0.403720 0.778382 0.391143 0.099987
H23   H     H_    0.300108 0.131989 0.437059 0.067042
H24   H     H_    0.525387 0.915046 0.383808 0.074838
H25   H     H_    0.406926 0.883972 0.328135 0.130771
H26   H     H_    0.125508 0.327197 0.653812 0.082319
H27   H     H_    0.631039 0.860166 0.328250 0.128609
H28   H     H_    0.084436 0.269552 0.105178 0.121558
H29   H     H_    0.560756 0.468274 0.757622 0.101797
H30   H     H_    0.371071 0.284649 0.875026 0.124691
H31   H     H_    0.291031 0.279430 0.957903 0.071656
H32   H     H_    0.164303 0.269676 0.021676 0.071268
H33   H     H_    0.623509 0.538749 0.243978 0.097783
H34   H     H_    0.137692 0.142857 0.390055 0.127987
H35   H     H_    0.850021 0.720204 0.127902 0.121249
H36   H     H_    0.927206 0.718715 0.966642 0.071484
H37   H     H_    0.321334 0.251460 0.655170 -0.013104
H38   H     H_    0.001959 0.717956 0.882683 0.125491
H39   H     H_    0.039526 0.545764 0.717713 0.113872
H40   H     H_    0.917107 0.724102 0.043723 0.070505
H41   H     H_    0.847395 0.577025 0.387342 0.057160
H42   H     H_    0.359075 0.436849 0.608202 0.059753
H43   H     H_    0.347513 0.045315 0.547036 0.078385
H44   H     H_    0.862448 0.963577 0.459930 0.078027
H45   H     H_    0.232476 0.709560 0.606356 0.066754
H46   H     H_    0.759792 0.100534 0.466007 0.081588
H47   H     H_    0.448020 0.911443 0.541638 0.072110
H48   H     H_    0.388204 0.312802 0.524618 0.068298
H49   H     H_    0.013293 0.239440 0.713629 0.145825
H50   H     H_    0.813748 0.697000 0.484576 0.080061
H51   H     H_    0.216591 0.171984 0.718159 0.132481
H52   H     H_    0.341769 0.291318 0.429369 0.009933
H53   H     H_    0.135891 0.284919 0.448681 0.073038
H54   H     H_    0.948511 0.869378 0.617338 0.081522
H55   H     H_    0.162236 0.873151 0.604245 0.137008
H56   H     H_    0.029670 0.798568 0.698807 0.043253
H57   H     H_    0.037811 0.813319 0.559847 0.094634
H58   H     H_    0.290155 0.421874 0.294824 0.134625
H59   H     H_    0.171846 0.340913 0.264374 0.140204
H60   H     H_    0.211650 0.435628 0.234288 0.099783
H61   H     H_    0.195626 0.704546 0.698187 0.000215
H62   H     H_    0.829186 0.350222 0.388977 0.020626
H63   H     H_    0.613553 0.388704 0.372882 0.031901
N1    N     N_R   0.911355 0.494055 0.199450 -0.424778
N2    N     N_R   0.259374 0.502995 0.797449 -0.425471
O1    O     O_2   0.905540 0.548000 0.618290 -0.460773
O2    O     O_2   0.191686 0.819191 0.466006 -0.484429
O3    O     O_3   0.053334 0.809774 0.377775 -0.606851
O4    O     O_3   0.137550 0.547930 0.558110 -0.457653
O5    O     O_3   0.574690 0.391440 0.474610 -0.485040
O6    O     O_2   0.341330 0.720570 0.525000 -0.458753
O7    O     O_3   0.517586 0.748420 0.609420 -0.617135
O8    O     O_2   0.347112 0.574254 0.327014 -0.505270
O9    O     O_3   0.509494 0.707441 0.326814 -0.592642
O10   O     O_2   0.968177 0.342178 0.186773 -0.601586
O11   O     O_2   0.388335 0.359444 0.798920 -0.600657
O12   O     O_3   0.665014 0.262867 0.395944 -0.635680
O13   O     O_2   0.827197 0.644325 0.203314 -0.605687
O14   O     O_2   0.133065 0.647936 0.802888 -0.600389
O15   O     O_3   0.688580 0.383890 0.587540 -0.491076
O16   O     O_2   0.847476 0.430404 0.672207 -0.497335
O17   O     O_3   0.992968 0.690870 0.615773 -0.657057
O18   O     O_3   0.686129 0.298704 0.676302 -0.591464
O19   O     O_2   0.848360 0.279400 0.474970 -0.466804
O20   O     O_3   0.104690 0.337720 0.562900 -0.491214
O21   O     O_2   0.017826 0.178277 0.530505 -0.484264
O22   O     O_3   0.122399 0.194320 0.623293 -0.599197
O23   O     O_2   0.284150 0.451970 0.381680 -0.473476
O24   O     O_3   0.052160 0.451990 0.441880 -0.487842
O25   O     O_3   0.501140 0.616030 0.412450 -0.476571
O26   O     O_3   0.159912 0.307706 0.375410 -0.636668
O27   O     O_3   0.615020 0.608480 0.525380 -0.480602
O28   O     O_3   0.085020 0.662210 0.437090 -0.486244
P1    P     P_3+3 0.070480 0.574800 0.610950 0.976264
P2    P     P_3+3 0.668430 0.292880 0.460530 0.987613
P3    P     P_3+3 0.150062 0.221228 0.563430 0.939994
P4    P     P_3+3 0.119230 0.425130 0.389040 0.979799
P5    P     P_3+3 0.045635 0.780109 0.438165 0.949767
P6    P     P_3+3 0.680680 0.402268 0.652923 0.957091
P7    P     P_3+3 0.525801 0.720281 0.544299 0.963965
P8    P     P_3+3 0.512913 0.601805 0.347568 0.960928

loop_
_geom_bond_atom_site_label_1
_geom_bond_atom_site_label_2
_ccdc_geom_bond_type
C47   H44   S    
C19   C24   A    
O6    P7    D    
O25   P8    S    
C16   H51   S    
C21   H30   S    
C8    N1    S    
C40   H34   S    
Ba2   O28   S    
C51   C57   A    
C14   H41   S    
C64   H21   S    
C28   O26   S    
C10   C11   A    
O15   P6    S    
C24   C25   A    
C60   C61   S    
C23   H8    S    
C48   C57   S    
C63   H58   S    
C66   N1    Am   
C17   C19   A    
C22   C24   A    
C32   C33   S    
C35   C38   A    
C27   O11   D    
C36   C37   A    
C43   H40   S    
C55   C57   A    
C44   C50   A    
C54   C55   A    
C33   N2    S    
Ba1   Ba2   S    
C41   H36   S    
C29   H29   S    
C22   C27   A    
C11   C38   A    
C17   C35   A    
C38   H32   S    
C9    C13   A    
C25   C42   A    
C28   H53   S    
Ba1   P2    S    
C34   H13   S    
C6    C7    D    
C65   H25   S    
C16   H15   S    
C21   C22   A    
O20   P3    S    
Ba1   O15   S    
O4    P1    S    
O26   P4    S    
C7    C8    S    
Ba2   P4    S    
C40   H23   S    
Ba1   O5    S    
C37   C43   A    
O27   P7    S    
C64   C65   S    
Ba1   O27   S    
C6    C14   D    
C53   C58   A    
C56   H18   S    
C12   H1    S    
C40   H12   S    
C15   C31   D    
C15   H42   S    
Ba2   O27   S    
O18   P6    S    
C48   C49   A    
C51   C53   A    
C4    C16   S    
C44   C46   A    
C26   O14   D    
C20   H31   S    
O19   P2    D    
C49   C50   A    
Ba2   O4    S    
C45   H17   S    
C60   H63   S    
C17   C20   A    
C13   C39   A    
C55   H46   S    
C34   H11   S    
C3    C5    S    
C18   C37   A    
Ba2   O25   S    
C64   O9    S    
C61   H4    S    
C62   H55   S    
C2    O13   D    
O12   P2    S    
C23   H9    S    
O23   P4    D    
C9    C36   A    
C1    H2    S    
C41   C42   A    
C63   H59   S    
C35   C36   A    
C10   C66   A    
C29   C30   S    
C28   H52   S    
Ba2   O24   S    
O16   P6    D    
C45   O3    S    
O7    P7    S    
C31   C32   D    
C4    H37   S    
C58   H48   S    
C61   H3    S    
Ba1   O19   S    
C1    H7    S    
C64   H22   S    
C1    C12   S    
C6    P4    S    
C59   H61   S    
C51   H43   S    
C46   C47   A    
C52   C59   S    
C47   C48   A    
O17   P1    S    
C30   P6    S    
C1    H14   S    
C65   H27   S    
C26   N2    Am   
Ba2   O5    S    
C45   H16   S    
O3    P5    S    
C18   C41   A    
O24   P4    S    
C42   H38   S    
C59   F1    S    
C16   H49   S    
C3    H33   S    
C5    C14   S    
C39   C43   A    
C31   P1    S    
O1    P1    D    
C60   H62   S    
C23   O7    S    
O9    P8    S    
C34   H10   S    
C56   H19   S    
C50   P7    S    
C66   O10   D    
C63   H60   S    
C9    C10   A    
C52   O17   S    
C61   H5    S    
C62   H54   S    
C54   P2    S    
C62   H57   S    
C49   H47   S    
C39   H35   S    
O8    P8    D    
Ba2   O6    S    
C12   H6    S    
C2    C13   A    
C32   H39   S    
C3    C8    D    
C45   C56   S    
Ba1   O24   S    
C46   P5    S    
C52   C62   S    
O22   P3    S    
O21   P3    D    
Ba2   O23   S    
C52   H45   S    
C44   H50   S    
C27   N2    Am   
C29   C33   D    
C11   H28   S    
Ba1   O20   S    
C56   H20   S    
C7    C63   S    
O2    P5    D    
O5    P2    S    
C23   C34   S    
O28   P5    S    
C54   C58   A    
C18   C19   A    
Ba1   P1    S    
C4    H26   S    
C60   O12   S    
C5    P8    S    
C12   O18   S    
C25   C26   A    
C65   H24   S    
C15   C30   S    
C53   P3    S    
C20   C21   A    
C28   C40   S    
C59   H56   S    
Ba1   O1    S    
C4    O22   S    
Ba1   O4    S    
C2    N1    Am   
