data_mof_unit_8753.cif
_audit_creation_date              2012-12-10T16:52:10-0500
_audit_creation_method            fapswitch 2.2
_symmetry_space_group_name_H-M    P1
_symmetry_Int_Tables_number       1
_space_group_crystal_system       triclinic
_cell_length_a                    7.753955
_cell_length_b                    8.563499
_cell_length_c                    14.932298
_cell_angle_alpha                 91.202221
_cell_angle_beta                  85.64888
_cell_angle_gamma                 93.326002
_cell_volume                      986.85937128

loop_
_atom_site_label
_atom_site_type_symbol
_atom_type_description
_atom_site_fract_x
_atom_site_fract_y
_atom_site_fract_z
_atom_type_partial_charge
C1    C     C_R   0.544695 0.794710 0.497601 0.940724
C2    C     C_R   0.648995 0.559365 0.808996 -0.199251
C3    C     C_R   0.495587 0.504575 0.231478 -0.066039
C4    C     C_R   0.504413 0.495426 0.768522 -0.066038
C5    C     C_R   0.639995 0.568826 0.181239 -0.183015
C6    C     C_R   0.360005 0.431175 0.818761 -0.183016
C7    C     C_R   0.642211 0.568253 0.088738 0.097721
C8    C     C_R   0.357787 0.431751 0.911262 0.097719
C9    C     C_R   0.498035 0.501346 0.046665 0.040263
C10   C     C_R   0.501963 0.498658 0.953335 0.040264
C11   C     C_R   0.350554 0.436664 0.098029 0.067966
C12   C     C_R   0.455305 0.205290 0.502399 0.940725
C13   C     C_R   0.649445 0.563341 0.901971 0.067966
C14   C     C_R   0.787055 0.632655 0.038158 -0.198961
C15   C     C_R   0.212943 0.367351 0.961842 -0.198960
C16   C     C_R   0.791759 0.631302 0.944990 0.148531
C17   C     C_R   0.208239 0.368705 0.055010 0.148531
C18   C     C_2   0.563371 0.956208 0.512470 -0.079336
C19   C     C_2   0.436629 0.043791 0.487529 -0.079336
C20   C     C_R   0.501661 0.498843 0.673095 0.896789
C21   C     C_R   0.498339 0.501157 0.326905 0.896789
C22   C     C_R   0.351004 0.440638 0.191004 -0.199250
H1    H     H_    0.242050 0.391339 0.232732 0.186425
H2    H     H_    0.757949 0.608664 0.767268 0.186425
H3    H     H_    0.750510 0.619342 0.214363 0.169755
H4    H     H_    0.249490 0.380659 0.785638 0.169754
H5    H     H_    0.897032 0.684158 0.071148 0.185159
H6    H     H_    0.102965 0.315848 0.928852 0.185159
H7    H     H_    0.014353 0.382383 0.432060 0.213389
H8    H     H_    0.985647 0.617617 0.567940 0.213389
I1    I     I_    0.017227 0.737500 0.875824 -0.357427
I2    I     I_    0.982770 0.262515 0.124176 -0.357432
I3    I     I_    0.761196 0.026191 0.601371 -0.277760
I4    I     I_    0.238801 0.973809 0.398630 -0.277761
N1    N     N_2   0.950330 0.457950 0.475660 -0.153180
N2    N     N_2   0.049670 0.542050 0.524340 -0.153181
O1    O     O_R   0.389250 0.738570 0.505970 -0.594159
O2    O     O_R   0.610750 0.261430 0.494030 -0.594159
O3    O     O_R   0.678390 0.711620 0.490370 -0.608392
O4    O     O_R   0.321610 0.288380 0.509630 -0.608392
O5    O     O_R   0.355420 0.513510 0.639950 -0.613572
O6    O     O_R   0.644580 0.486490 0.360050 -0.613571
O7    O     O_R   0.644560 0.486560 0.624350 -0.623217
O8    O     O_R   0.355440 0.513440 0.375650 -0.623217
Zn1   Zn    Zn3+2 0.306940 0.517990 0.510420 1.007590
Zn2   Zn    Zn3+2 0.693060 0.482010 0.489580 1.007590

loop_
_geom_bond_atom_site_label_1
_geom_bond_atom_site_label_2
_ccdc_geom_bond_type
C12   O4    A    
C2    C4    A    
C15   C17   A    
H8    N2    S    
C14   H5    S    
C21   O8    A    
C9    C10   A    
H7    N1    S    
C11   C22   A    
N1    N2    D    
C1    O1    A    
C20   O5    A    
C15   H6    S    
N2    Zn1   S    
C16   I1    S    
C2    H2    S    
C9    C11   A    
C1    C18   S    
C6    H4    S    
O3    Zn2   S    
C5    H3    S    
C12   C19   S    
C4    C6    A    
O7    Zn2   S    
C8    C15   A    
C12   O2    A    
O4    Zn1   S    
C17   I2    S    
C18   I3    S    
C14   C16   A    
O2    Zn2   S    
C3    C21   S    
C1    O3    A    
O1    Zn1   S    
C21   O6    A    
C4    C20   S    
C7    C9    A    
C20   O7    A    
O8    Zn1   S    
C8    C10   A    
C18   C19   D    
O6    Zn2   S    
C13   C16   A    
C5    C7    A    
C2    C13   A    
O5    Zn1   S    
C22   H1    S    
C11   C17   A    
C3    C22   A    
C6    C8    A    
N1    Zn2   S    
C10   C13   A    
C7    C14   A    
C3    C5    A    
C19   I4    S    
