data_mof_unit_12093.cif
_audit_creation_date              2012-10-26T20:22:33-0400
_audit_creation_method            fapswitch 2.2
_symmetry_space_group_name_H-M    P1
_symmetry_Int_Tables_number       1
_space_group_crystal_system       triclinic
_cell_length_a                    9.516333
_cell_length_b                    10.833478
_cell_length_c                    17.187609
_cell_angle_alpha                 90.159823
_cell_angle_beta                  85.97835
_cell_angle_gamma                 90.00914
_cell_volume                      1767.58617164

loop_
_atom_site_label
_atom_site_type_symbol
_atom_type_description
_atom_site_fract_x
_atom_site_fract_y
_atom_site_fract_z
_atom_type_partial_charge
C1    C     C_R   0.500037 0.737933 0.500053 0.549267
C2    C     C_R   0.080737 0.426137 0.449713 0.017580
C3    C     C_R   0.068106 0.573837 0.550269 0.017777
C4    C     C_R   0.931889 0.426183 0.449724 0.018243
C5    C     C_R   0.481690 0.503293 0.650121 0.549699
C6    C     C_R   0.518324 0.503004 0.349886 0.548133
C7    C     C_R   0.472106 0.524445 0.734094 -0.008049
C8    C     C_R   0.528039 0.523870 0.265972 -0.007596
C9    C     C_R   0.569694 0.603319 0.765871 -0.128671
C10   C     C_R   0.431644 0.603863 0.234444 -0.128307
C11   C     C_R   0.557713 0.633942 0.845166 0.068735
C12   C     C_R   0.499963 0.262062 0.499943 0.552437
C13   C     C_R   0.444119 0.634402 0.155247 0.067048
C14   C     C_R   0.451005 0.576066 0.894155 0.017206
C15   C     C_R   0.549922 0.575282 0.106073 0.017148
C16   C     C_R   0.351576 0.499809 0.861234 -0.128744
C17   C     C_R   0.648148 0.497805 0.138753 -0.127265
C18   C     C_R   0.360955 0.475287 0.781573 -0.125395
C19   C     C_R   0.638415 0.473394 0.218345 -0.123469
C20   C     C_2   0.442819 0.585207 0.979890 -0.056486
C21   C     C_2   0.558272 0.584434 0.020366 -0.056227
C22   C     C_2   0.352235 0.733801 0.127808 0.559119
C23   C     C_R   0.627620 0.936170 0.500683 -0.130562
C24   C     C_2   0.651202 0.732152 0.872927 0.558699
C25   C     C_R   0.372380 0.063800 0.499306 -0.132351
C26   C     C_R   0.627607 0.063873 0.500592 -0.132247
C27   C     C_R   0.372396 0.936097 0.499381 -0.130887
C28   C     C_R   0.499983 0.128206 0.499929 0.020773
C29   C     C_R   0.500018 0.871771 0.500056 0.022070
C30   C     C_R   0.919251 0.573868 0.550294 0.019753
Cu1   Cu    Cu3+1 0.359340 0.499980 0.500000 0.947165
Cu2   Cu    Cu3+1 0.640660 0.500020 0.500000 0.950338
H1    H     H_    0.650893 0.646485 0.727704 0.146618
H2    H     H_    0.272605 0.111796 0.498744 0.131564
H3    H     H_    0.727378 0.111927 0.501075 0.131943
H4    H     H_    0.272629 0.888038 0.498885 0.133585
H5    H     H_    0.858082 0.633162 0.590505 0.114866
H6    H     H_    0.141891 0.366822 0.409520 0.114729
H7    H     H_    0.119178 0.633107 0.590459 0.119173
H8    H     H_    0.880816 0.366929 0.409525 0.109385
H9    H     H_    0.331122 0.878835 0.056160 0.350407
H10   H     H_    0.674716 0.876761 0.945100 0.350870
H11   H     H_    0.351150 0.647981 0.272760 0.158073
H12   H     H_    0.715156 0.413244 0.242460 0.126154
H13   H     H_    0.283322 0.416021 0.757298 0.134243
H14   H     H_    0.661417 0.574822 0.989645 0.132036
H15   H     H_    0.339527 0.576847 0.010578 0.131601
H16   H     H_    0.268088 0.456638 0.897706 0.121922
H17   H     H_    0.730962 0.453659 0.102146 0.121099
H18   H     H_    0.727392 0.888170 0.501258 0.133553
N1    N     N_R   0.147930 0.499970 0.499980 -0.228657
N2    N     N_R   0.852070 0.500030 0.500020 -0.226671
O1    O     O_R   0.381260 0.680340 0.500000 -0.509862
O2    O     O_R   0.403431 0.814921 0.069407 -0.644977
O3    O     O_2   0.770705 0.744163 0.842759 -0.531992
O4    O     O_R   0.601381 0.813766 0.931655 -0.644753
O5    O     O_R   0.618740 0.319660 0.500000 -0.507965
O6    O     O_R   0.618830 0.680370 0.500010 -0.509270
O7    O     O_R   0.381170 0.319630 0.499990 -0.508207
O8    O     O_R   0.367440 0.500000 0.613600 -0.500962
O9    O     O_R   0.632560 0.500000 0.386400 -0.498636
O10   O     O_R   0.605010 0.500030 0.613600 -0.503254
O11   O     O_R   0.394990 0.499970 0.386400 -0.505008
O12   O     O_2   0.232889 0.747205 0.157963 -0.526543

loop_
_geom_bond_atom_site_label_1
_geom_bond_atom_site_label_2
_ccdc_geom_bond_type
Cu1   O8    S    
C13   C22   S    
C3    C30   A    
C2    C4    A    
C14   C20   S    
C27   H4    S    
C25   C27   A    
C6    O11   A    
C5    C7    S    
C2    H6    S    
C26   C28   A    
Cu1   Cu2   S    
Cu2   O6    S    
C25   H2    S    
C7    C18   A    
C16   H16   S    
C1    C29   S    
Cu2   O10   S    
C22   O2    S    
C1    O6    A    
Cu1   O1    S    
C24   O3    D    
C9    H1    S    
C9    C11   A    
C30   N2    A    
Cu2   O5    S    
C12   C28   S    
C6    C8    S    
C12   O5    A    
C23   C29   A    
C6    O9    A    
C8    C10   A    
C17   C19   A    
C4    N2    A    
C5    O10   A    
C7    C9    A    
C13   C15   A    
C19   H12   S    
C11   C14   A    
C14   C16   A    
H9    O2    S    
C20   H15   S    
C27   C29   A    
C2    N1    A    
C3    H7    S    
C24   O4    S    
C8    C19   A    
C18   H13   S    
Cu1   O11   S    
C11   C24   S    
C15   C21   S    
C20   C21   D    
C16   C18   A    
C21   H14   S    
C23   C26   A    
Cu1   O7    S    
C26   H3    S    
C15   C17   A    
C1    O1    A    
Cu2   N2    S    
C23   H18   S    
C3    N1    A    
C5    O8    A    
H10   O4    S    
C10   H11   S    
C12   O7    A    
C22   O12   D    
C17   H17   S    
Cu2   O9    S    
C4    H8    S    
C30   H5    S    
Cu1   N1    S    
C25   C28   A    
C10   C13   A    
