data_mof_unit_8223.cif
_audit_creation_date              2012-12-10T19:12:18-0500
_audit_creation_method            fapswitch 2.2
_symmetry_space_group_name_H-M    P1
_symmetry_Int_Tables_number       1
_space_group_crystal_system       triclinic
_cell_length_a                    7.811389
_cell_length_b                    9.079073
_cell_length_c                    17.023203
_cell_angle_alpha                 89.61043
_cell_angle_beta                  93.993618
_cell_angle_gamma                 89.999184
_cell_volume                      1204.32896347

loop_
_atom_site_label
_atom_site_type_symbol
_atom_type_description
_atom_site_fract_x
_atom_site_fract_y
_atom_site_fract_z
_atom_type_partial_charge
C1    C     C_R   0.499984 0.220148 0.500007 0.816361
C2    C     C_R   0.500024 0.779847 0.500021 0.869577
C3    C     C_R   0.522184 0.498134 0.651898 0.867414
C4    C     C_R   0.478326 0.504210 0.348411 0.876648
C5    C     C_R   0.537291 0.479865 0.738665 -0.222528
C6    C     C_R   0.464788 0.494810 0.261908 -0.206282
C7    C     C_R   0.387809 0.448999 0.776668 -0.255111
C8    C     C_R   0.598014 0.423610 0.225972 -0.257669
C9    C     C_R   0.394227 0.422787 0.857171 -0.207974
C10   C     C_R   0.588823 0.402599 0.145193 -0.257142
C11   C     C_R   0.553172 0.412881 0.900970 0.221183
C12   C     C_R   0.444351 0.449219 0.098335 0.237810
C13   C     C_R   0.704507 0.424463 0.861829 0.368580
C14   C     C_R   0.304680 0.509571 0.134094 0.376342
C15   C     C_R   0.697673 0.478787 0.783647 0.309095
C16   C     C_R   0.318289 0.544462 0.214971 0.289633
C17   C     C_1   0.500000 0.065417 0.500010 -0.147909
C18   C     C_1   0.500009 0.934565 0.500014 -0.131579
Cu1   Cu    Cu3+1 0.669080 0.500010 0.500000 1.079703
Cu2   Cu    Cu3+1 0.330920 0.499990 0.500000 1.082806
H1    H     H_    0.709634 0.382262 0.260610 0.208289
H2    H     H_    0.264545 0.447421 0.744223 0.261309
H3    H     H_    0.692086 0.346062 0.119863 0.174171
H4    H     H_    0.274879 0.408347 0.884905 0.216649
N1    N     N_1   0.076820 0.499970 0.500010 -0.001051
N2    N     N_1   0.923180 0.500030 0.499990 0.000204
N3    N     N_2   0.566284 0.402232 0.984618 -0.215733
N4    N     N_2   0.432522 0.440711 0.014822 -0.186921
O1    O     O_R   0.642760 0.288400 0.500000 -0.585859
O2    O     O_R   0.357240 0.711600 0.500000 -0.563219
O3    O     O_R   0.357190 0.288380 0.500000 -0.584363
O4    O     O_R   0.642810 0.711620 0.500000 -0.574529
O5    O     O_R   0.658410 0.498660 0.613920 -0.510051
O6    O     O_R   0.341590 0.501340 0.386080 -0.525190
O7    O     O_R   0.372840 0.498650 0.613930 -0.590380
O8    O     O_R   0.627160 0.501350 0.386070 -0.583121
O9    O     O_3   0.857928 0.384825 0.902134 -0.567134
C19   C     C_3   0.923694 0.255002 0.868857 0.070052
H5    H     H_    0.048606 0.230069 0.900980 0.163190
H6    H     H_    0.952224 0.272101 0.806503 0.182020
C20   C     C_3   0.805175 0.120246 0.875409 -0.475158
H7    H     H_    0.757807 0.113440 0.935153 0.243530
H8    H     H_    0.692078 0.131586 0.832416 0.210874
C21   C     C_3   0.898132 0.977357 0.858275 -0.715842
H9    H     H_    0.946211 0.981594 0.798404 0.258730
H10   H     H_    0.808175 0.883088 0.861342 0.287061
H11   H     H_    0.007779 0.959274 0.902433 0.257915
O10   O     O_3   0.153935 0.530359 0.087860 -0.534029
C22   C     C_3   0.035120 0.417171 0.103297 0.118898
H12   H     H_    0.921156 0.435830 0.061908 0.220953
H13   H     H_    0.991799 0.426521 0.163801 0.174746
C23   C     C_3   0.102058 0.259585 0.090024 -0.432852
H14   H     H_    0.147053 0.251167 0.029926 0.243468
H15   H     H_    0.211592 0.233616 0.133013 0.216887
C24   C     C_3   0.964286 0.143864 0.101113 -0.844568
H16   H     H_    0.925669 0.145186 0.162691 0.255112
H17   H     H_    0.015283 0.032961 0.088573 0.292636
H18   H     H_    0.850183 0.165183 0.060434 0.253321
S1    S     S_3+6 0.883683 0.563054 0.748812 -0.016286
O11   O     O_2   0.011625 0.598082 0.816154 -0.277459
O12   O     O_2   0.963799 0.460542 0.692917 -0.340683
O13   O     O_3   0.827553 0.720673 0.701241 -0.542822
H19   H     H_    0.933616 0.755162 0.678242 0.370018
S2    S     S_3+6 0.160680 0.660513 0.253281 0.014154
O14   O     O_2   0.037521 0.568377 0.296627 -0.310844
O15   O     O_2   0.246418 0.769890 0.309059 -0.296880
O16   O     O_3   0.050835 0.753183 0.180163 -0.497904
H20   H     H_    0.962006 0.808906 0.206289 0.369735

loop_
_geom_bond_atom_site_label_1
_geom_bond_atom_site_label_2
_ccdc_geom_bond_type
C14   O10   S    
C24   H16   S    
C21   H11   S    
C9    H4    S    
O9    C19   S    
C3    O7    A    
C10   H3    S    
C2    C18   S    
C7    H2    S    
C20   H8    S    
C20   H7    S    
C13   O9    S    
Cu1   Cu2   S    
C23   C24   S    
C11   N3    S    
C2    O2    A    
C22   C23   S    
Cu2   O6    S    
S2    O14   D    
C23   H15   S    
C1    O1    A    
C17   C18   T    
S1    O11   D    
C24   H17   S    
Cu2   O2    S    
C4    O8    A    
C21   H9    S    
C19   H6    S    
C9    C11   A    
O13   H19   S    
C10   C12   A    
C12   N4    S    
Cu1   O4    S    
C4    C6    S    
O10   C22   S    
C21   H10   S    
C8    H1    S    
C4    O6    A    
Cu1   O8    S    
C13   C15   A    
C1    O3    A    
C19   H5    S    
C8    C10   A    
C20   C21   S    
C14   C16   A    
S1    O12   D    
C5    C15   A    
Cu2   N1    S    
C3    O5    A    
C6    C16   A    
O16   H20   S    
Cu1   O1    S    
S2    O16   S    
C7    C9    A    
C11   C13   A    
C23   H14   S    
C19   C20   S    
C2    O4    A    
C22   H12   S    
Cu1   O5    S    
C24   H18   S    
N3    N4    D    
C5    C7    A    
Cu1   N2    S    
S1    O13   S    
C6    C8    A    
C16   S2    S    
C3    C5    S    
N1    N2    T    
Cu2   O7    S    
C15   S1    S    
C1    C17   S    
C12   C14   A    
C22   H13   S    
Cu2   O3    S    
S2    O15   D    
