data_mof_unit_13886.cif
_audit_creation_date              2012-12-10T16:42:54-0500
_audit_creation_method            fapswitch 2.2
_symmetry_space_group_name_H-M    P1
_symmetry_Int_Tables_number       1
_space_group_crystal_system       triclinic
_cell_length_a                    7.450337
_cell_length_b                    8.755578
_cell_length_c                    12.967334
_cell_angle_alpha                 87.886918
_cell_angle_beta                  79.220857
_cell_angle_gamma                 102.42246
_cell_volume                      808.880318221

loop_
_atom_site_label
_atom_site_type_symbol
_atom_type_description
_atom_site_fract_x
_atom_site_fract_y
_atom_site_fract_z
_atom_type_partial_charge
C1    C     C_R   0.453700 0.200451 0.505551 0.833794
C2    C     C_R   0.732211 0.542767 0.119615 -0.188008
C3    C     C_R   0.607544 0.521860 0.858709 -0.258873
C4    C     C_R   0.392456 0.478139 0.141291 -0.258873
C5    C     C_R   0.590233 0.517553 0.967194 0.175113
C6    C     C_R   0.409767 0.482447 0.032806 0.175113
C7    C     C_2   0.430178 0.034406 0.521092 -0.261001
C8    C     C_2   0.569822 0.965594 0.478908 -0.261002
C9    C     C_1   0.258499 0.951291 0.592098 0.303667
C10   C     C_1   0.741502 0.048709 0.407903 0.303666
C11   C     C_R   0.546300 0.799549 0.494449 0.833794
C12   C     C_R   0.466433 0.495869 0.701406 0.803148
C13   C     C_R   0.533567 0.504131 0.298594 0.803148
C14   C     C_R   0.553125 0.508163 0.184954 -0.046710
C15   C     C_R   0.446875 0.491837 0.815046 -0.046710
C16   C     C_R   0.249399 0.452226 0.988960 -0.215655
C17   C     C_R   0.750601 0.547774 0.011040 -0.215654
C18   C     C_R   0.267788 0.457233 0.880385 -0.188008
Cu1   Cu    Cu3+1 0.686350 0.517570 0.488220 0.977077
Cu2   Cu    Cu3+1 0.313650 0.482430 0.511780 0.977077
H1    H     H_    0.253923 0.451080 0.191460 0.163893
H2    H     H_    0.746077 0.548920 0.808540 0.163893
H3    H     H_    0.858118 0.566858 0.152240 0.159712
H4    H     H_    0.141882 0.433142 0.847760 0.159712
H5    H     H_    0.110483 0.424510 0.038477 0.142892
H6    H     H_    0.889517 0.575490 0.961523 0.142892
H7    H     H_    0.933981 0.376629 0.582649 0.225471
H8    H     H_    0.066019 0.623371 0.417351 0.225471
N1    N     N_2   0.033570 0.455950 0.529530 -0.206463
N2    N     N_2   0.966430 0.544050 0.470470 -0.206463
N3    N     N_1   0.121931 0.885655 0.648553 -0.273158
N4    N     N_1   0.878072 0.114346 0.351448 -0.273157
O1    O     O_R   0.621060 0.286250 0.492350 -0.580607
O2    O     O_R   0.378940 0.713750 0.507650 -0.580607
O3    O     O_R   0.306310 0.256580 0.512240 -0.573742
O4    O     O_R   0.693690 0.743420 0.487760 -0.573743
O5    O     O_R   0.631800 0.512400 0.642670 -0.591641
O6    O     O_R   0.368200 0.487600 0.357330 -0.591641
O7    O     O_R   0.317060 0.482730 0.662570 -0.588909
O8    O     O_R   0.682940 0.517270 0.337430 -0.588909

loop_
_geom_bond_atom_site_label_1
_geom_bond_atom_site_label_2
_ccdc_geom_bond_type
C15   C18   A    
N1    N2    D    
H7    N1    S    
Cu2   O6    S    
Cu1   Cu2   S    
C12   C15   S    
Cu2   N1    S    
Cu2   O2    S    
C12   O7    A    
H8    N2    S    
C1    O1    A    
C7    C8    D    
C12   O5    A    
C13   C14   S    
C2    C17   A    
C4    H1    S    
Cu2   O3    S    
C13   O6    A    
C8    C11   S    
C18   H4    S    
C17   H6    S    
C8    C10   S    
C11   O4    A    
Cu1   O4    S    
C4    C14   A    
C5    C6    A    
C2    C14   A    
C4    C6    A    
C5    C17   A    
Cu1   O8    S    
C9    N3    T    
C6    C16   A    
C10   N4    T    
C16   H5    S    
C3    C15   A    
C1    O3    A    
C16   C18   A    
Cu1   O1    S    
C2    H3    S    
C7    C9    S    
Cu2   O7    S    
C3    H2    S    
Cu1   O5    S    
C3    C5    A    
C1    C7    S    
Cu1   N2    S    
C11   O2    A    
C13   O8    A    
