data_mof_unit_33817.cif
_audit_creation_date              2012-12-10T17:48:45-0500
_audit_creation_method            fapswitch 2.2
_symmetry_space_group_name_H-M    P1
_symmetry_Int_Tables_number       1
_space_group_crystal_system       triclinic
_cell_length_a                    15.812562
_cell_length_b                    10.727204
_cell_length_c                    10.017162
_cell_angle_alpha                 90.451342
_cell_angle_beta                  87.561564
_cell_angle_gamma                 92.902626
_cell_volume                      1695.41245029

loop_
_atom_site_label
_atom_site_type_symbol
_atom_type_description
_atom_site_fract_x
_atom_site_fract_y
_atom_site_fract_z
_atom_type_partial_charge
C1    C     C_R   0.505063 0.260970 0.500170 0.929263
C2    C     C_R   0.703210 0.070132 0.709204 0.337526
C3    C     C_R   0.711087 0.942853 0.685220 0.072150
C4    C     C_R   0.338547 0.500117 0.502242 0.853846
C5    C     C_R   0.653715 0.878662 0.601000 0.327378
C6    C     C_R   0.581554 0.938559 0.557939 -0.060031
C7    C     C_R   0.579422 0.069681 0.567585 -0.061309
C8    C     C_R   0.513147 0.128369 0.502393 -0.017306
C9    C     C_R   0.448577 0.058762 0.442099 -0.249747
C10   C     C_R   0.448059 0.931713 0.440827 -0.225232
C11   C     C_R   0.512847 0.871955 0.498575 -0.020196
C12   C     C_3   0.940051 0.491587 0.646822 0.510131
C13   C     C_R   0.359509 0.386608 0.140790 0.227490
C14   C     C_R   0.281242 0.402498 0.084006 0.413697
C15   C     C_R   0.282028 0.437538 0.949310 0.006535
C16   C     C_R   0.503360 0.739243 0.499962 0.961514
C17   C     C_R   0.355327 0.412146 0.872135 0.262960
C18   C     C_R   0.431197 0.450112 0.931960 -0.030927
C19   C     C_R   0.432681 0.443540 0.074839 -0.039864
C20   C     C_R   0.565181 0.555024 0.067254 0.152596
C21   C     C_R   0.564845 0.555087 0.924556 0.468598
C22   C     C_R   0.661111 0.498471 0.496829 1.044516
C23   C     C_3   0.915528 0.485906 0.492671 0.043638
C24   C     C_3   0.041632 0.502301 0.650069 0.331761
C25   C     C_3   0.049074 0.368505 0.423963 -0.025804
C26   C     C_3   0.948992 0.360259 0.421618 0.274303
C27   C     C_1   0.749378 0.492426 0.489221 -0.216412
C28   C     C_3   0.081752 0.490224 0.500275 0.040856
C29   C     C_3   0.074308 0.629181 0.713954 -0.947498
C30   C     C_3   0.895699 0.595471 0.731944 -0.847589
C31   C     C_3   0.780879 0.876207 0.748959 -0.816639
C32   C     C_3   0.638725 0.620039 0.134311 -0.703309
C33   C     C_3   0.073853 0.400210 0.743255 -0.719972
C34   C     C_3   0.955624 0.606612 0.416426 0.730683
C35   C     C_3   0.364990 0.268871 0.218538 -0.769757
C36   C     C_3   0.235577 0.550050 0.915520 -0.927344
C37   C     C_3   0.352801 0.285226 0.804927 -0.822897
C38   C     C_3   0.092823 0.245158 0.450769 -0.867747
C39   C     C_3   0.909628 0.237292 0.487816 -0.725260
C40   C     C_3   0.922303 0.347394 0.273012 -0.788158
C41   C     C_3   0.098715 0.619154 0.274377 -0.877205
C42   C     C_3   0.054952 0.604886 0.415930 -0.130896
C43   C     C_1   0.824138 0.487566 0.486925 -0.034634
C44   C     C_1   0.174118 0.494261 0.503219 0.036731
C45   C     C_1   0.249440 0.497429 0.505341 -0.195113
C46   C     C_R   0.644381 0.135669 0.637857 0.261338
H1    H     H_    0.395608 0.102236 0.401057 0.144088
H2    H     H_    0.825773 0.586616 0.725688 0.241062
H3    H     H_    0.908636 0.583207 0.839111 0.259751
H4    H     H_    0.938311 0.694408 0.248900 0.356384
H5    H     H_    0.711193 0.291520 0.649748 0.328161
H6    H     H_    0.727230 0.201806 0.838204 0.348873
H7    H     H_    0.810185 0.930354 0.831256 0.290748
H8    H     H_    0.755448 0.786548 0.792496 0.260604
H9    H     H_    0.831519 0.859198 0.672088 0.233709
H10   H     H_    0.727909 0.740999 0.565882 0.333869
H11   H     H_    0.674300 0.688576 0.068160 0.240284
H12   H     H_    0.395586 0.879325 0.396899 0.147262
H13   H     H_    0.616581 0.674304 0.221899 0.259594
H14   H     H_    0.683835 0.550159 0.163189 0.242578
H15   H     H_    0.143852 0.397185 0.738219 0.227362
H16   H     H_    0.053181 0.418011 0.848800 0.234139
H17   H     H_    0.047584 0.305833 0.721371 0.249035
H18   H     H_    0.319530 0.195137 0.181959 0.210343
H19   H     H_    0.428332 0.230233 0.201907 0.236820
H20   H     H_    0.347908 0.284180 0.325357 0.241808
H21   H     H_    0.159013 0.377074 0.097858 0.328015
H22   H     H_    0.260912 0.632061 0.972312 0.246373
H23   H     H_    0.072918 0.382802 0.319652 0.224760
H24   H     H_    0.245829 0.570267 0.807740 0.261385
H25   H     H_    0.167118 0.535974 0.941663 0.247252
H26   H     H_    0.412997 0.237818 0.815568 0.244710
H27   H     H_    0.301697 0.222373 0.850836 0.204241
H28   H     H_    0.339597 0.292545 0.697792 0.241356
H29   H     H_    0.606016 0.657531 0.778986 0.387275
H30   H     H_    0.078754 0.204756 0.550092 0.238703
H31   H     H_    0.072647 0.173501 0.376368 0.246122
H32   H     H_    0.162723 0.258054 0.436864 0.259682
H33   H     H_    0.919526 0.154272 0.423077 0.219970
H34   H     H_    0.079498 0.691541 0.464808 0.205978
H35   H     H_    0.938365 0.212953 0.581972 0.277566
H36   H     H_    0.840115 0.241831 0.505532 0.230644
H37   H     H_    0.956336 0.414501 0.204408 0.256691
H38   H     H_    0.938297 0.255127 0.230382 0.218896
H39   H     H_    0.853043 0.356029 0.264806 0.262694
H40   H     H_    0.089129 0.713878 0.235454 0.239419
H41   H     H_    0.168197 0.610373 0.277076 0.272285
H42   H     H_    0.073219 0.551378 0.200701 0.258551
H43   H     H_    0.870994 0.728251 0.465150 0.344160
H44   H     H_    0.846995 0.373754 0.711409 0.354496
H45   H     H_    0.048271 0.712505 0.670465 0.252602
H46   H     H_    0.058187 0.633017 0.822859 0.254790
H47   H     H_    0.143623 0.644126 0.700176 0.243054
H48   H     H_    0.915108 0.692531 0.707776 0.260927
N1    N     N_R   0.499210 0.498800 0.142780 -0.127573
N2    N     N_R   0.499180 0.498720 0.857170 -0.159729
O1    O     O_R   0.500000 0.316780 0.614690 -0.571813
O2    O     O_3   0.926389 0.609101 0.285128 -0.793596
O3    O     O_3   0.652022 0.263281 0.633319 -0.764485
O4    O     O_3   0.756569 0.130447 0.797445 -0.762776
O5    O     O_3   0.668253 0.760112 0.554433 -0.801126
O6    O     O_3   0.207117 0.376040 0.158083 -0.791845
O7    O     O_3   0.630615 0.617444 0.855499 -0.785363
O8    O     O_3   0.931576 0.717056 0.481667 -0.850157
O9    O     O_R   0.499990 0.316750 0.385360 -0.635718
O10   O     O_R   0.377150 0.500020 0.614720 -0.623665
O11   O     O_R   0.377140 0.499990 0.385380 -0.600672
O12   O     O_R   0.500010 0.683250 0.614640 -0.628565
O13   O     O_R   0.500000 0.683220 0.385310 -0.631484
O14   O     O_R   0.622860 0.500010 0.614620 -0.547335
O15   O     O_R   0.622850 0.499980 0.385280 -0.628101
O16   O     O_3   0.909804 0.380824 0.711933 -0.772746
Zn1   Zn    Zn3+2 0.500010 0.500020 0.653130 0.988189
Zn2   Zn    Zn3+2 0.499990 0.499980 0.346870 0.952825

loop_
_geom_bond_atom_site_label_1
_geom_bond_atom_site_label_2
_ccdc_geom_bond_type
C40   H39   S    
C46   O3    S    
C42   H34   S    
C1    C8    S    
C18   N2    A    
C41   C42   S    
C40   H38   S    
C34   C42   S    
H44   O16   S    
C37   H28   S    
C7    C8    A    
C38   H30   S    
C2    C46   A    
C25   C28   S    
C41   H40   S    
C12   C23   S    
C30   H2    S    
C10   H12   S    
H10   O5    S    
C13   C35   S    
C5    C6    A    
C26   C39   S    
C14   O6    S    
C35   H19   S    
N1    Zn2   S    
C23   C43   S    
C18   C19   A    
C23   C26   S    
C24   C29   S    
C8    C9    A    
C22   O14   A    
C35   H18   S    
C9    C10   A    
C36   H25   S    
C2    O4    S    
C13   C14   A    
H29   O7    S    
C40   H37   S    
C32   H11   S    
C36   H24   S    
C16   O13   A    
C4    C45   S    
H5    O3    S    
C41   H41   S    
C4    O11   A    
C5    O5    S    
H4    O2    S    
C13   C19   A    
O10   Zn1   S    
C7    C46   A    
O9    Zn2   S    
C39   H35   S    
C1    O1    A    
C6    C11   A    
C33   H16   S    
C38   H32   S    
C35   H20   S    
C25   C26   S    
C4    O10   A    
C28   C44   S    
C34   O8    S    
C39   H33   S    
O12   Zn1   S    
O11   Zn2   S    
C25   C38   S    
C11   C16   S    
C33   H17   S    
C23   C34   S    
C17   C18   A    
C17   C37   S    
C31   H7    S    
C3    C31   S    
O14   Zn1   S    
O13   Zn2   S    
C38   H31   S    
C30   H3    S    
C9    H1    S    
C22   C27   S    
H43   O8    S    
N2    Zn1   S    
C25   H23   S    
C32   H14   S    
O1    Zn1   S    
C15   C36   S    
C12   O16   S    
C19   N1    A    
C44   C45   T    
C20   C32   S    
C15   C17   A    
C41   H42   S    
C37   H27   S    
C12   C30   S    
C20   N1    A    
C24   C28   S    
C39   H36   S    
C3    C5    A    
C36   H22   S    
C6    C7    A    
C21   N2    A    
C12   C24   S    
C24   C33   S    
C2    C3    A    
C30   H48   S    
C29   H47   S    
C26   C40   S    
C28   C42   S    
C34   O2    S    
H6    O4    S    
O15   Zn2   S    
C31   H8    S    
C10   C11   A    
C16   O12   A    
C21   O7    S    
C27   C43   T    
C20   C21   A    
C33   H15   S    
C22   O15   A    
C37   H26   S    
C14   C15   A    
C32   H13   S    
C31   H9    S    
C29   H46   S    
H21   O6    S    
C1    O9    A    
C29   H45   S    
