data_mof_unit_64916.cif
_audit_creation_date              2012-12-10T18:14:11-0500
_audit_creation_method            fapswitch 2.2
_symmetry_space_group_name_H-M    P1
_symmetry_Int_Tables_number       1
_space_group_crystal_system       triclinic
_cell_length_a                    32.238971
_cell_length_b                    32.238956
_cell_length_c                    23.700684
_cell_angle_alpha                 90.000094
_cell_angle_beta                  90.000147
_cell_angle_gamma                 90.0
_cell_volume                      24633.3241068

loop_
_atom_site_label
_atom_site_type_symbol
_atom_type_description
_atom_site_fract_x
_atom_site_fract_y
_atom_site_fract_z
_atom_type_partial_charge
C1    C     C_R   1.000000 0.420384 0.500000 0.827045
C2    C     C_R   0.420384 0.000000 0.500000 0.826975
C3    C     C_R   1.000000 0.579616 0.500000 0.827070
C4    C     C_R   0.579616 0.000000 0.500000 0.827085
C5    C     C_R   0.500000 0.920384 0.000000 0.827108
C6    C     C_R   0.920384 0.500000 0.000000 0.827101
C7    C     C_R   0.500000 0.079616 0.000000 0.827038
C8    C     C_R   0.079616 0.500000 0.000000 0.827064
C9    C     C_1   0.999999 0.161619 0.500000 -0.064049
C10   C     C_1   0.161619 1.000000 0.500000 -0.064098
C11   C     C_1   0.999999 0.838381 0.500000 -0.064043
C12   C     C_1   0.838381 1.000000 0.500000 -0.064060
C13   C     C_1   0.500000 0.661619 1.000000 -0.064061
C14   C     C_1   0.661619 0.500000 0.000000 -0.064052
C15   C     C_1   0.500000 0.338381 0.000000 -0.064085
C16   C     C_1   0.338381 0.500000 1.000000 -0.064061
C17   C     C_1   1.000000 0.338300 0.500000 -0.063222
C18   C     C_1   0.338300 1.000000 0.500000 -0.063220
C19   C     C_1   1.000000 0.661700 0.500000 -0.063229
C20   C     C_1   0.661700 1.000000 0.500000 -0.063239
C21   C     C_1   0.500000 0.838300 0.000000 -0.063252
C22   C     C_1   0.838300 0.500000 0.000000 -0.063244
C23   C     C_1   0.500000 0.161700 0.000000 -0.063239
C24   C     C_1   0.161700 0.500000 1.000000 -0.063234
C25   C     C_1   1.000000 0.375767 0.500000 -0.165710
C26   C     C_1   0.375767 1.000000 0.500000 -0.165717
C27   C     C_1   1.000000 0.624232 0.500000 -0.165713
C28   C     C_1   0.624232 1.000000 0.500000 -0.165720
C29   C     C_1   0.500000 0.875767 0.000000 -0.165738
C30   C     C_1   0.875767 0.500000 0.000000 -0.165727
C31   C     C_1   0.500000 0.124232 0.000000 -0.165736
C32   C     C_1   0.124232 0.500000 1.000000 -0.165724
C33   C     C_1   1.000000 0.124151 0.500000 -0.167344
C34   C     C_1   0.124151 1.000000 0.500000 -0.167375
C35   C     C_1   1.000000 0.875848 0.500000 -0.167344
C36   C     C_1   0.875849 1.000000 0.500000 -0.167365
C37   C     C_1   0.500000 0.624151 0.000000 -0.167364
C38   C     C_1   0.624151 0.500000 0.000000 -0.167354
C39   C     C_1   0.500000 0.375848 1.000000 -0.167369
C40   C     C_1   0.375848 0.500000 1.000000 -0.167354
C41   C     C_R   1.000000 0.500000 0.391686 0.822874
C42   C     C_R   0.500000 1.000000 0.391686 0.822850
C43   C     C_R   0.000000 0.500000 0.608314 0.822874
C44   C     C_R   0.500000 1.000000 0.608314 0.822850
C45   C     C_R   0.500000 1.000000 0.891686 0.822890
C46   C     C_R   1.000000 0.500000 0.891686 0.822897
C47   C     C_R   0.500000 1.000000 0.108314 0.822889
C48   C     C_R   1.000000 0.500000 0.108314 0.822897
C49   C     C_R   0.079535 1.000000 0.500000 0.825770
C50   C     C_R   1.000000 0.920465 0.500000 0.825703
C51   C     C_R   0.920465 1.000000 0.500000 0.825668
C52   C     C_R   1.000000 0.079535 0.500000 0.825728
C53   C     C_R   0.579535 0.500000 0.000000 0.825645
C54   C     C_R   0.500000 0.420465 1.000000 0.825698
C55   C     C_R   0.420465 0.500000 1.000000 0.825682
C56   C     C_R   0.500000 0.579535 0.000000 0.825633
C57   C     C_1   1.000000 0.500000 0.330905 -0.173236
C58   C     C_1   0.500000 1.000000 0.330905 -0.173269
C59   C     C_1   0.000000 0.500000 0.669095 -0.173236
C60   C     C_1   0.500000 1.000000 0.669095 -0.173270
C61   C     C_1   0.500000 1.000000 0.830905 -0.173268
C62   C     C_1   1.000000 0.500000 0.830905 -0.173238
C63   C     C_1   0.500000 1.000000 0.169095 -0.173268
C64   C     C_1   1.000000 0.500000 0.169095 -0.173238
C65   C     C_1   1.000000 0.500000 0.279899 0.006399
C66   C     C_1   0.500000 1.000000 0.279899 0.006363
C67   C     C_1   0.000000 0.500000 0.720101 0.006399
C68   C     C_1   0.500000 0.000000 0.720101 0.006363
C69   C     C_1   0.500000 1.000000 0.779899 0.006365
C70   C     C_1   1.000000 0.500000 0.779899 0.006399
C71   C     C_1   0.500000 1.000000 0.220101 0.006365
C72   C     C_1   1.000000 0.500000 0.220101 0.006399
C73   C     C_R   0.030353 0.228242 0.530165 -0.172480
C74   C     C_R   0.228242 0.970910 0.532387 -0.172525
C75   C     C_R   0.969185 0.771758 0.529287 -0.172575
C76   C     C_R   0.771758 0.031034 0.528855 -0.172542
C77   C     C_R   0.969646 0.228242 0.469836 -0.172565
C78   C     C_R   0.771758 0.968966 0.471145 -0.172563
C79   C     C_R   0.030814 0.771758 0.470712 -0.172491
C80   C     C_R   0.228242 0.029089 0.467613 -0.172505
C81   C     C_R   0.531224 0.728242 0.028474 -0.172574
C82   C     C_R   0.728242 0.468814 0.028549 -0.172525
C83   C     C_R   0.469990 0.271758 0.030793 -0.172521
C84   C     C_R   0.271758 0.530533 0.029828 -0.172563
C85   C     C_R   0.468776 0.728241 0.971526 -0.172544
C86   C     C_R   0.271758 0.469468 0.970171 -0.172509
C87   C     C_R   0.530010 0.271758 0.969207 -0.172551
C88   C     C_R   0.728242 0.531187 0.971451 -0.172580
C89   C     C_R   0.999999 0.206383 0.500000 0.152105
C90   C     C_R   0.206383 1.000000 0.500000 0.151985
C91   C     C_R   0.999999 0.793617 0.500000 0.152156
C92   C     C_R   0.793617 1.000000 0.500000 0.152193
C93   C     C_R   0.500000 0.706383 1.000000 0.152221
C94   C     C_R   0.706383 0.500000 0.000000 0.152210
C95   C     C_R   0.500000 0.293617 0.000000 0.152087
C96   C     C_R   0.293617 0.500000 1.000000 0.152135
C97   C     C_R   0.969646 0.271677 0.469835 -0.171849
C98   C     C_R   0.271677 0.029089 0.467612 -0.171894
C99   C     C_R   0.030814 0.728323 0.470712 -0.171827
C100  C     C_R   0.728323 0.968966 0.471144 -0.171827
C101  C     C_R   0.030353 0.271677 0.530165 -0.171839
C102  C     C_R   0.728323 0.031033 0.528856 -0.171835
C103  C     C_R   0.969185 0.728323 0.529288 -0.171836
C104  C     C_R   0.271677 0.970911 0.532387 -0.171887
C105  C     C_R   0.468776 0.771677 0.971526 -0.171837
C106  C     C_R   0.771677 0.531186 0.971450 -0.171830
C107  C     C_R   0.530010 0.228323 0.969206 -0.171862
C108  C     C_R   0.228323 0.469468 0.970171 -0.171843
C109  C     C_R   0.531224 0.771677 0.028474 -0.171825
C110  C     C_R   0.228323 0.530532 0.029829 -0.171848
C111  C     C_R   0.469990 0.228323 0.030794 -0.171875
C112  C     C_R   0.771677 0.468814 0.028550 -0.171825
C113  C     C_R   1.000000 0.293535 0.500000 0.151524
C114  C     C_R   0.293535 1.000000 0.500000 0.151617
C115  C     C_R   1.000000 0.706465 0.500000 0.151494
C116  C     C_R   0.706465 1.000000 0.500000 0.151486
C117  C     C_R   0.500000 0.793535 1.000000 0.151480
C118  C     C_R   0.793535 0.500000 0.000000 0.151477
C119  C     C_R   0.500000 0.206465 0.000000 0.151562
C120  C     C_R   0.206465 0.500000 1.000000 0.151520
Cu1   Cu    Cu3+1 0.958970 0.500000 0.500000 0.968868
Cu2   Cu    Cu3+1 0.500000 0.041030 0.500000 0.968837
Cu3   Cu    Cu3+1 0.041030 0.500000 0.500000 0.968862
Cu4   Cu    Cu3+1 0.500000 0.958970 0.500000 0.968919
Cu5   Cu    Cu3+1 0.458970 0.000000 0.000000 0.968717
Cu6   Cu    Cu3+1 0.000000 0.541030 0.000000 0.968807
Cu7   Cu    Cu3+1 0.541030 0.000000 0.000000 0.968848
Cu8   Cu    Cu3+1 0.000000 0.458970 0.000000 0.968800
Cu9   Cu    Cu3+1 0.000000 1.000000 0.444230 0.966609
Cu10  Cu    Cu3+1 0.000000 0.000000 0.555770 0.966609
Cu11  Cu    Cu3+1 0.500000 0.500000 0.944230 0.966707
Cu12  Cu    Cu3+1 0.500000 0.500000 0.055770 0.966707
H1    H     H_    0.053986 0.288192 0.553651 0.139529
H2    H     H_    0.288192 0.948263 0.557604 0.139442
H3    H     H_    0.945194 0.711808 0.552091 0.139533
H4    H     H_    0.711808 0.055195 0.551322 0.139546
H5    H     H_    0.946014 0.288192 0.446349 0.139509
H6    H     H_    0.711808 0.944804 0.448678 0.139551
H7    H     H_    0.054805 0.711808 0.447909 0.139553
H8    H     H_    0.288191 0.051737 0.442396 0.139436
H9    H     H_    0.555534 0.788192 0.050644 0.139554
H10   H     H_    0.788192 0.444533 0.050778 0.139561
H11   H     H_    0.446625 0.211808 0.054769 0.139479
H12   H     H_    0.211808 0.554304 0.053053 0.139513
H13   H     H_    0.444467 0.788192 0.949356 0.139547
H14   H     H_    0.211808 0.445696 0.946946 0.139526
H15   H     H_    0.553375 0.211808 0.945231 0.139486
H16   H     H_    0.788192 0.555467 0.949222 0.139547
O1    O     O_R   0.965350 0.440130 0.499980 -0.579106
O2    O     O_R   0.440130 0.034650 0.499980 -0.579068
O3    O     O_R   0.034650 0.559870 0.499980 -0.579121
O4    O     O_R   0.559870 0.965350 0.499980 -0.579124
O5    O     O_R   0.034650 0.440130 0.500020 -0.579103
O6    O     O_R   0.559870 0.034650 0.500020 -0.579141
O7    O     O_R   0.965350 0.559870 0.500020 -0.579124
O8    O     O_R   0.440130 0.965350 0.500020 -0.579051
O9    O     O_R   0.465350 0.940130 0.999980 -0.579160
O10   O     O_R   0.940130 0.534650 0.999980 -0.579143
O11   O     O_R   0.534650 0.059870 0.999980 -0.579087
O12   O     O_R   0.059870 0.465350 0.999980 -0.579116
O13   O     O_R   0.534650 0.940130 0.000020 -0.579133
O14   O     O_R   0.059870 0.534650 0.000020 -0.579118
O15   O     O_R   0.465350 0.059870 0.000020 -0.579114
O16   O     O_R   0.940130 0.465350 0.000020 -0.579141
O17   O     O_R   0.059790 0.999980 0.452860 -0.578853
O18   O     O_R   0.999980 0.940210 0.452860 -0.578781
O19   O     O_R   0.940210 0.000020 0.452860 -0.578785
O20   O     O_R   0.000020 0.059790 0.452860 -0.578822
O21   O     O_R   0.940210 0.999980 0.547140 -0.578779
O22   O     O_R   0.000020 0.940210 0.547140 -0.578805
O23   O     O_R   0.059790 0.000020 0.547140 -0.578859
O24   O     O_R   0.999980 0.059790 0.547140 -0.578798
O25   O     O_R   0.559790 0.499980 0.952860 -0.578781
O26   O     O_R   0.499980 0.440210 0.952860 -0.578820
O27   O     O_R   0.440210 0.500020 0.952860 -0.578786
O28   O     O_R   0.500020 0.559790 0.952860 -0.578764
O29   O     O_R   0.440210 0.499980 0.047140 -0.578805
O30   O     O_R   0.500020 0.440210 0.047140 -0.578810
O31   O     O_R   0.559790 0.500020 0.047140 -0.578763
O32   O     O_R   0.499980 0.559790 0.047140 -0.578773
O33   O     O_R   0.965350 0.499980 0.418590 -0.578075
O34   O     O_R   0.499980 0.034650 0.418590 -0.578106
O35   O     O_R   0.034650 0.500020 0.418590 -0.578075
O36   O     O_R   0.500020 0.965350 0.418590 -0.578048
O37   O     O_R   0.034650 0.499980 0.581410 -0.578083
O38   O     O_R   0.500020 0.034650 0.581410 -0.578078
O39   O     O_R   0.965350 0.500020 0.581410 -0.578068
O40   O     O_R   0.499980 0.965350 0.581410 -0.578076
O41   O     O_R   0.465350 0.999980 0.918590 -0.578100
O42   O     O_R   0.999980 0.534650 0.918590 -0.578073
O43   O     O_R   0.534650 0.000020 0.918590 -0.578074
O44   O     O_R   0.000020 0.465350 0.918590 -0.578090
O45   O     O_R   0.534650 0.999980 0.081410 -0.578053
O46   O     O_R   0.000020 0.534650 0.081410 -0.578085
O47   O     O_R   0.465350 0.000020 0.081410 -0.578121
O48   O     O_R   0.999980 0.465350 0.081410 -0.578079
H17   H     H_    0.053986 0.211726 0.553650 0.138828
H18   H     H_    0.211727 0.948262 0.557603 0.138893
H19   H     H_    0.945193 0.788273 0.552090 0.138714
H20   H     H_    0.788273 0.055196 0.551321 0.138716
H21   H     H_    0.946013 0.211727 0.446350 0.138764
H22   H     H_    0.788273 0.944804 0.448679 0.138702
H23   H     H_    0.054805 0.788273 0.447910 0.138781
H24   H     H_    0.211726 0.051738 0.442397 0.138905
H25   H     H_    0.555534 0.711727 0.050643 0.138671
H26   H     H_    0.711727 0.444533 0.050777 0.138716
H27   H     H_    0.446624 0.288274 0.054768 0.138815
H28   H     H_    0.288273 0.554305 0.053052 0.138742
H29   H     H_    0.444466 0.711726 0.949357 0.138692
H30   H     H_    0.288273 0.445696 0.946947 0.138786
H31   H     H_    0.553376 0.288273 0.945232 0.138795
H32   H     H_    0.711727 0.555468 0.949223 0.138671

loop_
_geom_bond_atom_site_label_1
_geom_bond_atom_site_label_2
_ccdc_geom_bond_type
C2    O2    A    
C4    O6    A    
Cu3   O37   S    
C82   C94   A    
C101  C113  A    
C108  C120  A    
C51   O19   A    
C100  C116  A    
C99   H7    S    
C42   C58   S    
C53   O25   A    
C42   O34   A    
C33   C52   S    
Cu6   O46   S    
C77   C89   A    
C104  H2    S    
Cu9   O18   S    
C46   C62   S    
Cu2   O2    S    
C47   O47   A    
C44   C60   S    
C81   C93   A    
Cu4   O36   S    
Cu7   O45   S    
C15   C95   S    
Cu5   O9    S    
Cu2   O38   S    
C39   C54   S    
C7    O11   A    
C6    O10   A    
C43   O37   A    
Cu10  O21   S    
C20   C116  S    
C75   C103  A    
Cu11  O28   S    
Cu8   O16   S    
C107  H15   S    
C62   C70   T    
C111  C119  A    
C84   C96   A    
C81   H25   S    
C112  H10   S    
Cu6   O42   S    
C103  H3    S    
C21   C117  S    
C75   H19   S    
C48   C64   S    
C59   C67   T    
C79   C99   A    
C37   C56   S    
C85   C93   A    
C11   C35   T    
C45   O43   A    
C74   H18   S    
C97   C113  A    
Cu10  O24   S    
C68   C69   S    
C87   C95   A    
C50   O18   A    
C83   H27   S    
C1    O1    A    
C43   O39   A    
C12   C36   T    
C19   C27   T    
C78   H22   S    
C13   C37   T    
C43   C59   S    
Cu12  O29   S    
C73   H17   S    
C45   C61   S    
C73   C101  A    
C87   H31   S    
Cu4   O4    S    
C83   C95   A    
Cu7   O13   S    
C106  C118  A    
C9    C33   T    
Cu2   O6    S    
C105  C117  A    
Cu5   O15   S    
C76   C92   A    
C46   O42   A    
C85   C105  A    
C53   O31   A    
C97   H5    S    
C4    C28   S    
C102  H4    S    
C58   C66   T    
Cu2   O34   S    
Cu3   O3    S    
Cu6   O10   S    
C76   C102  A    
C4    O4    A    
C88   C94   A    
C75   C91   A    
C16   C96   S    
C24   C120  S    
Cu9   O19   S    
Cu1   O33   S    
C109  C117  A    
C8    C32   S    
Cu8   O48   S    
C51   O21   A    
C7    C31   S    
C10   C34   T    
C76   H20   S    
C110  C120  A    
Cu4   O40   S    
C20   C28   T    
C78   C92   A    
C55   O29   A    
C7    O15   A    
Cu11  O25   S    
C84   C110  A    
C54   O30   A    
C47   C63   S    
C13   C93   S    
Cu8   O44   S    
C82   C112  A    
C55   O27   A    
C103  C115  A    
C101  H1    S    
C24   C32   T    
C49   O17   A    
Cu1   O39   S    
C88   C106  A    
C84   H28   S    
C66   C71   S    
C19   C115  S    
Cu10  O23   S    
C40   C55   S    
C105  H13   S    
C18   C26   T    
C35   C50   S    
C3    O7    A    
C106  H16   S    
C50   O22   A    
C86   C96   A    
C1    O5    A    
C41   O33   A    
C15   C39   T    
C17   C113  S    
C36   C51   S    
C100  H6    S    
C16   C40   T    
C104  C114  A    
C45   O41   A    
C6    C30   S    
C41   C57   S    
C44   O40   A    
C5    O9    A    
Cu4   O8    S    
C78   C100  A    
C83   C111  A    
C9    C89   S    
C14   C38   T    
C8    O12   A    
C5    C29   S    
Cu7   O11   S    
C82   H26   S    
C18   C114  S    
Cu8   O12   S    
C74   C104  A    
Cu9   Cu10  S    
C56   O32   A    
C21   C29   T    
C61   C69   T    
C22   C118  S    
C34   C49   S    
Cu6   Cu8   S    
C22   C30   T    
Cu9   O20   S    
C48   O46   A    
C79   C91   A    
C47   O45   A    
C86   C108  A    
C86   H30   S    
C6    O16   A    
C42   O36   A    
Cu1   O7    S    
C77   H21   S    
C2    C26   S    
Cu3   O5    S    
C109  H9    S    
C1    C25   S    
C111  H11   S    
C56   O28   A    
C65   C72   S    
C81   C109  A    
Cu11  O26   S    
C3    O3    A    
C107  C119  A    
Cu9   O17   S    
Cu12  O32   S    
C79   H23   S    
C17   C25   T    
C67   C70   S    
C3    C27   S    
C73   C89   A    
C108  H14   S    
C8    O14   A    
C52   O20   A    
C112  C118  A    
C74   C90   A    
C80   H24   S    
C38   C53   S    
C80   C98   A    
Cu10  O22   S    
C54   O26   A    
C99   C115  A    
Cu11  O27   S    
C52   O24   A    
Cu1   O1    S    
C64   C72   T    
C102  C116  A    
C80   C90   A    
Cu11  Cu12  S    
Cu7   O43   S    
Cu1   Cu3   S    
C98   C114  A    
C60   C68   T    
Cu12  O31   S    
C49   O23   A    
C23   C31   T    
C11   C91   S    
C46   O44   A    
C12   C92   S    
C87   C107  A    
C85   H29   S    
C10   C90   S    
C88   H32   S    
Cu3   O35   S    
C98   H8    S    
Cu5   Cu7   S    
Cu5   O47   S    
Cu12  O30   S    
C41   O35   A    
C23   C119  S    
Cu5   O41   S    
C77   C97   A    
C5    O13   A    
Cu6   O14   S    
Cu2   Cu4   S    
C63   C71   T    
C14   C94   S    
C48   O48   A    
C2    O8    A    
C110  H12   S    
C44   O38   A    
C57   C65   T    
