data_mof_unit_38424.cif
_audit_creation_date              2012-12-11T15:53:42-0500
_audit_creation_method            fapswitch 2.2
_symmetry_space_group_name_H-M    P1
_symmetry_Int_Tables_number       1
_space_group_crystal_system       triclinic
_cell_length_a                    6.966979
_cell_length_b                    14.522992
_cell_length_c                    15.996346
_cell_angle_alpha                 90.541161
_cell_angle_beta                  89.757859
_cell_angle_gamma                 90.115138
_cell_volume                      1618.4425818

loop_
_atom_site_label
_atom_site_type_symbol
_atom_type_description
_atom_site_fract_x
_atom_site_fract_y
_atom_site_fract_z
_atom_type_partial_charge
O1    O     O_R   0.361600 0.167310 0.164620 -0.550929
O2    O     O_R   0.638400 0.832690 0.835380 -0.550208
O3    O     O_R   0.691080 0.157570 0.338750 -0.516555
O4    O     O_R   0.308920 0.842430 0.661250 -0.511519
O5    O     O_R   0.861410 0.336420 0.339360 -0.532292
O6    O     O_R   0.138590 0.663580 0.660640 -0.540600
C1    C     C_R   0.522190 0.137857 0.369365 0.794647
C2    C     C_R   0.478409 0.867423 0.634892 0.798138
O7    O     O_R   0.691320 0.156280 0.165240 -0.551954
O8    O     O_R   0.308680 0.843720 0.834760 -0.545797
O9    O     O_R   0.861640 0.335130 0.164600 -0.549574
O10   O     O_R   0.138360 0.664870 0.835400 -0.551017
C3    C     C_R   0.522424 0.133872 0.136162 0.661894
C4    C     C_R   0.477582 0.866177 0.863796 0.674149
O11   O     O_R   0.361370 0.168600 0.339370 -0.539150
O12   O     O_R   0.638630 0.831400 0.660630 -0.537643
O13   O     O_3   0.527990 0.310540 0.251980 -0.370065
O14   O     O_3   0.472010 0.689460 0.748020 -0.373569
V1    V     V_3+5 0.802830 0.240980 0.251990 1.520545
V2    V     V_3+5 0.197170 0.759020 0.748010 1.539178
O15   O     O_R   0.191360 0.346160 0.165220 -0.546360
O16   O     O_R   0.808640 0.653840 0.834780 -0.547687
C5    C     C_R   0.022586 0.368225 0.136155 0.683733
C6    C     C_R   0.977414 0.631774 0.863843 0.679094
O17   O     O_R   0.191130 0.347440 0.338740 -0.520651
O18   O     O_R   0.808870 0.652560 0.661260 -0.520838
C7    C     C_R   0.021985 0.369333 0.367461 0.875166
C8    C     C_R   0.978042 0.630394 0.632727 0.841404
V3    V     V_3+5 0.302840 0.262750 0.251990 1.529550
V4    V     V_3+5 0.697160 0.737250 0.748010 1.534356
O19   O     O_3   0.027820 0.193180 0.251990 -0.377024
O20   O     O_3   0.972180 0.806820 0.748010 -0.362978
C9    C     C_3   0.821037 0.471449 0.479676 -0.268472
C10   C     C_3   0.179022 0.527910 0.520714 -0.289804
C11   C     C_3   0.916790 0.460867 0.566276 0.380166
C12   C     C_3   0.083248 0.538508 0.434119 0.372062
H1    H     H_    0.673541 0.448715 0.463244 0.207822
H2    H     H_    0.326547 0.550602 0.537140 0.207962
C13   C     C_3   0.989774 0.560845 0.562788 -0.293405
C14   C     C_3   0.010258 0.438568 0.437595 -0.293477
C15   C     C_3   0.896433 0.571776 0.476422 0.365140
C16   C     C_3   0.103593 0.427571 0.523949 0.377363
C17   C     C_R   0.821377 0.524761 0.967604 -0.118826
C18   C     C_R   0.178625 0.475228 0.032387 -0.117766
H3    H     H_    0.681242 0.542762 0.943813 0.120583
H4    H     H_    0.318760 0.457227 0.056178 0.120788
C19   C     C_R   0.832726 0.461809 0.033325 -0.122421
C20   C     C_R   0.167275 0.538180 0.966666 -0.124017
H5    H     H_    0.700615 0.433194 0.057860 0.120963
H6    H     H_    0.299386 0.566795 0.942131 0.119746
C21   C     C_R   0.011526 0.436089 0.066735 -0.034982
C22   C     C_R   0.988475 0.563903 0.933258 -0.034952
C23   C     C_R   0.676702 0.045290 0.483962 0.424594
C24   C     C_R   0.324428 0.987115 0.542603 0.430227
C25   C     C_R   0.666477 0.971610 0.540011 -0.160855
C26   C     C_R   0.334765 0.042561 0.471445 -0.158693
H7    H     H_    0.795134 0.943275 0.565448 0.219598
H8    H     H_    0.206300 0.068709 0.444116 0.218404
C27   C     C_R   0.488856 0.940748 0.570179 -0.206693
C28   C     C_R   0.512124 0.072372 0.440515 -0.206273
C29   C     C_R   0.678651 0.025785 0.032312 -0.135670
C30   C     C_R   0.321372 0.974389 0.967533 -0.126774
H9    H     H_    0.818768 0.044546 0.056127 0.117097
H10   H     H_    0.181257 0.955637 0.943707 0.121224
C31   C     C_R   0.667473 0.961735 0.966515 -0.125944
C32   C     C_R   0.332549 0.038437 0.033332 -0.132943
H11   H     H_    0.799614 0.932999 0.941875 0.120408
H12   H     H_    0.200410 0.067182 0.057963 0.118565
C33   C     C_R   0.488669 0.935118 0.933184 -0.036805
C34   C     C_R   0.511348 0.065016 0.066697 -0.038603
Cl1   Cl    Cl    0.805217 0.408681 0.654340 -0.497237
Cl2   Cl    Cl    0.194830 0.590544 0.345979 -0.540699
Cl3   Cl    Cl    0.756993 0.667892 0.444611 -0.554848
Cl4   Cl    Cl    0.242625 0.331212 0.555582 -0.468418
Cl5   Cl    Cl    0.874330 0.119830 0.488477 -0.544393
Cl6   Cl    Cl    0.125500 0.999044 0.609089 -0.565183

loop_
_geom_bond_atom_site_label_1
_geom_bond_atom_site_label_2
_ccdc_geom_bond_type
C29   C34   A    
C6    C22   S    
C32   H12   S    
C25   C27   A    
O13   V3    S    
C10   C16   S    
O4    C2    A    
V1    O19   S    
C19   H5    S    
O9    V1    S    
O3    C1    A    
C2    C27   S    
C17   C22   A    
C3    C34   S    
O12   V4    S    
O9    C5    A    
C29   H9    S    
C11   C16   S    
O7    C3    A    
C30   H10   S    
O13   V1    S    
O5    C7    A    
O7    V1    S    
O6    C8    A    
C12   Cl2   S    
O8    V2    S    
C31   H11   S    
O3    V1    S    
O14   V4    S    
C10   C12   S    
C20   H6    S    
C11   Cl1   S    
C2    O12   A    
C12   C15   S    
C23   Cl5   S    
C23   C28   A    
C18   H4    S    
O11   V3    S    
C24   C27   A    
C23   C25   A    
O17   V3    S    
C24   C26   A    
C16   Cl4   S    
C9    C14   S    
C30   C32   A    
C10   C13   S    
C12   C14   S    
C13   C15   S    
O8    C4    A    
C19   C21   A    
C8    C13   S    
O15   V3    S    
C9    H1    S    
C26   C28   A    
C30   C33   A    
C11   C13   S    
C5    C21   S    
C7    C14   S    
O10   V2    S    
O1    V3    S    
C17   H3    S    
C24   Cl6   S    
C18   C21   A    
O18   V4    S    
C25   H7    S    
C4    C33   S    
O16   C6    A    
O1    C3    A    
C1    C28   S    
V2    O20   S    
O16   V4    S    
C10   H2    S    
C14   C16   S    
O5    V1    S    
O17   C7    A    
O6    V2    S    
O10   C6    A    
O18   C8    A    
O2    V4    S    
C9    C15   S    
O15   C5    A    
V3    O19   S    
V4    O20   S    
C32   C34   A    
C31   C33   A    
C1    O11   A    
C9    C11   S    
C26   H8    S    
O14   V2    S    
O2    C4    A    
C15   Cl3   S    
O4    V2    S    
C29   C31   A    
C20   C22   A    
C17   C19   A    
C18   C20   A    
