data_mof_unit_27686.cif
_audit_creation_date              2012-12-11T15:54:38-0500
_audit_creation_method            fapswitch 2.2
_symmetry_space_group_name_H-M    P1
_symmetry_Int_Tables_number       1
_space_group_crystal_system       triclinic
_cell_length_a                    6.922928
_cell_length_b                    14.591047
_cell_length_c                    16.08124
_cell_angle_alpha                 90.015392
_cell_angle_beta                  89.919561
_cell_angle_gamma                 90.404241
_cell_volume                      1624.36847767

loop_
_atom_site_label
_atom_site_type_symbol
_atom_type_description
_atom_site_fract_x
_atom_site_fract_y
_atom_site_fract_z
_atom_type_partial_charge
O1    O     O_R   0.638180 0.333920 0.163320 -0.553203
O2    O     O_R   0.361820 0.666080 0.836680 -0.509534
O3    O     O_R   0.308470 0.344960 0.336080 -0.544137
O4    O     O_R   0.691530 0.655040 0.663920 -0.547333
O5    O     O_R   0.138140 0.166110 0.336680 -0.536014
O6    O     O_R   0.861860 0.833890 0.663320 -0.541376
C1    C     C_R   0.477736 0.367123 0.365124 0.687618
C2    C     C_R   0.522263 0.632872 0.634881 0.676092
O7    O     O_R   0.308460 0.344950 0.163930 -0.529939
O8    O     O_R   0.691540 0.655050 0.836070 -0.523243
O9    O     O_R   0.138140 0.166100 0.163310 -0.541243
O10   O     O_R   0.861860 0.833900 0.836690 -0.543877
C3    C     C_R   0.478844 0.364539 0.133031 0.689809
C4    C     C_R   0.521132 0.634511 0.866235 0.715725
O11   O     O_R   0.638180 0.333930 0.336700 -0.543110
O12   O     O_R   0.361820 0.666070 0.663300 -0.545958
O13   O     O_3   0.471670 0.191340 0.250000 -0.368050
O14   O     O_3   0.528330 0.808660 0.750000 -0.379580
V1    V     V_3+5 0.196830 0.260900 0.250000 1.418462
V2    V     V_3+5 0.803170 0.739100 0.750000 1.470131
O15   O     O_R   0.808420 0.155070 0.163920 -0.543992
O16   O     O_R   0.191580 0.844930 0.836080 -0.540234
C5    C     C_R   0.975936 0.133594 0.134250 0.695843
C6    C     C_R   0.023897 0.865667 0.866164 0.727477
O17   O     O_R   0.808420 0.155080 0.336070 -0.538018
O18   O     O_R   0.191580 0.844920 0.663930 -0.542841
C7    C     C_R   0.976909 0.133046 0.364727 0.696868
C8    C     C_R   0.023092 0.866946 0.635265 0.679863
V3    V     V_3+5 0.696830 0.239130 0.250000 1.401408
V4    V     V_3+5 0.303170 0.760870 0.750000 1.458844
O19   O     O_3   0.971850 0.308690 0.250010 -0.372687
O20   O     O_3   0.028150 0.691310 0.749990 -0.345629
H1    H     H_    0.285125 0.850904 0.266355 0.111432
H2    H     H_    0.714765 0.149075 0.733607 0.120334
C9    C     C_R   0.826804 0.172507 0.529292 -0.143622
C10   C     C_R   0.173187 0.827482 0.470686 -0.142502
C11   C     C_R   0.755496 0.194280 0.607843 -0.117337
C12   C     C_R   0.244458 0.805706 0.392128 -0.124211
C13   C     C_R   0.768961 0.131524 0.672496 -0.114825
C14   C     C_R   0.230966 0.868458 0.327472 -0.123222
C15   C     C_R   0.853715 0.046463 0.659106 -0.133726
C16   C     C_R   0.146230 0.953522 0.340869 -0.130607
C17   C     C_R   0.925473 0.021774 0.579750 0.070767
C18   C     C_R   0.074507 0.978213 0.420231 0.070363
C19   C     C_R   0.911836 0.086248 0.513371 0.068418
C20   C     C_R   0.088157 0.913741 0.486611 0.068825
C21   C     C_R   0.013518 0.935386 0.566477 -0.182348
C22   C     C_R   0.986479 0.064603 0.433509 -0.186519
H3    H     H_    0.815601 0.224490 0.481664 0.108526
H4    H     H_    0.184410 0.775503 0.518317 0.105864
H5    H     H_    0.690758 0.260558 0.618717 0.123124
H6    H     H_    0.309189 0.739427 0.381251 0.117096
H7    H     H_    0.863824 0.000942 0.711965 0.101312
H8    H     H_    0.136103 0.999042 0.288010 0.102589
C23   C     C_R   0.167663 0.945209 0.993994 0.165453
C24   C     C_R   0.828819 0.050915 0.008310 0.165865
C25   C     C_R   0.148671 0.010506 0.057707 -0.196484
C26   C     C_R   0.849297 0.986687 0.943945 -0.198911
H9    H     H_    0.263553 0.018110 0.102866 0.125038
H10   H     H_    0.733924 0.978653 0.899042 0.124257
C27   C     C_R   0.982681 0.064547 0.065718 -0.088100
C28   C     C_R   0.015993 0.933465 0.935450 -0.100075
C29   C     C_R   0.321446 0.478014 0.464425 -0.157135
C30   C     C_R   0.678549 0.521967 0.535593 -0.154470
H11   H     H_    0.181345 0.462305 0.437949 0.116889
H12   H     H_    0.818649 0.537675 0.562070 0.118052
C31   C     C_R   0.332313 0.541757 0.529456 -0.155669
C32   C     C_R   0.667682 0.458224 0.470562 -0.160585
H13   H     H_    0.200198 0.573356 0.550867 0.115128
H14   H     H_    0.799797 0.426623 0.449152 0.116518
C33   C     C_R   0.510999 0.564585 0.566036 -0.042868
C34   C     C_R   0.488997 0.435400 0.433978 -0.048172
C35   C     C_R   0.344741 0.495239 0.053978 -0.146512
C36   C     C_R   0.656922 0.503447 0.944665 -0.113802
H15   H     H_    0.223609 0.493834 0.096856 0.127026
H16   H     H_    0.776530 0.505659 0.901184 0.196959
C37   C     C_R   0.347081 0.561242 0.990842 0.032156
C38   C     C_R   0.654948 0.436404 0.007514 -0.018027
C39   C     C_R   0.506001 0.565943 0.934757 -0.140708
C40   C     C_R   0.494333 0.431773 0.063356 -0.136483
C41   C     C_2   0.183237 0.625574 0.989995 0.367351
H17   H     H_    0.153427 0.666585 0.044768 0.003029
O21   O     O_2   0.071270 0.627756 0.931569 -0.505188
C42   C     C_2   0.820934 0.371848 0.010197 0.349561
H18   H     H_    0.815275 0.308928 0.045022 0.064036
O22   O     O_2   0.969409 0.388026 0.971603 -0.529581
C43   C     C_3   0.348213 0.887939 0.991958 -0.756928
H19   H     H_    0.442347 0.901187 0.046609 0.195341
H20   H     H_    0.309497 0.814096 0.992314 0.190627
H21   H     H_    0.433805 0.904230 0.935527 0.215997
C44   C     C_3   0.642275 0.103555 0.012624 -0.739074
H22   H     H_    0.542741 0.085389 0.960967 0.199328
H23   H     H_    0.565610 0.087738 0.071451 0.215757
H24   H     H_    0.671384 0.177900 0.008180 0.186533

loop_
_geom_bond_atom_site_label_1
_geom_bond_atom_site_label_2
_ccdc_geom_bond_type
C7    C22   S    
C26   C28   A    
V4    O20   S    
C43   H19   S    
C29   H11   S    
C8    C21   S    
O13   V3    S    
O4    C2    A    
V1    O19   S    
C41   H17   S    
C13   C15   A    
O9    V1    S    
C36   H16   S    
C30   C32   A    
C9    C11   A    
C42   O22   D    
O3    C1    A    
C11   H5    S    
C38   C40   A    
C25   H9    S    
C12   H6    S    
C26   H10   S    
C23   C28   A    
C30   C33   A    
O7    C3    A    
O5    C7    A    
O7    V1    S    
C24   C44   S    
O6    C8    A    
O8    V2    S    
C9    H3    S    
O3    V1    S    
O14   V4    S    
C31   C33   A    
C14   C16   A    
C3    C40   S    
C2    O12   A    
V3    O19   S    
C15   C17   A    
C16   C18   A    
C41   O21   D    
C18   C20   A    
O11   V3    S    
C37   C39   A    
O17   V3    S    
C29   C31   A    
H1    C14   S    
H2    C13   S    
C42   H18   S    
O8    C4    A    
C1    C34   S    
C1    O11   A    
O15   V3    S    
C31   H13   S    
C30   H12   S    
C44   H23   S    
C37   C41   S    
C32   C34   A    
O10   V2    S    
O1    V3    S    
C4    C39   S    
C10   C20   A    
C17   C19   A    
C15   H7    S    
O18   V4    S    
C36   C39   A    
O15   C5    A    
O16   C6    A    
O1    C3    A    
C35   H15   S    
O12   V4    S    
C10   C12   A    
C9    C19   A    
C44   H22   S    
C10   H4    S    
V2    O20   S    
C19   C22   A    
C20   C21   A    
C2    C33   S    
C6    C28   S    
O16   V4    S    
C25   C27   A    
O5    V1    S    
O17   C7    A    
O6    V2    S    
O10   C6    A    
O18   C8    A    
O2    V4    S    
C23   C25   A    
C11   C13   A    
C16   H8    S    
C44   H24   S    
C12   C14   A    
O9    C5    A    
O13   V1    S    
C35   C40   A    
C24   C26   A    
O14   V2    S    
C23   C43   S    
O2    C4    A    
O4    V2    S    
C38   C42   S    
C5    C27   S    
C29   C34   A    
C32   H14   S    
C36   C38   A    
C43   H21   S    
C43   H20   S    
C35   C37   A    
C24   C27   A    
C17   C21   A    
C18   C22   A    
