data_mof_unit_57915.cif
_audit_creation_date              2012-12-10T17:43:32-0500
_audit_creation_method            fapswitch 2.2
_symmetry_space_group_name_H-M    P1
_symmetry_Int_Tables_number       1
_space_group_crystal_system       triclinic
_cell_length_a                    14.921092
_cell_length_b                    10.628937
_cell_length_c                    9.947242
_cell_angle_alpha                 88.375603
_cell_angle_beta                  89.231636
_cell_angle_gamma                 92.373676
_cell_volume                      1575.43124248

loop_
_atom_site_label
_atom_site_type_symbol
_atom_type_description
_atom_site_fract_x
_atom_site_fract_y
_atom_site_fract_z
_atom_type_partial_charge
C1    C     C_R   0.509671 0.260941 0.503207 0.870434
C2    C     C_R   0.183559 0.388109 0.527254 -0.008268
C3    C     C_R   0.232006 0.501939 0.501225 -0.173094
C4    C     C_R   0.327446 0.499830 0.500717 0.881652
C5    C     C_R   0.190663 0.614327 0.466272 0.373412
C6    C     C_R   0.489942 0.098249 0.763722 0.443510
C7    C     C_R   0.433206 0.034345 0.861258 0.015332
C8    C     C_R   0.383785 0.925273 0.826551 0.069291
C9    C     C_R   0.397924 0.874031 0.700935 -0.214234
C10   C     C_R   0.457927 0.934334 0.606577 -0.008485
C11   C     C_R   0.490314 0.056350 0.628723 -0.001770
C12   C     C_R   0.910118 0.615861 0.449501 -0.031123
C13   C     C_R   0.524501 0.127692 0.514245 -0.113436
C14   C     C_R   0.557190 0.066536 0.400926 0.065421
C15   C     C_R   0.542804 0.938446 0.394354 -0.168885
C16   C     C_R   0.495034 0.739498 0.498104 0.846727
C17   C     C_R   0.491981 0.873237 0.494617 -0.110238
C18   C     C_R   0.354563 0.370098 0.139004 0.182821
C19   C     C_R   0.275759 0.351715 0.066768 -0.165320
C20   C     C_R   0.281257 0.343419 0.928556 -0.250681
C21   C     C_R   0.362428 0.372203 0.863283 -0.113075
C22   C     C_R   0.431836 0.436512 0.929818 0.090802
C23   C     C_R   0.942063 0.279223 0.549004 -0.277464
C24   C     C_R   0.430413 0.435804 0.074133 0.102502
C25   C     C_R   0.565203 0.561698 0.068809 -0.162863
C26   C     C_R   0.565231 0.562893 0.925359 0.170283
C27   C     C_R   0.672499 0.500897 0.499099 0.866993
C28   C     C_R   0.816334 0.619091 0.462426 0.387551
C29   C     C_R   0.767662 0.506110 0.496203 -0.157217
C30   C     C_R   0.809083 0.394094 0.522077 -0.266940
C31   C     C_R   0.901392 0.391611 0.518386 0.099409
C32   C     C_R   0.952803 0.502251 0.484427 -0.036270
C33   C     C_R   0.035353 0.273792 0.551079 0.449562
C34   C     C_R   0.088990 0.385396 0.522680 0.054701
C35   C     C_R   0.046661 0.499608 0.487810 -0.103740
C36   C     C_R   0.097787 0.612251 0.457862 0.009074
C37   C     C_R   0.055494 0.722165 0.417987 -0.167543
C38   C     C_R   0.963213 0.723884 0.408208 0.424149
H1    H     H_    0.363234 0.785643 0.678975 0.171177
H2    H     H_    0.711281 0.724915 0.476666 0.327911
H3    H     H_    0.548874 0.203921 0.898080 0.345799
H4    H     H_    0.359988 0.095355 0.016712 0.228044
H5    H     H_    0.447695 0.008239 0.061804 0.210075
H6    H     H_    0.260801 0.853693 0.880459 0.204409
H7    H     H_    0.346735 0.770452 0.939419 0.198018
H8    H     H_    0.348197 0.288590 0.331988 0.233274
H9    H     H_    0.423331 0.220630 0.215941 0.212145
H10   H     H_    0.606375 0.717315 0.817298 0.201019
H11   H     H_    0.686901 0.658769 0.913681 0.161167
H12   H     H_    0.573063 0.889554 0.312111 0.178089
H13   H     H_    0.026415 0.093440 0.597826 0.353381
H14   H     H_    0.217352 0.240683 0.650392 0.236588
H15   H     H_    0.219438 0.210924 0.481055 0.244138
H16   H     H_    0.302492 0.720401 0.459393 0.323020
H17   H     H_    0.883576 0.805906 0.287463 0.367105
H18   H     H_    0.657779 0.193013 0.343975 0.198591
H19   H     H_    0.572849 0.178966 0.231889 0.206027
H20   H     H_    0.617751 0.612720 0.121089 0.154200
H21   H     H_    0.216121 0.311011 0.117252 0.165861
H22   H     H_    0.225051 0.303546 0.874388 0.168991
H23   H     H_    0.370229 0.341039 0.762775 0.209759
H24   H     H_    0.768791 0.308806 0.546618 0.160492
H25   H     H_    0.900721 0.194958 0.572805 0.160460
H26   H     H_    0.094092 0.807711 0.389851 0.230725
N1    N     N_R   0.499150 0.498800 0.142780 -0.123164
N2    N     N_R   0.499120 0.498720 0.857170 -0.112128
N3    N     N_3   0.427250 0.079151 0.995410 -0.492771
N4    N     N_3   0.324456 0.861544 0.922859 -0.446908
N5    N     N_3   0.364951 0.268505 0.233394 -0.463643
N6    N     N_3   0.633986 0.633484 0.850704 -0.385381
N7    N     N_3   0.233351 0.277342 0.554228 -0.470276
N8    N     N_3   0.612711 0.129743 0.298817 -0.439092
O1    O     O_R   0.500000 0.316780 0.614690 -0.573245
O2    O     O_3   0.554318 0.187737 0.800917 -0.738563
O3    O     O_3   0.073792 0.160664 0.582012 -0.796335
O4    O     O_3   0.238392 0.727214 0.438420 -0.780698
O5    O     O_3   0.928076 0.832075 0.355434 -0.713193
O6    O     O_R   0.499990 0.316750 0.385360 -0.655606
O7    O     O_R   0.367850 0.499980 0.614680 -0.643341
O8    O     O_R   0.367840 0.499960 0.385350 -0.615344
O9    O     O_R   0.500010 0.683250 0.614640 -0.623488
O10   O     O_R   0.500000 0.683220 0.385310 -0.617413
O11   O     O_R   0.632160 0.500040 0.614650 -0.569430
O12   O     O_R   0.632150 0.500020 0.385320 -0.621578
O13   O     O_3   0.775126 0.733256 0.448666 -0.753483
Zn1   Zn    Zn3+2 0.500010 0.500020 0.653130 0.972086
Zn2   Zn    Zn3+2 0.499990 0.499980 0.346870 0.939550

loop_
_geom_bond_atom_site_label_1
_geom_bond_atom_site_label_2
_ccdc_geom_bond_type
O6    Zn2   S    
C27   C29   S    
C35   C36   A    
O12   Zn2   S    
C7    C8    A    
C29   C30   A    
C12   C28   A    
C18   C24   A    
C28   C29   A    
H13   O3    S    
C4    O8    A    
O8    Zn2   S    
C30   C31   A    
H17   O5    S    
C10   C17   A    
O10   Zn2   S    
C5    C36   A    
C9    H1    S    
C34   C35   A    
C15   H12   S    
C22   N2    A    
H8    N5    S    
H3    O2    S    
C33   O3    S    
H9    N5    S    
C19   C20   A    
C8    C9    A    
H18   N8    S    
N1    Zn2   S    
C20   H22   S    
C9    C10   A    
C21   H23   S    
O9    Zn1   S    
C2    C34   A    
C18   N5    S    
C23   H25   S    
C13   C14   A    
C12   C32   A    
C1    O6    A    
C6    O2    S    
C26   N2    A    
C32   C35   A    
C25   N1    A    
C4    O7    A    
C23   C33   A    
C6    C11   A    
C18   C19   A    
C19   H21   S    
C25   C26   A    
C23   C31   A    
H2    O13   S    
C37   C38   A    
C31   C32   A    
H7    N4    S    
C16   O10   A    
C33   C34   A    
C24   N1    A    
H16   O4    S    
H5    N3    S    
C8    N4    S    
H11   N6    S    
C30   H24   S    
H4    N3    S    
C26   N6    S    
C22   C24   A    
H6    N4    S    
C1    C13   S    
C25   H20   S    
C3    C4    S    
H15   N7    S    
C37   H26   S    
C15   C17   A    
C27   O12   A    
C14   N8    S    
H10   N6    S    
C3    C5    A    
N2    Zn1   S    
C6    C7    A    
C38   O5    S    
C1    O1    A    
C5    O4    S    
C27   O11   A    
C2    C3    A    
H14   N7    S    
C11   C13   A    
C16   C17   S    
C16   O9    A    
H19   N8    S    
C12   C38   A    
O1    Zn1   S    
C10   C11   A    
C7    N3    S    
O11   Zn1   S    
C20   C21   A    
C36   C37   A    
C28   O13   S    
C14   C15   A    
C21   C22   A    
O7    Zn1   S    
C2    N7    S    
