data_mof_unit_34189.cif
_audit_creation_date              2013-03-05T16:02:50-0500
_audit_creation_method            fapswitch 2.2
_symmetry_space_group_name_H-M    P1
_symmetry_Int_Tables_number       1
_space_group_crystal_system       triclinic
_cell_length_a                    6.999565
_cell_length_b                    14.500063
_cell_length_c                    15.995598
_cell_angle_alpha                 90.000297
_cell_angle_beta                  89.636344
_cell_angle_gamma                 89.999521
_cell_volume                      1623.42665842

loop_
_atom_site_label
_atom_site_type_symbol
_atom_site_description
_atom_site_fract_x
_atom_site_fract_y
_atom_site_fract_z
_atom_type_partial_charge
O1    O     O_R   0.611670 0.415650 0.164070 -0.589453
O2    O     O_R   0.388330 0.915650 0.835930 -0.589450
O3    O     O_R   0.940950 0.405490 0.337780 -0.526448
O4    O     O_R   0.059050 0.905490 0.662220 -0.526441
O5    O     O_R   0.111350 0.584350 0.338470 -0.581526
O6    O     O_R   0.888650 0.084350 0.661530 -0.581550
C1    C     C_R   0.772038 0.381636 0.365487 0.961456
C2    C     C_R   0.227964 0.881643 0.634515 0.961523
O7    O     O_R   0.941380 0.404630 0.164680 -0.593219
O8    O     O_R   0.058620 0.904630 0.835320 -0.593186
O9    O     O_R   0.111780 0.583470 0.164130 -0.588264
O10   O     O_R   0.888220 0.083470 0.835870 -0.588271
C3    C     C_R   0.772893 0.382757 0.136110 0.927426
C4    C     C_R   0.227109 0.882757 0.863892 0.927413
O11   O     O_R   0.611240 0.416530 0.338400 -0.595914
O12   O     O_R   0.388760 0.916530 0.661600 -0.595942
O13   O     O_3   0.778020 0.558680 0.251290 -0.300892
O14   O     O_3   0.221980 0.058680 0.748710 -0.300908
V1    V     V_3+5 0.052840 0.489110 0.251260 1.224826
V2    V     V_3+5 0.947160 0.989110 0.748740 1.224871
O15   O     O_R   0.441500 0.594510 0.164760 -0.603856
O16   O     O_R   0.558500 0.094510 0.835240 -0.603863
C5    C     C_R   0.273106 0.616485 0.136341 0.939830
C6    C     C_R   0.726893 0.116482 0.863660 0.939821
O17   O     O_R   0.441080 0.595370 0.337860 -0.627554
O18   O     O_R   0.558920 0.095370 0.662140 -0.627566
C7    C     C_R   0.271610 0.617745 0.366399 1.017859
C8    C     C_R   0.728388 0.117743 0.633602 1.017886
V3    V     V_3+5 0.552850 0.510890 0.251270 1.156852
V4    V     V_3+5 0.447150 0.010890 0.748730 1.156859
O19   O     O_3   0.277800 0.441320 0.251250 -0.241228
O20   O     O_3   0.722200 0.941320 0.748750 -0.241199
C9    C     C_3   0.109695 0.656611 0.506826 0.449067
C10   C     C_3   0.890289 0.156599 0.493175 0.449209
H1    H     H_    0.968276 0.670517 0.479638 0.082476
H2    H     H_    0.031710 0.170507 0.520356 0.082465
C11   C     C_3   0.121385 0.719616 0.585755 0.128367
C12   C     C_3   0.878613 0.219607 0.414248 0.128363
H3    H     H_    0.200340 0.684098 0.636208 0.052455
H4    H     H_    0.799657 0.184100 0.363790 0.052424
H5    H     H_    0.019763 0.878326 0.485444 0.238219
H6    H     H_    0.980247 0.378315 0.514548 0.238198
C13   C     C_3   0.204775 0.786630 0.404961 0.430818
C14   C     C_3   0.795236 0.286632 0.595036 0.430861
C15   C     C_3   0.456311 0.701649 0.480527 -0.483068
C16   C     C_3   0.543683 0.201654 0.519475 -0.483047
C17   C     C_3   0.258652 0.687108 0.437646 -0.285119
C18   C     C_3   0.741344 0.187105 0.562358 -0.285225
H7    H     H_    0.561364 0.723365 0.432818 0.167024
H8    H     H_    0.438643 0.223371 0.567186 0.167013
H9    H     H_    0.519004 0.638123 0.506510 0.198958
H10   H     H_    0.480979 0.138127 0.493496 0.198985
C19   C     C_3   0.235957 0.810146 0.564012 -0.220480
C20   C     C_3   0.764053 0.310134 0.435988 -0.220500
C21   C     C_3   0.167977 0.854288 0.479950 -0.439934
C22   C     C_3   0.832032 0.354283 0.520048 -0.439973
C23   C     C_3   0.443508 0.777600 0.548670 -0.326709
C24   C     C_3   0.556485 0.277600 0.451329 -0.326655
H11   H     H_    0.502004 0.750121 0.608148 0.235140
H12   H     H_    0.497993 0.250115 0.391851 0.235158
H13   H     H_    0.528484 0.838166 0.527708 0.213258
H14   H     H_    0.471507 0.338168 0.472294 0.213227
H15   H     H_    0.338466 0.813762 0.375849 0.076811
H16   H     H_    0.661550 0.313766 0.624152 0.076812
H17   H     H_    0.250731 0.918758 0.468526 0.149111
H18   H     H_    0.749288 0.418760 0.531476 0.149101
H19   H     H_    0.104095 0.569850 0.758966 0.160655
H20   H     H_    0.896022 0.069856 0.241025 0.160714
C25   C     C_R   0.316899 0.938911 0.032845 -0.188333
C26   C     C_R   0.683092 0.438911 0.967155 -0.188304
C27   C     C_R   0.363424 0.968190 0.113172 -0.097528
C28   C     C_R   0.636566 0.468189 0.886830 -0.097512
C29   C     C_R   0.379093 0.904554 0.177732 -0.098873
C30   C     C_R   0.620892 0.404550 0.822269 -0.098907
C31   C     C_R   0.347322 0.811173 0.162570 -0.123934
C32   C     C_R   0.652665 0.311169 0.837433 -0.123914
C33   C     C_R   0.299455 0.779293 0.081740 0.103791
C34   C     C_R   0.700538 0.279290 0.918258 0.103799
C35   C     C_R   0.284916 0.844457 0.015345 0.109046
C36   C     C_R   0.715079 0.344457 0.984661 0.109033
C37   C     C_R   0.263803 0.684438 0.066720 -0.303634
C38   C     C_R   0.736198 0.184436 0.933286 -0.303633
C39   C     C_R   0.216727 0.654610 0.984913 0.109348
C40   C     C_R   0.783292 0.154610 0.015085 0.109346
C41   C     C_R   0.204682 0.719592 0.918287 0.099177
C42   C     C_R   0.795348 0.219594 0.081718 0.099223
C43   C     C_R   0.237180 0.814697 0.933532 -0.298381
C44   C     C_R   0.762825 0.314697 0.066467 -0.298383
C45   C     C_R   0.184825 0.560114 0.967517 -0.180040
C46   C     C_R   0.815207 0.060115 0.032484 -0.180023
C47   C     C_R   0.143614 0.530415 0.886788 -0.128430
C48   C     C_R   0.856449 0.030418 0.113209 -0.128400
C49   C     C_R   0.134016 0.593618 0.821680 -0.088835
C50   C     C_R   0.866072 0.093624 0.178316 -0.088896
C51   C     C_R   0.163730 0.687202 0.836924 -0.123478
C52   C     C_R   0.836343 0.187207 0.163075 -0.123606
H21   H     H_    0.305318 0.991243 0.984930 0.125622
H22   H     H_    0.694675 0.491246 0.015072 0.125619
H23   H     H_    0.387400 0.040712 0.125357 0.145404
H24   H     H_    0.612591 0.540711 0.874643 0.145408
H25   H     H_    0.415508 0.927667 0.239999 0.119126
H26   H     H_    0.584476 0.427664 0.760002 0.119102
H27   H     H_    0.360389 0.764442 0.214907 0.114582
H28   H     H_    0.639597 0.264438 0.785091 0.114572
H29   H     H_    0.193500 0.507978 0.015730 0.124084
H30   H     H_    0.806521 0.007977 0.984270 0.124072
H31   H     H_    0.120523 0.457824 0.874588 0.144792
H32   H     H_    0.879552 0.957827 0.125408 0.144793
H33   H     H_    0.155805 0.733721 0.784250 0.110268
H34   H     H_    0.844291 0.233727 0.215751 0.110218
O21   O     O_3   0.097822 0.560637 0.525940 -0.615499
C53   C     C_3   0.269639 0.520116 0.553424 -0.226097
H35   H     H_    0.347526 0.561697 0.600116 0.123789
H36   H     H_    0.361855 0.501790 0.499284 0.138801
H37   H     H_    0.234227 0.454888 0.585699 0.159951
O22   O     O_3   0.902146 0.060624 0.474055 -0.615464
C54   C     C_3   0.730323 0.020117 0.446572 -0.226037
H38   H     H_    0.652444 0.061702 0.399882 0.123823
H39   H     H_    0.638105 0.001793 0.500712 0.138780
H40   H     H_    0.765728 0.954887 0.414295 0.159951
N1    N     N_R   0.929959 0.736876 0.618815 0.233332
O23   O     O_R   0.854667 0.680601 0.673148 -0.435665
O24   O     O_R   0.825009 0.800955 0.586545 -0.468441
N2    N     N_R   0.070057 0.236851 0.381176 0.233320
O25   O     O_R   0.145466 0.180432 0.327010 -0.435690
O26   O     O_R   0.174983 0.300962 0.413411 -0.468378
O27   O     O_3   0.076414 0.792779 0.336311 -0.626288
C55   C     C_3   0.883895 0.772824 0.354733 -0.217330
H41   H     H_    0.836013 0.795791 0.416940 0.120537
H42   H     H_    0.855252 0.698410 0.347354 0.182714
H43   H     H_    0.793468 0.809109 0.308487 0.149417
O28   O     O_3   0.923600 0.292775 0.663683 -0.626291
C56   C     C_3   0.116118 0.272816 0.645258 -0.217351
H44   H     H_    0.163992 0.295778 0.583052 0.120521
H45   H     H_    0.144759 0.198402 0.652641 0.182726
H46   H     H_    0.206550 0.309105 0.691503 0.149414

loop_
_geom_bond_atom_site_label_1
_geom_bond_atom_site_label_2
_geom_bond_distance
_ccdc_geom_bond_type
C24   H14   1.111309 S    
V4    O20   2.173501 S    
C32   H28   1.081410 S    
O13   V3    1.721709 S    
O21   C53   1.411224 S    
O4    C2    1.306595 A    
V1    O19   1.720350 S    
C55   H41   1.099588 S    
C35   C43   1.419853 A    
C13   H15   1.114356 S    
C14   H16   1.114353 S    
C15   C23   1.551685 S    
C30   C32   1.393704 A    
C40   C42   1.425539 A    
C4    C43   1.490212 S    
O3    C1    1.306629 A    
C54   H39   1.109113 S    
V2    O20   1.720361 S    
C42   C44   1.419036 A    
C23   H11   1.111962 S    
C15   H9    1.102759 S    
C24   H12   1.111994 S    
C16   H10   1.102785 S    
C6    C38   1.488751 S    
O22   C54   1.411174 S    
C15   C17   1.562410 S    
C25   C27   1.393730 A    
C14   C22   1.569533 S    
C49   C51   1.394534 A    
H5    C21   1.097409 S    
O7    C3    1.306564 A    
H6    C22   1.097406 S    
O5    C7    1.303362 A    
O7    V1    2.010190 S    
O6    C8    1.303346 A    
O8    V2    2.010190 S    
O28   C56   1.407629 S    
C56   H46   1.109353 S    
O3    V1    1.996265 S    
C9    O21   1.427129 S    
C33   C37   1.418618 A    
C45   C47   1.393148 A    
C5    C37   1.488688 S    
C10   H2    1.102279 S    
C30   H26   1.082831 S    
C11   C19   1.575986 S    
C19   C21   1.565958 S    
C2    O12   1.310171 A    
C16   C24   1.551675 S    
C31   H27   1.081356 S    
C29   C31   1.393687 A    
C40   C46   1.416177 A    
C53   H36   1.109102 S    
C53   H35   1.106217 S    
C37   C39   1.418950 A    
C48   H32   1.082844 S    
O11   V3    1.997177 S    
C16   C18   1.562447 S    
C33   C35   1.425634 A    
O17   V3    2.004294 S    
C39   C45   1.416165 A    
C20   C22   1.565964 S    
C41   C43   1.419027 A    
C26   C36   1.416020 A    
C47   H31   1.082837 S    
C46   H30   1.081939 S    
C28   C30   1.389758 A    
C51   H33   1.080986 S    
C54   H40   1.104970 S    
C13   O27   1.426023 S    
C27   C29   1.389723 A    
C19   C23   1.545610 S    
O13   V1    2.172071 S    
C1    O11   1.310225 A    
C52   H34   1.081038 S    
C9    C11   1.560941 S    
C47   C49   1.389203 A    
C34   C38   1.418632 A    
C46   C48   1.393117 A    
C12   C20   1.575890 S    
C15   H7    1.102316 S    
O9    V1    1.994335 S    
O10   V2    1.994319 S    
O1    V3    2.003702 S    
C34   C36   1.425749 A    
C50   C52   1.394542 A    
C31   C33   1.415305 A    
N1    O23   1.301197 A    
C42   C52   1.414604 A    
C11   N1    1.458973 S    
C13   C21   1.569596 S    
C39   C41   1.425435 A    
O18   V4    2.004310 S    
C38   C40   1.418864 A    
O15   C5    1.305476 A    
O8    C4    1.306584 A    
O14   V4    1.721698 S    
C9    C17   1.578764 S    
O16   C6    1.305469 A    
C25   C35   1.415991 A    
O1    C3    1.301758 A    
C21   H17   1.114213 S    
O27   C55   1.407625 S    
C55   H43   1.109316 S    
N2    O26   1.293924 A    
C20   C24   1.545676 S    
C7    C17   1.522247 S    
C16   H8    1.102283 S    
C8    C18   1.522214 S    
C29   H25   1.082836 S    
O16   V4    2.001536 S    
C10   C12   1.560951 S    
C32   C34   1.415247 A    
C13   C17   1.581302 S    
C55   H42   1.103933 S    
C2    C19   1.532601 S    
C28   H24   1.082769 S    
C23   H13   1.111283 S    
O5    V1    2.007001 S    
C14   O28   1.425998 S    
O6    V2    2.007006 S    
O10   C6    1.302107 A    
O18   C8    1.309133 A    
O2    V4    2.003719 S    
C36   C44   1.419767 A    
C54   H38   1.106197 S    
C12   H4    1.107964 S    
C41   C51   1.414657 A    
C48   C50   1.389221 A    
C56   H44   1.099552 S    
C10   O22   1.427154 S    
O15   V3    2.001535 S    
C22   H18   1.114252 S    
C3    C44   1.490246 S    
O9    C5    1.302118 A    
C9    H1    1.102311 S    
O14   V2    2.172085 S    
C27   H23   1.082760 S    
O2    C4    1.301766 A    
H20   C50   1.082379 S    
N1    O24   1.293919 A    
O4    V2    1.996249 S    
C14   C18   1.581348 S    
C11   H3    1.107982 S    
C10   C18   1.578781 S    
V3    O19   2.173515 S    
C45   H29   1.081905 S    
H19   C49   1.082411 S    
C56   H45   1.103936 S    
C26   C28   1.393710 A    
C1    C20   1.532634 S    
O12   V4    1.997172 S    
C53   H37   1.104948 S    
C12   N2    1.459124 S    
C26   H22   1.081983 S    
N2    O25   1.301057 A    
O17   C7    1.309154 A    
C25   H21   1.081942 S    
