data_mof_unit_50612.cif
_audit_creation_date              2012-12-10T17:07:51-0500
_audit_creation_method            fapswitch 2.2
_symmetry_space_group_name_H-M    P1
_symmetry_Int_Tables_number       1
_space_group_crystal_system       triclinic
_cell_length_a                    10.631588
_cell_length_b                    10.675735
_cell_length_c                    10.039738
_cell_angle_alpha                 90.653507
_cell_angle_beta                  90.293709
_cell_angle_gamma                 89.770195
_cell_volume                      1139.41243228

loop_
_atom_site_label
_atom_site_type_symbol
_atom_type_description
_atom_site_fract_x
_atom_site_fract_y
_atom_site_fract_z
_atom_type_partial_charge
C1    C     C_R   0.488933 0.263142 0.498985 0.917737
C2    C     C_2   0.570545 0.572410 0.076654 -0.180719
C3    C     C_R   0.257775 0.497053 0.499750 0.864388
C4    C     C_R   0.498732 0.737404 0.500243 0.963970
C5    C     C_R   0.741669 0.491430 0.500170 0.850377
C6    C     C_3   0.074204 0.436539 0.631880 -0.508142
C7    C     C_3   0.931193 0.436175 0.634349 -0.418756
C8    C     C_3   0.068344 0.628272 0.485289 0.411741
C9    C     C_3   0.074090 0.407844 0.383231 -0.410113
C10   C     C_3   0.121100 0.493156 0.499260 0.086597
C11   C     C_3   0.115262 0.814774 0.379364 -0.353172
C12   C     C_3   0.878036 0.485532 0.499832 0.081744
C13   C     C_R   0.410623 0.115278 0.255858 0.179739
C14   C     C_R   0.509305 0.138595 0.167301 -0.074036
C15   C     C_R   0.483377 0.181852 0.039249 -0.187535
C16   C     C_R   0.358840 0.198851 0.997663 -0.164258
C17   C     C_R   0.260183 0.174832 0.085031 -0.138818
C18   C     C_R   0.285770 0.133275 0.213989 -0.189512
C19   C     C_R   0.603869 0.702472 0.873745 0.219108
C20   C     C_R   0.527819 0.810226 0.873594 -0.116563
C21   C     C_R   0.578264 0.925454 0.837087 -0.175431
C22   C     C_R   0.704901 0.934106 0.801642 -0.151312
C23   C     C_3   0.923586 0.622569 0.483435 -0.488972
C24   C     C_R   0.781534 0.827465 0.803789 -0.171933
C25   C     C_R   0.731536 0.712245 0.841419 -0.137722
C26   C     C_R   0.882582 0.270291 0.357742 0.147037
C27   C     C_R   0.921548 0.206641 0.241034 -0.183952
C28   C     C_R   0.891327 0.080848 0.218685 -0.157703
C29   C     C_R   0.820649 0.016353 0.312015 -0.139270
C30   C     C_R   0.777838 0.078552 0.426007 -0.161513
C31   C     C_R   0.805932 0.204992 0.447729 -0.125984
C32   C     C_3   0.928920 0.405286 0.378880 -0.139644
C33   C     C_2   0.434943 0.927836 0.399712 -0.224572
C34   C     C_2   0.495083 0.869711 0.498687 -0.369652
C35   C     C_2   0.436899 0.063155 0.389179 0.031719
C36   C     C_2   0.461531 0.132328 0.499159 -0.409575
C37   C     C_2   0.554597 0.585532 0.928626 -0.008156
H1    H     H_    0.108709 0.491982 0.719262 0.192219
H2    H     H_    0.429437 0.454345 0.100504 0.181958
H3    H     H_    0.898813 0.340937 0.658492 0.174605
H4    H     H_    0.899913 0.497562 0.717710 0.185111
H5    H     H_    0.099412 0.682341 0.575743 0.049580
H6    H     H_    0.886300 0.683108 0.565349 0.136148
H7    H     H_    0.109050 0.441708 0.285724 0.203422
H8    H     H_    0.113919 0.312088 0.396850 0.157838
H9    H     H_    0.185591 0.844655 0.455473 0.165401
H10   H     H_    0.021084 0.853185 0.405282 0.169635
H11   H     H_    0.143089 0.855203 0.282633 0.196488
H12   H     H_    0.899896 0.455595 0.286861 0.154265
H13   H     H_    0.605858 0.123981 0.197593 0.151845
H14   H     H_    0.559857 0.201052 0.971815 0.131670
H15   H     H_    0.338729 0.230400 0.897681 0.132396
H16   H     H_    0.163995 0.187392 0.052185 0.121664
H17   H     H_    0.208598 0.113451 0.280455 0.123380
H18   H     H_    0.429989 0.805048 0.902580 0.123968
H19   H     H_    0.518632 0.007559 0.834117 0.140796
H20   H     H_    0.743517 0.023366 0.772687 0.125616
H21   H     H_    0.880032 0.834441 0.778276 0.124689
H22   H     H_    0.792613 0.631619 0.849177 0.111492
H23   H     H_    0.886282 0.661672 0.388599 0.191607
H24   H     H_    0.977308 0.254656 0.167757 0.116485
H25   H     H_    0.923504 0.033231 0.129324 0.135613
H26   H     H_    0.797766 0.918682 0.295345 0.136008
H27   H     H_    0.722195 0.028884 0.497753 0.137967
H28   H     H_    0.765722 0.249072 0.534387 0.102008
H29   H     H_    0.389282 0.874454 0.320288 0.183866
H30   H     H_    0.546578 0.917372 0.576466 0.157587
H31   H     H_    0.459996 0.091622 0.597531 0.144657
H32   H     H_    0.475940 0.419000 0.896134 0.155375
H33   H     H_    0.637988 0.632485 0.127571 0.165918
H34   H     H_    0.110461 0.339102 0.642721 0.190836
N1    N     N_2   0.501360 0.501330 0.852150 -0.217773
N2    N     N_2   0.501390 0.501360 0.147810 -0.191446
O1    O     O_R   0.499980 0.319060 0.613040 -0.636789
O2    O     O_R   0.500020 0.319100 0.386900 -0.595311
O3    O     O_R   0.314770 0.499960 0.613070 -0.643049
O4    O     O_R   0.314820 0.500000 0.386930 -0.587676
O5    O     O_R   0.499980 0.680900 0.613100 -0.603444
O6    O     O_R   0.500020 0.680940 0.386960 -0.602654
O7    O     O_R   0.685180 0.500000 0.613070 -0.621211
O8    O     O_R   0.685230 0.500040 0.386930 -0.625441
O9    O     O_3   0.113018 0.682971 0.366264 -0.595717
Zn1   Zn    Zn3+2 0.499970 0.499970 0.650990 0.920793
Zn2   Zn    Zn3+2 0.500030 0.500030 0.349010 0.960464

loop_
_geom_bond_atom_site_label_1
_geom_bond_atom_site_label_2
_ccdc_geom_bond_type
C29   H26   S    
C9    H8    S    
C30   H27   S    
C11   H10   S    
C35   C36   D    
O1    Zn1   S    
C22   H20   S    
C14   H13   S    
C26   C32   S    
C12   C23   S    
C26   C27   A    
C13   C18   A    
C8    O9    S    
C1    O1    A    
C28   C29   A    
C8    H5    S    
C13   C35   S    
C20   H18   S    
O6    Zn2   S    
O2    Zn2   S    
C15   C16   A    
C8    C23   S    
C23   H6    S    
C27   H24   S    
C9    C32   S    
O5    Zn1   S    
C19   C20   A    
C16   C17   A    
C7    H3    S    
C6    H1    S    
C15   H14   S    
C19   C37   S    
C9    C10   S    
N2    Zn2   S    
C7    H4    S    
C26   C31   A    
C21   C22   A    
C12   C32   S    
C11   H11   S    
C7    C12   S    
O7    Zn1   S    
O3    Zn1   S    
C33   H29   S    
C17   C18   A    
C11   O9    S    
C23   H23   S    
C4    C34   S    
C13   C14   A    
C1    O2    A    
C24   C25   A    
C5    C12   S    
O4    Zn2   S    
H32   N1    S    
C4    O5    A    
C29   C30   A    
C5    O8    A    
C33   C34   D    
C5    O7    A    
C3    O3    A    
C2    N2    D    
C4    O6    A    
C24   H21   S    
C22   C24   A    
C3    O4    A    
C17   H16   S    
O8    Zn2   S    
C31   H28   S    
C9    H7    S    
C16   H15   S    
C6    H34   S    
C34   H30   S    
C6    C10   S    
C21   H19   S    
C36   H31   S    
C6    C7    S    
C3    C10   S    
C2    C37   S    
C30   C31   A    
C33   C35   S    
H2    N2    S    
C19   C25   A    
C32   H12   S    
N1    Zn1   S    
C18   H17   S    
C20   C21   A    
C8    C10   S    
C37   N1    D    
C27   C28   A    
C14   C15   A    
C11   H9    S    
C25   H22   S    
C2    H33   S    
C1    C36   S    
C28   H25   S    
