data_mof_unit_61999.cif
_audit_creation_date              2013-03-05T16:47:46-0500
_audit_creation_method            fapswitch 2.2
_symmetry_space_group_name_H-M    P1
_symmetry_Int_Tables_number       1
_space_group_crystal_system       triclinic
_cell_length_a                    22.198707
_cell_length_b                    22.229175
_cell_length_c                    22.193898
_cell_angle_alpha                 108.392634
_cell_angle_beta                  109.980456
_cell_angle_gamma                 110.050215
_cell_volume                      8427.99355248

loop_
_atom_site_label
_atom_site_type_symbol
_atom_site_description
_atom_site_fract_x
_atom_site_fract_y
_atom_site_fract_z
_atom_type_partial_charge
Zn1   Zn    Zn3+2 0.438420 0.731820 0.293400 0.994936
Zn2   Zn    Zn3+2 0.561580 0.268180 0.706600 0.994912
Zn3   Zn    Zn3+2 0.561600 0.855040 0.293450 0.965816
Zn4   Zn    Zn3+2 0.438400 0.144960 0.706550 0.965819
Zn5   Zn    Zn3+2 0.438510 0.706680 0.145100 1.002269
Zn6   Zn    Zn3+2 0.561490 0.293320 0.854900 1.002261
Zn7   Zn    Zn3+2 0.561670 0.706730 0.268320 1.000919
Zn8   Zn    Zn3+2 0.438330 0.293270 0.731680 1.000927
O1    O     O_3   0.500050 0.750060 0.250070 -0.491031
O2    O     O_3   0.499950 0.249940 0.749930 -0.491032
O3    O     O_R   0.664480 0.780430 0.323540 -0.633754
O4    O     O_R   0.335520 0.219570 0.676460 -0.633744
O5    O     O_R   0.335610 0.676590 0.219700 -0.623054
O6    O     O_R   0.664390 0.323410 0.780300 -0.623065
O7    O     O_R   0.543050 0.908950 0.365840 -0.647672
O8    O     O_R   0.456950 0.091050 0.634160 -0.647673
O9    O     O_R   0.457060 0.634290 0.091200 -0.620711
O10   O     O_R   0.542940 0.365710 0.908800 -0.620714
O11   O     O_R   0.543140 0.884190 0.219790 -0.639991
O12   O     O_R   0.456860 0.115810 0.780210 -0.639993
O13   O     O_R   0.543170 0.659080 0.323490 -0.627686
O14   O     O_R   0.456830 0.340920 0.676510 -0.627681
O15   O     O_R   0.456990 0.780350 0.115960 -0.627985
O16   O     O_R   0.543010 0.219650 0.884040 -0.627979
O17   O     O_R   0.456900 0.676640 0.341050 -0.633704
O18   O     O_R   0.543100 0.323360 0.658950 -0.633714
O19   O     O_R   0.456830 0.822700 0.365800 -0.631417
O20   O     O_R   0.543170 0.177300 0.634200 -0.631413
O21   O     O_R   0.543260 0.634320 0.177440 -0.634274
O22   O     O_R   0.456740 0.365680 0.822560 -0.634269
O23   O     O_R   0.664430 0.884240 0.341140 -0.638973
O24   O     O_R   0.335570 0.115760 0.658860 -0.638974
O25   O     O_R   0.335680 0.659000 0.115900 -0.636488
O26   O     O_R   0.664320 0.341000 0.884100 -0.636490
C1    C     C_R   0.699666 0.849948 0.349959 0.820635
C2    C     C_R   0.300334 0.150052 0.650041 0.820636
C3    C     C_R   0.300387 0.650238 0.150180 0.838547
C4    C     C_R   0.699613 0.349762 0.849820 0.838521
C5    C     C_R   0.499089 0.890207 0.389463 0.788593
C6    C     C_R   0.500911 0.109793 0.610537 0.788598
C7    C     C_R   0.499448 0.609196 0.109800 0.807692
C8    C     C_R   0.500553 0.390804 0.890200 0.807706
C9    C     C_R   0.500026 0.849860 0.150216 0.821793
C10   C     C_R   0.499973 0.150140 0.849784 0.821799
C11   C     C_R   0.499983 0.650214 0.349875 0.835892
C12   C     C_R   0.500017 0.349786 0.650125 0.835865
C13   C     C_3   0.476427 0.429969 0.454568 -0.161334
C14   C     C_3   0.523573 0.570031 0.545432 -0.161339
C15   C     C_3   0.430754 0.468946 0.444237 -0.156146
C16   C     C_3   0.569245 0.531054 0.555763 -0.156152
H1    H     H_    0.373835 0.443916 0.397909 0.146166
H2    H     H_    0.626165 0.556084 0.602091 0.146163
H3    H     H_    0.457054 0.371912 0.417716 0.141834
H4    H     H_    0.542946 0.628087 0.582284 0.141832
H5    H     H_    0.416897 0.502900 0.549267 0.149329
H6    H     H_    0.583103 0.497100 0.450733 0.149330
C17   C     C_1   0.499908 0.610472 0.389589 -0.123923
C18   C     C_1   0.500092 0.389528 0.610411 -0.123929
C19   C     C_3   0.545612 0.498138 0.473232 -0.152984
C20   C     C_3   0.454388 0.501862 0.526768 -0.152984
C21   C     C_3   0.499940 0.536471 0.463544 0.189060
C22   C     C_3   0.500060 0.463529 0.536455 0.189060
C23   C     C_1   0.499898 0.577060 0.422976 -0.065320
C24   C     C_1   0.500102 0.422940 0.577024 -0.065323
C25   C     C_3   0.975224 0.486522 0.044366 -0.160498
C26   C     C_3   0.024777 0.513476 0.955634 -0.160495
C27   C     C_3   0.025037 0.460084 0.023661 -0.159511
C28   C     C_3   0.974963 0.539914 0.976339 -0.159512
H7    H     H_    0.046668 0.427785 0.043595 0.136503
H8    H     H_    0.953333 0.572214 0.956405 0.136518
H9    H     H_    0.953812 0.474939 0.080314 0.134026
H10   H     H_    0.046188 0.525059 0.919686 0.134034
H11   H     H_    0.954592 0.383152 0.894036 0.124816
H12   H     H_    0.045408 0.616846 0.105964 0.124816
C29   C     C_1   0.220935 0.610789 0.110520 -0.147301
C30   C     C_1   0.779065 0.389210 0.889480 -0.147296
C31   C     C_3   0.024450 0.563852 0.057922 -0.170958
C32   C     C_3   0.975550 0.436146 0.942077 -0.170958
C33   C     C_3   0.072964 0.536767 0.036571 0.202986
C34   C     C_3   0.927036 0.463231 0.963429 0.202982
C35   C     C_1   0.154126 0.577492 0.077172 -0.109921
C36   C     C_1   0.845873 0.422507 0.922828 -0.109922
H13   H     H_    0.165767 0.469732 0.931649 0.142938
H14   H     H_    0.834219 0.530206 0.068379 0.142926
C37   C     C_R   0.259575 0.465833 0.999270 0.073921
C38   C     C_R   0.740450 0.534173 0.000781 0.073910
C39   C     C_R   0.329134 0.473855 0.012472 -0.173261
C40   C     C_R   0.670893 0.526164 0.987572 -0.173303
H15   H     H_    0.360210 0.465558 0.055637 0.175520
H16   H     H_    0.639843 0.534502 0.944425 0.175532
C41   C     C_R   0.359226 0.492416 0.970240 -0.043334
C42   C     C_R   0.640770 0.507568 0.029771 -0.043323
C43   C     C_R   0.318657 0.502970 0.913446 0.356303
C44   C     C_R   0.681302 0.496960 0.086537 0.356301
C45   C     C_R   0.248570 0.493650 0.900078 -0.186801
C46   C     C_R   0.751385 0.506264 0.099912 -0.186784
H17   H     H_    0.216692 0.501750 0.857267 0.179682
H18   H     H_    0.783236 0.498120 0.142704 0.179669
C47   C     C_R   0.219539 0.475645 0.942687 -0.276013
C48   C     C_R   0.780449 0.524307 0.057336 -0.275966
C49   C     C_R   0.434987 0.447131 0.932621 -0.168456
C50   C     C_R   0.565012 0.552866 0.067381 -0.168519
H19   H     H_    0.384218 0.405080 0.880963 0.158113
H20   H     H_    0.615780 0.594914 0.119040 0.158111
C51   C     C_R   0.501757 0.447905 0.946445 -0.051023
C52   C     C_R   0.498242 0.552093 0.053555 -0.051043
C53   C     C_R   0.567703 0.501475 0.014334 0.073396
C54   C     C_R   0.432295 0.498519 0.985669 0.073412
C55   C     C_3   0.024754 0.998033 0.563283 -0.161728
C56   C     C_3   0.975246 0.001967 0.436717 -0.161728
C57   C     C_3   0.975296 0.031027 0.540886 -0.161744
C58   C     C_3   0.024704 0.968972 0.459113 -0.161746
H21   H     H_    0.953974 0.056019 0.573977 0.137557
H22   H     H_    0.046025 0.943980 0.426023 0.137557
H23   H     H_    0.046119 0.996925 0.615798 0.138224
H24   H     H_    0.953880 0.003075 0.384201 0.138225
H25   H     H_    0.046164 0.128150 0.527243 0.142575
H26   H     H_    0.953836 0.871850 0.472757 0.142569
C59   C     C_1   0.779112 0.889675 0.389675 -0.136983
C60   C     C_1   0.220887 0.110325 0.610325 -0.136978
C61   C     C_3   0.975221 0.929938 0.485326 -0.155943
C62   C     C_3   0.024779 0.070062 0.514673 -0.155938
C63   C     C_3   0.927060 0.963581 0.463578 0.196168
C64   C     C_3   0.072940 0.036419 0.536422 0.196167
C65   C     C_1   0.845916 0.923056 0.423052 -0.077690
C66   C     C_1   0.154084 0.076944 0.576947 -0.077686
C67   C     C_3   0.505649 0.063734 0.039135 -0.151995
C68   C     C_3   0.494351 0.936266 0.960865 -0.152001
C69   C     C_3   0.442044 0.986318 0.011114 -0.164589
C70   C     C_3   0.557956 0.013682 0.988885 -0.164589
H27   H     H_    0.394398 0.974575 0.020737 0.138463
H28   H     H_    0.605602 0.025425 0.979263 0.138462
H29   H     H_    0.510298 0.116622 0.070817 0.148203
H30   H     H_    0.489702 0.883377 0.929182 0.148195
H31   H     H_    0.384167 0.927104 0.880899 0.141393
H32   H     H_    0.615832 0.072896 0.119101 0.141394
C71   C     C_1   0.499963 0.889521 0.110414 -0.131733
C72   C     C_1   0.500037 0.110479 0.889586 -0.131727
C73   C     C_3   0.563571 0.040275 0.065096 -0.158346
C74   C     C_3   0.436429 0.959725 0.934903 -0.158347
C75   C     C_3   0.499966 0.963503 0.036433 0.192548
C76   C     C_3   0.500034 0.036497 0.963567 0.192547
C77   C     C_1   0.499946 0.922902 0.076994 -0.072315
C78   C     C_1   0.500053 0.077097 0.923006 -0.072311
H33   H     H_    0.167289 0.693820 0.234556 0.120892
H34   H     H_    0.832707 0.306192 0.765432 0.120894
C79   C     C_R   0.262249 0.788317 0.258425 -0.125035
C80   C     C_R   0.737754 0.211690 0.741569 -0.125029
H35   H     H_    0.241756 0.774813 0.201406 0.118640
H36   H     H_    0.758251 0.225196 0.798589 0.118638
C81   C     C_R   0.330850 0.851246 0.313280 -0.130970
C82   C     C_R   0.669154 0.148758 0.686717 -0.130972
H37   H     H_    0.362844 0.886172 0.298042 0.101549
H38   H     H_    0.637165 0.113831 0.701957 0.101548
C83   C     C_R   0.358202 0.868664 0.387395 0.137388
C84   C     C_R   0.641797 0.131339 0.612601 0.137388
C85   C     C_R   0.315110 0.822995 0.405776 -0.140934
C86   C     C_R   0.684882 0.177009 0.594217 -0.140928
H39   H     H_    0.335091 0.835562 0.462546 0.131373
H40   H     H_    0.664897 0.164442 0.537446 0.131373
C87   C     C_R   0.246500 0.760137 0.350719 -0.130054
C88   C     C_R   0.753491 0.239871 0.649270 -0.130050
H41   H     H_    0.213802 0.724814 0.365117 0.132538
H42   H     H_    0.786184 0.275196 0.634869 0.132536
C89   C     C_R   0.220221 0.742670 0.277100 -0.090850
C90   C     C_R   0.779776 0.257339 0.722890 -0.090847
C91   C     C_R   0.435023 0.988376 0.502214 -0.248999
C92   C     C_R   0.564977 0.011624 0.497786 -0.249000
H43   H     H_    0.384282 0.980375 0.502914 0.160200
H44   H     H_    0.615717 0.019626 0.497085 0.160202
C93   C     C_R   0.502199 0.053758 0.555770 -0.046752
C94   C     C_R   0.497801 0.946242 0.444230 -0.046752
C95   C     C_R   0.568293 0.065442 0.554341 -0.000677
C96   C     C_R   0.431706 0.934559 0.445657 -0.000673
N1    N     N_R   0.348023 0.524520 0.870277 0.199049
O27   O     O_R   0.418947 0.567438 0.899286 -0.378272
O28   O     O_R   0.303174 0.508032 0.804103 -0.395564
N2    N     N_R   0.651902 0.475374 0.129672 0.199040
O29   O     O_R   0.580966 0.432476 0.100643 -0.378270
O30   O     O_R   0.696729 0.491810 0.195841 -0.395545
C97   C     C_2   0.227872 0.447086 0.043889 0.373431
H45   H     H_    0.173375 0.439840 0.031807 0.057678
O31   O     O_2   0.262084 0.439738 0.094692 -0.574819
C98   C     C_2   0.772189 0.552962 0.956198 0.373386
H46   H     H_    0.826681 0.560191 0.968281 0.057683
O32   O     O_2   0.738011 0.560369 0.905422 -0.574774

loop_
_geom_bond_atom_site_label_1
_geom_bond_atom_site_label_2
_geom_bond_distance
_ccdc_geom_bond_type
C28   C34   1.536084 S    
C26   C28   1.549764 S    
Zn7   O21   1.939833 S    
C39   C41   1.406384 A    
C83   C85   1.405052 A    
C80   C90   1.397269 A    
C1    C59   1.430250 S    
C13   C22   1.535971 S    
C58   H22   1.110130 S    
N2    O29   1.301310 A    
C13   C15   1.549201 S    
H33   C89   1.082238 S    
C97   H45   1.085735 S    
C14   H4    1.110117 S    
C26   C33   1.535984 S    
C51   C53   1.412915 A    
C11   C17   1.431351 S    
C15   C20   1.549194 S    
Zn3   O1    1.932991 S    
C16   C19   1.549195 S    
O24   C2    1.276554 A    
C79   H35   1.082459 S    
C80   H36   1.082465 S    
C58   C64   1.535770 S    
C75   C77   1.462062 S    
C50   H20   1.084748 S    
C45   C47   1.395798 A    
C92   H44   1.084865 S    
C63   C65   1.460811 S    
C69   C75   1.536040 S    
O20   C6    1.268243 A    
O17   C11   1.275899 A    
O15   C9    1.276057 A    
C98   H46   1.085742 S    
C20   C22   1.535988 S    
C44   N2    1.440412 S    
C85   C87   1.398812 A    
C16   H2    1.110121 S    
C21   C23   1.461983 S    
C22   C24   1.461983 S    
C79   C89   1.397260 A    
C55   C57   1.549097 S    
C87   H41   1.082381 S    
C88   C90   1.397731 A    
O3    C1    1.276524 A    
C86   H40   1.083174 S    
C26   H10   1.110675 S    
C40   C42   1.406411 A    
O19   C5    1.268241 A    
C15   H1    1.110121 S    
H12   C31   1.110661 S    
C46   H18   1.082600 S    
Zn8   O14   1.911457 S    
H11   C32   1.110665 S    
Zn3   O11   1.911311 S    
C81   C83   1.406646 A    
O4    C2    1.276526 A    
C38   C48   1.399126 A    
C68   C75   1.536069 S    
C88   H42   1.082403 S    
C49   H19   1.084748 S    
C13   H3    1.110117 S    
Zn1   O17   1.912690 S    
C49   C54   1.393136 A    
C97   O31   1.220991 D    
C71   C77   1.203369 T    
Zn2   O6    1.910953 S    
C43   C45   1.405815 A    
C25   C34   1.535985 S    
H13   C47   1.083698 S    
H5    C20   1.110137 S    
C12   C18   1.431353 S    
C57   C62   1.549095 S    
C38   C98   1.478284 S    
C91   H43   1.084864 S    
C92   C95   1.393187 A    
C27   C32   1.549271 S    
C67   C73   1.549275 S    
H32   C73   1.110290 S    
Zn6   O10   1.940683 S    
C70   C73   1.549290 S    
O12   C10   1.276038 A    
O11   C9    1.276039 A    
C14   C20   1.549170 S    
O13   C11   1.275840 A    
C37   C39   1.403911 A    
C49   C51   1.399916 A    
H31   C74   1.110290 S    
C26   C32   1.549330 S    
C84   C95   1.484609 S    
C19   C21   1.535990 S    
O9    C7    1.267557 A    
C25   C31   1.549330 S    
C7    C52   1.457460 S    
C38   C40   1.403922 A    
C57   C63   1.535770 S    
H14   C48   1.083723 S    
C82   C84   1.406647 A    
Zn1   O1    1.930211 S    
N1    O28   1.301279 A    
C30   C36   1.202741 T    
C33   C35   1.461157 S    
C86   C88   1.398814 A    
C29   C35   1.202739 T    
C4    C30   1.430367 S    
C3    C29   1.430367 S    
C18   C24   1.203311 T    
C25   C27   1.549764 S    
Zn7   O13   1.911456 S    
C41   C43   1.417967 A    
C43   N1    1.440384 S    
O25   C3    1.275466 A    
Zn6   O26   1.910670 S    
Zn5   O25   1.910668 S    
C27   H7    1.110642 S    
H26   C61   1.110116 S    
Zn4   O8    1.939691 S    
C70   H28   1.110260 S    
H25   C62   1.110115 S    
C67   C69   1.549292 S    
Zn5   O1    1.930712 S    
C5    C94   1.456885 S    
C37   C47   1.399091 A    
C68   H30   1.110320 S    
C56   C63   1.535786 S    
O6    C4    1.275236 A    
C93   C95   1.413102 A    
C42   C53   1.485559 S    
Zn7   O3    1.911112 S    
N1    O27   1.301239 A    
Zn5   O15   1.912427 S    
C92   C94   1.400465 A    
Zn8   O4    1.911111 S    
Zn6   O16   1.912428 S    
C42   C44   1.417986 A    
C31   C33   1.536296 S    
C27   C33   1.536084 S    
C50   C53   1.393122 A    
C57   H21   1.110130 S    
C44   C46   1.405816 A    
C14   C16   1.549201 S    
O7    C5    1.268666 A    
Zn4   O24   1.910923 S    
C60   C66   1.202650 T    
O8    C6    1.268664 A    
C91   C96   1.393190 A    
C59   C65   1.202650 T    
C83   C96   1.484609 S    
Zn8   O2    1.932325 S    
O14   C12   1.275838 A    
C40   H16   1.083967 S    
C39   H15   1.083878 S    
C16   C22   1.535938 S    
C76   C78   1.462064 S    
C85   H39   1.083167 S    
Zn1   O5    1.910953 S    
Zn4   O2    1.932989 S    
Zn2   O2    1.930211 S    
C56   H24   1.110113 S    
Zn3   O7    1.939690 S    
C64   C66   1.460811 S    
C67   H29   1.110321 S    
C28   C31   1.549271 S    
Zn7   O1    1.932323 S    
C10   C72   1.431459 S    
O21   C7    1.269687 A    
O26   C4    1.275463 A    
C70   C76   1.536038 S    
O5    C3    1.275235 A    
C41   C54   1.485546 S    
C80   C82   1.398455 A    
C17   C23   1.203311 T    
C82   H38   1.083183 S    
C68   C70   1.549291 S    
Zn2   O18   1.912690 S    
Zn6   O2    1.930712 S    
N2    O30   1.301446 A    
C45   H17   1.082506 S    
C55   C64   1.535785 S    
C74   C76   1.536079 S    
C37   C97   1.478241 S    
H6    C19   1.110135 S    
C91   C93   1.400467 A    
Zn8   O22   1.939832 S    
O10   C8    1.267552 A    
C68   C74   1.549275 S    
C58   C61   1.549096 S    
C72   C78   1.203369 T    
C56   C62   1.549096 S    
Zn3   O23   1.910921 S    
C73   C75   1.536079 S    
C15   C21   1.535938 S    
C55   C61   1.549097 S    
C14   C21   1.535973 S    
C69   C74   1.549293 S    
C52   C54   1.412915 A    
O16   C10   1.276057 A    
C79   C81   1.398453 A    
C46   C48   1.395834 A    
O23   C1    1.276554 A    
C84   C86   1.405060 A    
C94   C96   1.413102 A    
C34   C36   1.461157 S    
C98   O32   1.221120 D    
C9    C71   1.431459 S    
C32   C34   1.536298 S    
C81   H37   1.083166 S    
H34   C90   1.082242 S    
C2    C60   1.430250 S    
C8    C51   1.457456 S    
C56   C58   1.549096 S    
C61   C63   1.535787 S    
C55   H23   1.110113 S    
C13   C19   1.549173 S    
Zn4   O12   1.911314 S    
C25   H9    1.110675 S    
Zn5   O9    1.940683 S    
C28   H8    1.110640 S    
C50   C52   1.399914 A    
Zn1   O19   1.940813 S    
O22   C8    1.269691 A    
Zn2   O20   1.940811 S    
O18   C12   1.275899 A    
C62   C64   1.535791 S    
C67   C76   1.536067 S    
C6    C93   1.456887 S    
C87   C89   1.397731 A    
C69   H27   1.110258 S    
