data_mof_unit_21621.cif
_audit_creation_date              2012-12-11T17:16:56-0500
_audit_creation_method            fapswitch 2.2
_symmetry_space_group_name_H-M    P1
_symmetry_Int_Tables_number       1
_space_group_crystal_system       triclinic
_cell_length_a                    6.943995
_cell_length_b                    13.377613
_cell_length_c                    14.683491
_cell_angle_alpha                 98.94069
_cell_angle_beta                  89.917963
_cell_angle_gamma                 90.201581
_cell_volume                      1347.42741386

loop_
_atom_site_label
_atom_site_type_symbol
_atom_type_description
_atom_site_fract_x
_atom_site_fract_y
_atom_site_fract_z
_atom_type_partial_charge
O1    O     O_R   0.354890 0.151580 0.148210 -0.538545
O2    O     O_R   0.645110 0.848420 0.851790 -0.538548
O3    O     O_R   0.682370 0.152980 0.336770 -0.531688
O4    O     O_R   0.317630 0.847020 0.663230 -0.531686
O5    O     O_R   0.854980 0.348430 0.351800 -0.529176
O6    O     O_R   0.145020 0.651570 0.648200 -0.529166
C1    C     C_R   0.513592 0.130934 0.365723 0.762670
C2    C     C_R   0.486408 0.869069 0.634280 0.762597
O7    O     O_R   0.684450 0.139580 0.148000 -0.541370
O8    O     O_R   0.315550 0.860420 0.852000 -0.541369
O9    O     O_R   0.857080 0.334940 0.161680 -0.540687
O10   O     O_R   0.142920 0.665060 0.838320 -0.540679
C3    C     C_R   0.515490 0.112668 0.114046 0.719455
C4    C     C_R   0.484510 0.887332 0.885954 0.719467
O11   O     O_R   0.352790 0.165070 0.338330 -0.548899
O12   O     O_R   0.647210 0.834930 0.661670 -0.548896
O13   O     O_3   0.522170 0.314120 0.254710 -0.369058
O14   O     O_3   0.477830 0.685880 0.745290 -0.369051
V1    V     V_3+5 0.796120 0.238110 0.249130 1.435300
V2    V     V_3+5 0.203880 0.761890 0.750870 1.435286
O15   O     O_R   0.186930 0.347040 0.163240 -0.544503
O16   O     O_R   0.813070 0.652960 0.836760 -0.544501
C5    C     C_R   0.018435 0.368774 0.133568 0.670626
C6    C     C_R   0.981565 0.631226 0.866432 0.670651
O17   O     O_R   0.184850 0.360440 0.352010 -0.536237
O18   O     O_R   0.815150 0.639560 0.647990 -0.536249
C7    C     C_R   0.015877 0.387301 0.385992 0.747836
C8    C     C_R   0.984123 0.612699 0.614007 0.747826
V3    V     V_3+5 0.296410 0.261900 0.250880 1.420306
V4    V     V_3+5 0.703590 0.738100 0.749120 1.420251
O19   O     O_3   0.020490 0.185890 0.245290 -0.375215
O20   O     O_3   0.979510 0.814110 0.754710 -0.375217
C9    C     C_1   0.005201 0.466899 0.466345 -0.165767
C10   C     C_1   0.994798 0.533101 0.533654 -0.165793
C11   C     C_3   0.079759 0.589597 0.033860 -0.143074
C12   C     C_3   0.920240 0.410403 0.966140 -0.143076
C13   C     C_3   0.904344 0.541252 0.076112 -0.142595
C14   C     C_3   0.095656 0.458748 0.923887 -0.142608
H1    H     H_    0.825523 0.574925 0.139260 0.099598
H2    H     H_    0.174477 0.425075 0.860740 0.099653
H3    H     H_    0.145654 0.663871 0.061420 0.096059
H4    H     H_    0.854345 0.336129 0.938580 0.096043
C15   C     C_3   0.009491 0.438885 0.062688 -0.001478
C16   C     C_3   0.990509 0.561115 0.937312 -0.001487
C17   C     C_3   0.185121 0.486436 0.021216 -0.116747
C18   C     C_3   0.814879 0.513564 0.978784 -0.116739
H5    H     H_    0.337993 0.475083 0.039042 0.105722
H6    H     H_    0.662007 0.524917 0.960958 0.105721
C19   C     C_3   0.326493 0.004647 0.464151 0.164894
C20   C     C_3   0.673527 0.995368 0.535858 0.164651
C21   C     C_3   0.445454 0.907979 0.461516 0.509823
C22   C     C_3   0.554548 0.092040 0.538500 0.509861
C23   C     C_3   0.494242 0.939421 0.564457 -0.227549
C24   C     C_3   0.505760 0.060590 0.435554 -0.227426
C25   C     C_3   0.371473 0.037296 0.567612 -0.320021
C26   C     C_3   0.628525 0.962718 0.432395 -0.320226
H7    H     H_    0.265245 0.066793 0.621612 0.154733
H8    H     H_    0.734681 0.933176 0.378375 0.154752
C27   C     C_1   0.504890 0.033097 0.033672 -0.197473
C28   C     C_1   0.495110 0.966902 0.966328 -0.197479
O21   O     O_3   0.376864 0.810000 0.426848 -0.544004
C29   C     C_3   0.409962 0.788673 0.331178 -0.249275
H9    H     H_    0.565460 0.774695 0.316799 0.131583
H10   H     H_    0.356829 0.849935 0.294531 0.117023
H11   H     H_    0.330735 0.718514 0.303162 0.161353
O22   O     O_3   0.622889 0.190088 0.573116 -0.544027
C30   C     C_3   0.590844 0.211178 0.668885 -0.248752
H12   H     H_    0.646432 0.150262 0.705337 0.117453
H13   H     H_    0.435181 0.224077 0.683791 0.130918
H14   H     H_    0.668596 0.281905 0.696650 0.161355
N1    N     N_3   0.135770 0.007417 0.423480 -0.607887
H15   H     H_    0.150681 0.991270 0.351926 0.212893
H16   H     H_    0.085516 0.081666 0.438895 0.261520
N2    N     N_3   0.864273 0.992553 0.576496 -0.607976
H17   H     H_    0.849395 0.008485 0.648061 0.212716
H18   H     H_    0.914602 0.918332 0.560916 0.261605

loop_
_geom_bond_atom_site_label_1
_geom_bond_atom_site_label_2
_ccdc_geom_bond_type
C14   H2    S    
O13   V3    S    
C12   H4    S    
C21   O21   S    
O4    C2    A    
V1    O19   S    
C7    C9    S    
O9    V1    S    
N2    H18   S    
C11   C13   S    
O3    C1    A    
C20   N2    S    
O12   V4    S    
C19   C24   S    
C5    C15   S    
C21   C26   S    
O7    C3    A    
C14   C17   S    
C29   H10   S    
O5    C7    A    
O7    V1    S    
O6    C8    A    
O8    V2    S    
C19   C21   S    
C20   C22   S    
O3    V1    S    
O14   V4    S    
C22   C25   S    
C22   C24   S    
C17   H5    S    
O22   C30   S    
C8    C10   S    
C27   C28   T    
C2    O12   A    
O2    C4    A    
C16   C18   S    
O11   V3    S    
C18   H6    S    
C23   C25   S    
O15   C5    A    
O17   V3    S    
C24   C26   S    
C20   C23   S    
N2    H17   S    
C30   H12   S    
O8    C4    A    
N1    H16   S    
C1    O11   A    
C19   C25   S    
O15   V3    S    
C20   C26   S    
C30   H13   S    
C13   C15   S    
C14   C16   S    
C29   H9    S    
O10   V2    S    
O1    V3    S    
C9    C10   T    
C12   C18   S    
C11   C16   S    
C15   C17   S    
O5    V1    S    
O18   V4    S    
C25   H7    S    
C6    C16   S    
O16   C6    A    
O1    C3    A    
C11   C17   S    
C22   O22   S    
V2    O20   S    
C4    C28   S    
O16   V4    S    
C29   H11   S    
C2    C23   S    
C3    C27   S    
O17   C7    A    
O6    V2    S    
O10   C6    A    
O18   C8    A    
O2    V4    S    
C30   H14   S    
C12   C14   S    
N1    H15   S    
V3    O19   S    
V4    O20   S    
O9    C5    A    
O13   V1    S    
C26   H8    S    
O14   V2    S    
O21   C29   S    
C11   H3    S    
O4    V2    S    
C13   H1    S    
C19   N1    S    
C12   C15   S    
C1    C24   S    
C21   C23   S    
C13   C18   S    
