data_mof_unit_6037.cif
_audit_creation_date              2012-12-10T19:48:42-0500
_audit_creation_method            fapswitch 2.2
_symmetry_space_group_name_H-M    P1
_symmetry_Int_Tables_number       1
_space_group_crystal_system       triclinic
_cell_length_a                    13.064927
_cell_length_b                    14.227237
_cell_length_c                    14.949944
_cell_angle_alpha                 90.174589
_cell_angle_beta                  90.820294
_cell_angle_gamma                 69.80964
_cell_volume                      2607.8322403

loop_
_atom_site_label
_atom_site_type_symbol
_atom_type_description
_atom_site_fract_x
_atom_site_fract_y
_atom_site_fract_z
_atom_type_partial_charge
C1    C     C_R   0.501125 0.499914 0.672289 0.918740
C2    C     C_R   0.822465 0.408033 0.510527 -0.132597
C3    C     C_R   0.579579 0.406604 0.904063 0.478075
C4    C     C_R   0.704412 0.444311 0.500633 0.900958
C5    C     C_R   0.565192 0.408210 0.812049 -0.269358
C6    C     C_R   0.509964 0.498375 0.768270 -0.177823
C7    C     C_R   0.467729 0.587698 0.816020 -0.312504
C8    C     C_R   0.475814 0.586358 0.908652 0.498733
C9    C     C_R   0.532271 0.495434 0.952436 -0.161855
C10   C     C_R   0.574833 0.552848 0.098907 -0.114447
C11   C     C_R   0.564209 0.555873 0.190817 -0.233613
C12   C     C_R   0.988163 0.448028 0.500798 -0.091276
C13   C     C_R   0.512605 0.496350 0.232182 -0.046249
C14   C     C_R   0.472994 0.433009 0.181937 -0.220427
C15   C     C_R   0.482047 0.431219 0.090087 -0.125032
C16   C     C_R   0.502223 0.499275 0.327805 0.851259
C17   C     C_R   0.532390 0.491485 0.048784 0.190095
C18   C     C_R   0.579916 0.870416 0.543988 -0.297120
C19   C     C_R   0.578153 0.771684 0.546759 0.650005
C20   C     C_R   0.419574 0.819915 0.454642 -0.093277
C21   C     C_R   0.415686 0.920153 0.454421 -0.304493
C22   C     C_R   0.496520 0.947320 0.499792 0.165502
C23   C     C_R   0.883733 0.457347 0.466852 -0.049019
C24   C     C_R   0.460017 0.116962 0.426098 -0.468484
C25   C     C_R   0.458210 0.217067 0.427820 0.575561
C26   C     C_R   0.538855 0.191520 0.572701 0.463344
C27   C     C_R   0.528416 0.095620 0.577434 0.331498
C28   C     C_R   0.295551 0.555551 0.498050 0.897576
C29   C     C_R   0.494767 0.054375 0.501198 -0.091348
C30   C     C_R   0.039086 0.647376 0.363238 -0.272792
C31   C     C_R   0.179959 0.588252 0.476686 -0.192828
C32   C     C_R   0.869479 0.338732 0.578192 -0.408521
C33   C     C_R   0.979161 0.315134 0.602284 0.509375
C34   C     C_R   0.034741 0.519042 0.470792 0.060398
C35   C     C_R   0.039795 0.368633 0.563028 0.444698
C36   C     C_3   0.229169 0.666763 0.276083 -0.320642
C37   C     C_3   0.319013 0.690710 0.968230 -0.313552
C38   C     C_3   0.649399 0.717026 0.684925 -0.287216
C39   C     C_3   0.863572 0.579859 0.203977 -0.372454
C40   C     C_3   0.308327 0.305095 0.344945 -0.336552
C41   C     C_3   0.697563 0.176476 0.644196 -0.284910
C42   C     C_3   0.456176 0.065971 0.706352 -0.257520
C43   C     C_3   0.208919 0.248033 0.551272 -0.287162
C44   C     C_3   0.011721 0.157035 0.659595 -0.368244
C45   C     C_R   0.988728 0.581720 0.395788 -0.033710
C46   C     C_3   0.746722 0.298110 0.942550 -0.286676
C47   C     C_R   0.893892 0.577289 0.354016 0.537119
C48   C     C_R   0.840163 0.518400 0.391732 -0.234890
C49   C     C_R   0.122897 0.533158 0.515444 -0.257742
C50   C     C_R   0.138491 0.646595 0.400223 0.517418
H1    H     H_    0.614128 0.599251 0.066709 0.151186
H2    H     H_    0.274031 0.703126 0.903069 0.160188
H3    H     H_    0.283617 0.759356 0.008920 0.193755
H4    H     H_    0.596666 0.604024 0.229476 0.175679
H5    H     H_    0.432897 0.387013 0.213254 0.197399
H6    H     H_    0.447636 0.384832 0.050978 0.157697
H7    H     H_    0.647168 0.886056 0.575789 0.190749
H8    H     H_    0.701524 0.649106 0.721251 0.194090
H9    H     H_    0.564267 0.733868 0.708176 0.159155
H10   H     H_    0.678985 0.779140 0.703014 0.164073
H11   H     H_    0.818948 0.526001 0.206359 0.163525
H12   H     H_    0.357283 0.800128 0.419005 0.192049
H13   H     H_    0.830907 0.629995 0.145798 0.204113
H14   H     H_    0.951991 0.539475 0.192535 0.157873
H15   H     H_    0.349149 0.976021 0.419576 0.156379
H16   H     H_    0.280386 0.356290 0.286842 0.168856
H17   H     H_    0.267067 0.346988 0.404738 0.201266
H18   H     H_    0.282580 0.239435 0.332204 0.147850
H19   H     H_    0.734257 0.209216 0.697673 0.156029
H20   H     H_    0.733551 0.186434 0.579366 0.147886
H21   H     H_    0.720112 0.095445 0.659670 0.196343
H22   H     H_    0.393891 0.042554 0.670129 0.144863
H23   H     H_    0.434357 0.088682 0.365708 0.203941
H24   H     H_    0.422333 0.147226 0.722692 0.190511
H25   H     H_    0.475383 0.023980 0.770412 0.190573
H26   H     H_    0.004461 0.695780 0.306641 0.199362
H27   H     H_    0.152986 0.498695 0.579095 0.222203
H28   H     H_    0.819165 0.307090 0.615640 0.173772
H29   H     H_    0.184016 0.237636 0.481408 0.120017
H30   H     H_    0.203214 0.187180 0.594810 0.203107
H31   H     H_    0.295844 0.240858 0.551038 0.172992
H32   H     H_    0.023625 0.131539 0.588682 0.152554
H33   H     H_    0.930673 0.159910 0.683252 0.164588
H34   H     H_    0.265939 0.583506 0.273940 0.140174
H35   H     H_    0.074023 0.099943 0.700592 0.196948
H36   H     H_    0.763711 0.520645 0.361129 0.148629
H37   H     H_    0.769159 0.359314 0.974428 0.152787
H38   H     H_    0.775025 0.286878 0.872145 0.157986
H39   H     H_    0.790276 0.228037 0.979785 0.196842
H40   H     H_    0.292696 0.697045 0.254809 0.203605
H41   H     H_    0.160168 0.693700 0.227406 0.160099
H42   H     H_    0.599180 0.339402 0.775103 0.220581
H43   H     H_    0.425775 0.657860 0.781887 0.174025
H44   H     H_    0.306673 0.627731 0.005242 0.156842
N1    N     N_R   0.500000 0.747530 0.500020 -0.131756
N2    N     N_R   0.499940 0.252470 0.500020 -0.192598
O1    O     O_R   0.499990 0.420530 0.630930 -0.560243
O2    O     O_3   0.430727 0.674170 0.956249 -0.604269
O3    O     O_3   0.658923 0.697341 0.592286 -0.583456
O4    O     O_3   0.847088 0.638821 0.282039 -0.603641
O5    O     O_3   0.422689 0.276806 0.353120 -0.570446
O6    O     O_3   0.583568 0.225851 0.644141 -0.564518
O7    O     O_3   0.552883 0.042861 0.657011 -0.611836
O8    O     O_3   0.149006 0.343111 0.586225 -0.608370
O9    O     O_3   0.025596 0.250298 0.672692 -0.581298
O10   O     O_3   0.633686 0.317090 0.947389 -0.595805
O11   O     O_R   0.499990 0.579480 0.630940 -0.617289
O12   O     O_R   0.653620 0.381060 0.499970 -0.620361
O13   O     O_R   0.653620 0.540010 0.499980 -0.552089
O14   O     O_R   0.500010 0.420520 0.369060 -0.556396
O15   O     O_R   0.500010 0.579470 0.369070 -0.624905
O16   O     O_R   0.346380 0.459990 0.500020 -0.603414
O17   O     O_R   0.346380 0.618940 0.500030 -0.585293
O18   O     O_3   0.195598 0.702388 0.362920 -0.605505
Zn1   Zn    Zn3+2 0.500000 0.393860 0.499990 1.009972
Zn2   Zn    Zn3+2 0.500000 0.606140 0.500010 0.994353

loop_
_geom_bond_atom_site_label_1
_geom_bond_atom_site_label_2
_ccdc_geom_bond_type
C4    O13   A    
C22   C29   S    
C27   C29   A    
C30   C45   A    
C44   H33   S    
C36   O18   S    
C42   O7    S    
C16   O14   A    
C7    C8    A    
C46   H39   S    
C44   O9    S    
C28   O16   A    
C39   H14   S    
C4    O12   A    
C12   C23   A    
C26   C27   A    
O12   Zn1   S    
C44   H32   S    
C5    C6    A    
C24   H23   S    
C10   C17   A    
C43   H29   S    
C41   O6    S    
C2    C32   A    
C18   C19   A    
C8    O2    S    
C43   O8    S    
O13   Zn2   S    
C40   O5    S    
C38   H8    S    
C8    C9    A    
C40   H17   S    
N2    Zn1   S    
O15   Zn2   S    
O1    Zn1   S    
C41   H21   S    
O17   Zn2   S    
C37   H3    S    
C14   H5    S    
C30   C50   A    
C40   H16   S    
C13   C14   A    
C31   C49   A    
C39   H11   S    
C10   H1    S    
C37   O2    S    
C46   H38   S    
C45   C47   A    
C3    O10   S    
C26   N2    A    
C7    H43   S    
C42   H24   S    
C1    C6    S    
C33   O9    S    
C24   C25   A    
C35   O8    S    
C28   O17   A    
C1    O1    A    
C37   H2    S    
C19   O3    S    
C43   H30   S    
C47   O4    S    
C50   O18   S    
C2    C4    S    
C3    C9    A    
C30   H26   S    
C18   H7    S    
C47   C48   A    
N1    Zn2   S    
C42   H22   S    
C42   H25   S    
C34   C45   A    
C12   C35   A    
C11   H4    S    
C1    O11   A    
C38   H10   S    
C36   H41   S    
C9    C17   S    
C20   N1    A    
C43   H31   S    
C48   H36   S    
C31   C50   A    
C12   C34   A    
C44   H35   S    
C19   N1    A    
C41   H19   S    
C46   H37   S    
C36   H40   S    
C15   C17   A    
C34   C49   A    
C23   C48   A    
C21   H15   S    
C18   C22   A    
C28   C31   S    
C38   O3    S    
C3    C5    A    
C6    C7    A    
C39   H13   S    
C15   H6    S    
C32   C33   A    
C11   C13   A    
C25   O5    S    
C39   O4    S    
C36   H34   S    
C46   O10   S    
C27   O7    S    
C33   C35   A    
C49   H27   S    
C37   H44   S    
C20   H12   S    
O11   Zn2   S    
C5    H42   S    
C10   C11   A    
C32   H28   S    
C38   H9    S    
C24   C29   A    
C20   C21   A    
C25   N2    A    
C40   H18   S    
C13   C16   S    
C2    C23   A    
C14   C15   A    
C21   C22   A    
O14   Zn1   S    
O16   Zn1   S    
C26   O6    S    
C16   O15   A    
C41   H20   S    
