data_mof_unit_34959.cif
_audit_creation_date              2012-12-11T15:43:17-0500
_audit_creation_method            fapswitch 2.2
_symmetry_space_group_name_H-M    P1
_symmetry_Int_Tables_number       1
_space_group_crystal_system       triclinic
_cell_length_a                    19.157545
_cell_length_b                    11.005228
_cell_length_c                    18.751534
_cell_angle_alpha                 89.820602
_cell_angle_beta                  89.648417
_cell_angle_gamma                 89.934432
_cell_volume                      3953.3486801

loop_
_atom_site_label
_atom_site_type_symbol
_atom_type_description
_atom_site_fract_x
_atom_site_fract_y
_atom_site_fract_z
_atom_type_partial_charge
C1    C     C_R   0.711755 0.330825 0.138578 0.552723
C2    C     C_R   0.288504 0.329253 0.861290 0.553308
C3    C     C_R   0.211755 0.830825 0.138578 0.552723
C4    C     C_R   0.788504 0.829253 0.861290 0.553309
C5    C     C_R   0.531830 0.363715 0.921685 -0.088375
C6    C     C_R   0.510174 0.392318 0.067281 -0.084617
C7    C     C_R   0.031830 0.863715 0.921685 -0.088374
C8    C     C_R   0.010174 0.892318 0.067281 -0.084617
C9    C     C_R   0.042316 0.976561 0.953064 -0.106492
C10   C     C_R   0.029388 0.991785 0.025404 -0.112853
C11   C     C_R   0.542316 0.476561 0.953064 -0.106491
C12   C     C_R   0.529387 0.491785 0.025404 -0.112853
C13   C     C_R   0.780436 0.840113 0.938927 -0.005286
C14   C     C_R   0.225926 0.861935 0.065258 0.045324
C15   C     C_R   0.280436 0.340113 0.938927 -0.005286
C16   C     C_R   0.725926 0.361935 0.065258 0.045324
C17   C     C_R   0.720410 0.801848 0.975492 0.000573
C18   C     C_R   0.192636 0.799152 0.010591 0.002140
C19   C     C_R   0.220410 0.301848 0.975492 0.000573
C20   C     C_R   0.692635 0.299153 0.010591 0.002141
C21   C     C_R   0.710498 0.828265 0.047139 0.006199
C22   C     C_R   0.203666 0.830852 0.939957 0.005970
C23   C     C_R   0.210499 0.328265 0.047139 0.006199
C24   C     C_R   0.703665 0.330854 0.939957 0.005971
C25   C     C_R   0.826165 0.911791 0.052090 -0.149642
C26   C     C_R   0.275125 0.998878 0.977609 -0.111798
C27   C     C_R   0.326165 0.411791 0.052090 -0.149642
C28   C     C_R   0.775126 0.498877 0.977609 -0.111798
C29   C     C_R   0.835963 0.884873 0.979831 -0.156144
C30   C     C_R   0.262127 0.968950 0.048671 -0.095627
C31   C     C_R   0.335963 0.384873 0.979831 -0.156144
C32   C     C_R   0.762128 0.468949 0.048671 -0.095627
C33   C     C_3   0.645082 0.819361 0.959016 -0.240328
C34   C     C_3   0.192681 0.666974 0.994056 -0.281171
C35   C     C_3   0.145082 0.319361 0.959016 -0.240327
C36   C     C_3   0.692678 0.166975 0.994056 -0.281171
C37   C     C_3   0.633769 0.845524 0.037822 -0.238902
C38   C     C_3   0.205095 0.701427 0.916584 -0.262408
C39   C     C_3   0.133770 0.345524 0.037822 -0.238901
C40   C     C_3   0.705092 0.201428 0.916584 -0.262408
C41   C     C_R   0.760229 0.895721 0.084587 0.007777
C42   C     C_R   0.249226 0.924971 0.922925 0.050054
C43   C     C_R   0.260229 0.395721 0.084587 0.007777
C44   C     C_R   0.749226 0.424971 0.922925 0.050054
C45   C     C_R   0.529590 0.156429 0.148326 0.548728
C46   C     C_R   0.465674 0.152815 0.855167 0.537091
C47   C     C_R   0.029590 0.656429 0.148326 0.548728
C48   C     C_R   0.965674 0.652815 0.855167 0.537091
C49   C     C_R   0.477640 0.165340 0.568434 -0.009000
C50   C     C_R   0.495435 0.159858 0.420427 0.017306
C51   C     C_R   0.977640 0.665340 0.568434 -0.009000
C52   C     C_R   0.995435 0.659858 0.420427 0.017306
C53   C     C_R   0.489744 0.057756 0.533642 0.002956
C54   C     C_R   0.501052 0.055809 0.462085 0.079829
C55   C     C_R   0.989744 0.557756 0.533642 0.002956
C56   C     C_R   0.001052 0.555809 0.462085 0.079829
C57   C     C_R   0.469020 0.265298 0.452280 -0.163351
C58   C     C_R   0.462631 0.268907 0.527109 -0.162066
C59   C     C_R   0.969020 0.765298 0.452280 -0.163351
C60   C     C_R   0.962631 0.768907 0.527109 -0.162066
C61   C     C_3   0.545237 0.968933 0.548743 -0.245569
C62   C     C_3   0.560937 0.970620 0.470011 -0.226937
C63   C     C_3   0.045236 0.468933 0.548743 -0.245569
C64   C     C_3   0.060937 0.470620 0.470011 -0.226937
C65   C     C_R   0.744194 0.919479 0.579272 -0.011694
C66   C     C_R   0.244544 0.926592 0.421665 -0.021094
C67   C     C_R   0.244194 0.419479 0.579272 -0.011694
C68   C     C_R   0.744544 0.426592 0.421665 -0.021094
C69   C     C_R   0.775474 0.019143 0.547291 -0.011451
C70   C     C_R   0.187371 0.956905 0.465089 0.036831
C71   C     C_R   0.275474 0.519143 0.547291 -0.011451
C72   C     C_R   0.687371 0.456905 0.465089 0.036831
C73   C     C_R   0.773883 0.034823 0.474746 -0.040663
C74   C     C_R   0.193193 0.957131 0.537189 0.029739
C75   C     C_R   0.273883 0.534823 0.474746 -0.040663
C76   C     C_R   0.693193 0.457131 0.537189 0.029739
C77   C     C_R   0.707324 0.852335 0.461332 -0.176359
C78   C     C_R   0.316909 0.933377 0.526815 -0.154859
C79   C     C_R   0.207324 0.352335 0.461332 -0.176359
C80   C     C_R   0.816909 0.433377 0.526815 -0.154859
C81   C     C_R   0.700863 0.844027 0.536199 0.000480
C82   C     C_R   0.311476 0.924181 0.451974 -0.008464
C83   C     C_R   0.200863 0.344027 0.536199 0.000479
C84   C     C_R   0.811476 0.424181 0.451974 -0.008464
C85   C     C_3   0.847645 0.068605 0.552800 -0.036243
C86   C     C_3   0.114403 0.907476 0.470031 -0.036203
C87   C     C_3   0.347645 0.568605 0.552800 -0.036243
C88   C     C_3   0.614403 0.407476 0.470031 -0.036203
C89   C     C_R   0.742464 0.966643 0.148497 0.527728
C90   C     C_R   0.257815 0.966987 0.850949 0.539768
C91   C     C_R   0.242464 0.466643 0.148497 0.527728
C92   C     C_R   0.757815 0.466987 0.850949 0.539768
C93   C     C_3   0.844171 0.092046 0.473248 -0.236360
C94   C     C_3   0.123448 0.902887 0.550876 -0.247705
C95   C     C_3   0.344171 0.592046 0.473248 -0.236360
C96   C     C_3   0.623448 0.402887 0.550876 -0.247705
C97   C     C_R   0.746722 0.945209 0.430345 -0.014498
C98   C     C_R   0.256187 0.940894 0.570209 0.016378
C99   C     C_R   0.246722 0.445209 0.430345 -0.014498
C100  C     C_R   0.756188 0.440894 0.570209 0.016378
C101  C     C_R   0.729161 0.379622 0.351656 0.580989
C102  C     C_R   0.269568 0.377639 0.647883 0.573288
C103  C     C_R   0.229161 0.879622 0.351656 0.580989
C104  C     C_R   0.769568 0.877639 0.647883 0.573288
C105  C     C_R   0.530124 0.156733 0.351719 0.540906
C106  C     C_R   0.462847 0.157260 0.643907 0.545661
C107  C     C_R   0.030124 0.656733 0.351719 0.540906
C108  C     C_R   0.962847 0.657260 0.643907 0.545660
C109  C     C_R   0.740939 0.973993 0.355337 0.548624
C110  C     C_R   0.260259 0.975073 0.644306 0.587017
C111  C     C_R   0.240939 0.473993 0.355337 0.548624
C112  C     C_R   0.760259 0.475073 0.644306 0.587017
C113  C     C_R   0.488164 0.152957 0.930304 -0.034382
C114  C     C_R   0.493159 0.168920 0.079714 -0.025635
C115  C     C_R   0.988164 0.652957 0.930304 -0.034382
C116  C     C_R   0.993159 0.668920 0.079714 -0.025634
C117  C     C_R   0.507757 0.263534 0.962467 -0.025525
C118  C     C_R   0.503599 0.274843 0.037306 -0.012190
C119  C     C_R   0.007757 0.763534 0.962467 -0.025525
C120  C     C_R   0.003599 0.774842 0.037306 -0.012190
C121  C     C_R   0.469388 0.061398 0.048152 0.070197
C122  C     C_R   0.472154 0.049221 0.974072 0.075012
C123  C     C_R   0.969388 0.561398 0.048152 0.070197
C124  C     C_R   0.972154 0.549221 0.974071 0.075012
Cr1   Cr    Cr6+3 0.772010 0.169670 0.250090 1.072851
Cr2   Cr    Cr6+3 0.227990 0.169670 0.749910 1.054054
Cr3   Cr    Cr6+3 0.272010 0.669670 0.250090 1.072851
Cr4   Cr    Cr6+3 0.727990 0.669670 0.749910 1.054053
Cr5   Cr    Cr6+3 0.615000 0.323260 0.249260 1.058653
Cr6   Cr    Cr6+3 0.385000 0.323260 0.750740 1.027310
Cr7   Cr    Cr6+3 0.115000 0.823260 0.249260 1.058653
Cr8   Cr    Cr6+3 0.885000 0.823260 0.750740 1.027310
Cr9   Cr    Cr6+3 0.616710 0.010760 0.250840 1.044094
Cr10  Cr    Cr6+3 0.383290 0.010760 0.749160 1.060676
Cr11  Cr    Cr6+3 0.116710 0.510760 0.250840 1.044094
Cr12  Cr    Cr6+3 0.883290 0.510760 0.749160 1.060676
H1    H     H_    0.459569 0.345886 0.420729 0.155248
H2    H     H_    0.449924 0.352100 0.552998 0.160818
H3    H     H_    0.959569 0.845886 0.420729 0.155248
H4    H     H_    0.949924 0.852100 0.552998 0.160818
H5    H     H_    0.021710 0.382405 0.567184 0.228603
H6    H     H_    0.110575 0.517731 0.456985 0.131377
H7    H     H_    0.521710 0.882405 0.567184 0.228603
H8    H     H_    0.610575 0.017731 0.456985 0.131377
H9    H     H_    0.587668 0.007041 0.582166 0.155805
H10   H     H_    0.552753 0.881673 0.443556 0.217360
H11   H     H_    0.087668 0.507041 0.582166 0.155805
H12   H     H_    0.052753 0.381673 0.443556 0.217360
H13   H     H_    0.678063 0.792100 0.427027 0.177298
H14   H     H_    0.367955 0.935466 0.550761 0.180461
H15   H     H_    0.178063 0.292100 0.427027 0.177298
H16   H     H_    0.867955 0.435466 0.550761 0.180461
H17   H     H_    0.886454 0.999739 0.566357 0.140201
H18   H     H_    0.109835 0.816212 0.445670 0.095087
H19   H     H_    0.386454 0.499739 0.566357 0.140201
H20   H     H_    0.609835 0.316212 0.445670 0.095087
H21   H     H_    0.839401 0.188193 0.458391 0.185638
H22   H     H_    0.089304 0.963937 0.582717 0.211755
H23   H     H_    0.339401 0.688193 0.458391 0.185638
H24   H     H_    0.589304 0.463937 0.582717 0.211755
H25   H     H_    0.881929 0.038008 0.441219 0.155682
H26   H     H_    0.127252 0.808540 0.571980 0.109653
H27   H     H_    0.381929 0.538008 0.441219 0.155682
H28   H     H_    0.627252 0.308540 0.571980 0.109653
H29   H     H_    0.543959 0.355433 0.865520 0.136719
H30   H     H_    0.497728 0.409894 0.122572 0.146058
H31   H     H_    0.043959 0.855432 0.865520 0.136719
H32   H     H_    0.997728 0.909894 0.122572 0.146058
H33   H     H_    0.059201 0.052591 0.920703 0.133040
H34   H     H_    0.034664 0.080641 0.049292 0.135683
H35   H     H_    0.559201 0.552592 0.920703 0.133040
H36   H     H_    0.534664 0.580641 0.049292 0.135683
H37   H     H_    0.867739 0.957966 0.079809 0.154306
H38   H     H_    0.305687 0.079073 0.965238 0.119254
H39   H     H_    0.367739 0.457966 0.079809 0.154305
H40   H     H_    0.805689 0.579071 0.965238 0.119254
H41   H     H_    0.885075 0.908675 0.954791 0.165572
H42   H     H_    0.281746 0.027149 0.090468 0.160003
H43   H     H_    0.385074 0.408675 0.954791 0.165572
H44   H     H_    0.781747 0.527147 0.090468 0.160003
H45   H     H_    0.120117 0.233853 0.941329 0.157477
H46   H     H_    0.640602 0.125996 0.003526 0.129707
H47   H     H_    0.620117 0.733853 0.941329 0.157477
H48   H     H_    0.140605 0.625993 0.003526 0.129706
H49   H     H_    0.635598 0.899709 0.924242 0.167241
H50   H     H_    0.237460 0.618624 0.018376 0.156895
H51   H     H_    0.135598 0.399709 0.924243 0.167241
H52   H     H_    0.737457 0.118624 0.018375 0.156894
H53   H     H_    0.615892 0.939453 0.048797 0.162893
H54   H     H_    0.257119 0.672729 0.895992 0.177466
H55   H     H_    0.115891 0.439452 0.048798 0.162893
H56   H     H_    0.757116 0.172728 0.895991 0.177466
H57   H     H_    0.603178 0.773769 0.065656 0.163272
H58   H     H_    0.160316 0.678865 0.881613 0.142151
H59   H     H_    0.103178 0.273768 0.065656 0.163272
H60   H     H_    0.660313 0.178869 0.881613 0.142151
O1    O     O_R   0.787520 0.042810 0.170440 -0.520716
O2    O     O_R   0.212480 0.042810 0.829560 -0.534154
O3    O     O_R   0.287520 0.542810 0.170440 -0.520716
O4    O     O_R   0.712480 0.542810 0.829560 -0.534154
O5    O     O_R   0.556610 0.252880 0.323980 -0.500051
O6    O     O_R   0.443390 0.252880 0.676020 -0.510972
O7    O     O_R   0.056610 0.752880 0.323980 -0.500051
O8    O     O_R   0.943390 0.752880 0.676020 -0.510972
O9    O     O_R   0.545950 0.051210 0.330860 -0.512882
O10   O     O_R   0.454050 0.051210 0.669140 -0.521263
O11   O     O_R   0.045950 0.551210 0.330860 -0.512882
O12   O     O_R   0.954050 0.551210 0.669140 -0.521263
O13   O     O_R   0.681390 0.959480 0.325510 -0.505181
O14   O     O_R   0.318610 0.959480 0.674490 -0.495412
O15   O     O_R   0.181390 0.459480 0.325510 -0.505181
O16   O     O_R   0.818610 0.459480 0.674490 -0.495412
O17   O     O_3   0.667900 0.167900 0.250060 -0.297421
O18   O     O_3   0.332100 0.167900 0.749940 -0.298916
O19   O     O_3   0.167900 0.667900 0.250060 -0.297421
O20   O     O_3   0.832100 0.667900 0.749940 -0.298916
O21   O     O_R   0.765640 0.292100 0.175020 -0.461062
O22   O     O_R   0.234360 0.292100 0.824980 -0.490202
O23   O     O_R   0.265640 0.792100 0.175020 -0.461062
O24   O     O_R   0.734360 0.792100 0.824980 -0.490202
O25   O     O_R   0.670190 0.408840 0.168540 -0.508442
O26   O     O_R   0.329810 0.408840 0.831460 -0.502949
O27   O     O_R   0.170190 0.908840 0.168540 -0.508442
O28   O     O_R   0.829810 0.908840 0.831460 -0.502949
O29   O     O_R   0.556620 0.251410 0.175160 -0.530124
O30   O     O_R   0.443380 0.251410 0.824840 -0.529018
O31   O     O_R   0.056620 0.751410 0.175160 -0.530124
O32   O     O_R   0.943380 0.751410 0.824840 -0.529018
O33   O     O_R   0.545960 0.049620 0.170320 -0.483699
O34   O     O_R   0.454040 0.049620 0.829680 -0.469068
O35   O     O_R   0.045960 0.549620 0.170320 -0.483699
O36   O     O_R   0.954040 0.549620 0.829680 -0.469068
O37   O     O_R   0.681390 0.958010 0.176690 -0.497197
O38   O     O_R   0.318610 0.958010 0.823310 -0.471662
O39   O     O_R   0.181390 0.458010 0.176690 -0.497197
O40   O     O_R   0.818610 0.458010 0.823310 -0.471662
O41   O     O_R   0.787510 0.044390 0.330970 -0.508939
O42   O     O_R   0.212490 0.044390 0.669030 -0.504642
O43   O     O_R   0.287510 0.544390 0.330970 -0.508940
O44   O     O_R   0.712490 0.544390 0.669030 -0.504642
O45   O     O_R   0.765630 0.293570 0.323840 -0.475678
O46   O     O_R   0.234370 0.293570 0.676160 -0.449039
O47   O     O_R   0.265630 0.793570 0.323840 -0.475678
O48   O     O_R   0.734370 0.793570 0.676160 -0.449039
O49   O     O_R   0.670190 0.410420 0.329080 -0.474994
O50   O     O_R   0.329810 0.410420 0.670920 -0.515249
O51   O     O_R   0.170190 0.910420 0.329080 -0.474994
O52   O     O_R   0.829810 0.910420 0.670920 -0.515249
I1    I     I_    0.426897 0.917286 0.114495 -0.320780
I2    I     I_    0.457822 0.865218 0.934864 -0.358709
I3    I     I_    0.926897 0.417285 0.114494 -0.320781
I4    I     I_    0.957823 0.365218 0.934864 -0.358708
C125  C     C_2   0.646596 0.760251 0.565261 0.584235
O53   O     O_2   0.623166 0.682104 0.526776 -0.520424
O54   O     O_R   0.615804 0.777930 0.632361 -0.676715
H61   H     H_    0.578529 0.715362 0.643863 0.345339
C126  C     C_2   0.374310 0.907529 0.406769 0.572746
O55   O     O_2   0.422690 0.844950 0.427862 -0.555124
O56   O     O_R   0.377562 0.961276 0.339149 -0.671341
H62   H     H_    0.421943 0.939735 0.312333 0.361710
C127  C     C_2   0.146596 0.260251 0.565261 0.584235
O57   O     O_2   0.123166 0.182104 0.526776 -0.520424
O58   O     O_R   0.115804 0.277930 0.632361 -0.676716
H63   H     H_    0.078529 0.215362 0.643863 0.345339
C128  C     C_2   0.874310 0.407529 0.406769 0.572746
O59   O     O_2   0.922690 0.344950 0.427862 -0.555124
O60   O     O_R   0.877562 0.461276 0.339149 -0.671341
H64   H     H_    0.921943 0.439735 0.312333 0.361710
C129  C     C_2   0.854622 0.176900 0.600295 0.591360
O61   O     O_2   0.806959 0.206054 0.640412 -0.513551
O62   O     O_R   0.918835 0.236417 0.603259 -0.702313
H65   H     H_    0.920047 0.301213 0.641491 0.344174
C130  C     C_2   0.061449 0.999724 0.444068 0.619630
O63   O     O_2   0.060986 0.030300 0.381375 -0.481913
O64   O     O_R   0.013072 0.050719 0.491371 -0.701912
H66   H     H_    0.987877 0.122739 0.469721 0.373455
C131  C     C_2   0.354622 0.676900 0.600295 0.591360
O65   O     O_2   0.306959 0.706054 0.640412 -0.513551
O66   O     O_R   0.418835 0.736417 0.603259 -0.702313
H67   H     H_    0.420047 0.801213 0.641491 0.344174
C132  C     C_2   0.561449 0.499724 0.444068 0.619631
O67   O     O_2   0.560986 0.530300 0.381375 -0.481913
O68   O     O_R   0.513072 0.550719 0.491371 -0.701912
H68   H     H_    0.487877 0.622739 0.469721 0.373454

loop_
_geom_bond_atom_site_label_1
_geom_bond_atom_site_label_2
_ccdc_geom_bond_type
Cr6   O6    S    
Cr9   O37   S    
Cr11  O15   S    
C55   C56   A    
C88   C96   S    
C67   C83   A    
C127  O57   D    
Cr10  O14   S    
C116  C123  A    
C128  O60   S    
C34   H48   S    
Cr9   O13   S    
C5    C117  A    
C14   C18   A    
C37   H53   S    
O64   H66   S    
C102  O50   A    
C73   C93   S    
C108  O12   A    
C101  O49   A    
C88   C132  S    
C6    H30   S    
C96   H28   S    
Cr6   O50   S    
Cr3   O23   S    
O58   H63   S    
C12   H36   S    
Cr4   O24   S    
C22   C42   A    
C53   C54   A    
C15   C19   A    
Cr3   O19   S    
Cr12  O36   S    
C78   H14   S    
C50   C54   A    
C17   C33   S    
C95   H23   S    
Cr3   O43   S    
C112  O16   A    
C13   C29   A    
C69   C73   A    
C30   H42   S    
C5    C11   A    
Cr1   O21   S    
Cr8   O32   S    
C6    C12   A    
C125  O53   D    
C48   O32   A    
C65   C69   A    
Cr10  O10   S    
C47   O35   A    
C26   H38   S    
Cr9   O9    S    
O62   H65   S    
C22   C38   S    
C91   O39   A    
O54   H61   S    
C2    O26   A    
C97   C109  S    
C90   O38   A    
C28   C44   A    
C1    O25   A    
C126  O55   D    
C87   C131  S    
C85   C129  S    
C4    C13   S    
C34   H50   S    
C61   H9    S    
C70   C74   A    
C86   C94   S    
C24   C40   S    
Cr12  O16   S    
C114  C121  A    
C85   C93   S    
C45   C114  S    
C61   H7    S    
Cr4   O20   S    
Cr11  O19   S    
C113  C122  A    
C20   C24   A    
C52   C107  S    
C51   C108  S    
C38   H54   S    
C55   C63   S    
C78   C98   A    
C50   C105  S    
Cr1   O17   S    
O66   H67   S    
C56   C64   S    
Cr1   O45   S    
C92   O4    A    
Cr8   O20   S    
C5    H29   S    
Cr8   O28   S    
Cr7   O7    S    
C9    C10   A    
C94   H26   S    
C107  O11   A    
C44   C92   S    
C68   C72   A    
C33   H47   S    
C91   O3    A    
Cr2   O2    S    
Cr2   O22   S    
Cr1   O1    S    
C59   C60   A    
C94   H22   S    
C34   C38   S    
C129  O61   D    
C80   C100  A    
C82   C126  S    
Cr5   O17   S    
C46   O34   A    
Cr2   O18   S    
C107  O7    A    
C110  O14   A    
C45   O33   A    
C98   C110  S    
C14   C30   A    
C42   C90   S    
C109  O13   A    
C66   C103  S    
C28   C32   A    
C63   H11   S    
C72   C88   S    
C103  O47   A    
C111  O15   A    
C67   C102  S    
C25   C29   A    
C47   C116  S    
C93   H21   S    
C40   H60   S    
Cr8   O8    S    
C8    H32   S    
C75   C95   S    
C80   C84   A    
C68   C84   A    
C86   C130  S    
C7    C119  A    
C76   C100  A    
C123  C124  A    
Cr6   O26   S    
Cr3   O47   S    
C68   C101  S    
Cr5   O25   S    
C59   H3    S    
C21   C41   A    
C25   C41   A    
C127  O58   S    
C64   H6    S    
C132  O68   S    
Cr8   O52   S    
C45   O29   A    
C54   C62   S    
C51   C55   A    
C4    O24   A    
C132  O67   D    
C4    O28   A    
C27   C31   A    
C15   C31   A    
C92   O40   A    
C43   C91   S    
C49   C58   A    
C116  C120  A    
C31   H43   S    
C126  O56   S    
C48   O36   A    
C9    H33   S    
Cr2   O46   S    
Cr11  O11   S    
C73   C97   A    
Cr4   O4    S    
Cr7   O19   S    
C123  I3    S    
C35   H45   S    
C52   C59   A    
C95   H27   S    
C122  I2    S    
C47   O31   A    
C39   H55   S    
C78   C82   A    
C105  O5    A    
C40   H56   S    
C36   C40   S    
C16   C20   A    
C99   C111  S    
C75   C99   A    
C130  O63   D    
C63   H5    S    
C57   H1    S    
C72   C76   A    
C108  O8    A    
Cr7   O31   S    
C85   H17   S    
C70   C86   S    
C113  C117  A    
C77   C97   A    
C2    C15   S    
C18   C34   S    
Cr10  O38   S    
C121  C122  A    
C114  C118  A    
C3    C14   S    
Cr7   O51   S    
C60   H4    S    
C48   C115  S    
C102  O46   A    
C35   H51   S    
C101  O45   A    
C96   H24   S    
C112  O44   A    
C93   H25   S    
C100  C112  S    
C115  C119  A    
C131  O66   S    
C62   H10   S    
C24   C44   A    
C33   H49   S    
C71   C87   S    
C83   C127  S    
C36   H46   S    
C32   H44   S    
C77   H13   S    
O56   H62   S    
Cr2   O42   S    
C88   H20   S    
C11   H35   S    
O68   H68   S    
Cr1   O41   S    
C8    C120  A    
Cr4   O48   S    
Cr12  O12   S    
C128  O59   D    
C79   H15   S    
C79   C99   A    
C89   O1    A    
C7    C9    A    
C36   H52   S    
C7    H31   S    
C87   C95   S    
C3    O27   A    
C115  C124  A    
C74   C98   A    
C46   C113  S    
C111  O43   A    
C41   C89   S    
C18   C22   A    
C50   C57   A    
C89   O37   A    
C69   C85   S    
C8    C10   A    
C28   H40   S    
C71   C75   A    
Cr11  O39   S    
C62   H8    S    
C63   C64   S    
Cr3   O3    S    
C106  O10   A    
Cr7   O27   S    
C119  C120  A    
C110  O42   A    
C105  O9    A    
C49   C106  S    
C90   O2    A    
C87   H19   S    
C109  O41   A    
C16   C32   A    
C104  O52   A    
C10   H34   S    
C121  I1    S    
Cr10  O18   S    
C38   H58   S    
C33   C37   S    
O60   H64   S    
Cr9   O17   S    
C46   O30   A    
C129  O62   S    
C86   H18   S    
Cr5   O5    S    
C124  I4    S    
Cr4   O44   S    
C19   C35   S    
C117  C118  A    
C76   C96   S    
C29   H41   S    
C79   C83   A    
Cr11  O35   S    
C58   H2    S    
C57   C58   A    
C66   C70   A    
C39   H59   S    
C23   C39   S    
C52   C56   A    
Cr12  O40   S    
C104  O48   A    
C130  O64   S    
C103  O51   A    
C84   C128  S    
Cr6   O18   S    
C67   C71   A    
C53   C61   S    
Cr10  O34   S    
C26   C42   A    
C27   H39   S    
C61   C62   S    
Cr9   O33   S    
C49   C53   A    
C27   C43   A    
C13   C17   A    
C20   C36   S    
C25   H37   S    
C19   C23   A    
Cr5   O49   S    
C35   C39   S    
C21   C37   S    
C106  O6    A    
Cr6   O30   S    
C3    O23   A    
C77   C81   A    
C125  O54   S    
Cr5   O29   S    
C74   C94   S    
C2    O22   A    
C23   C43   A    
C65   C81   A    
C1    C16   S    
C1    O21   A    
C51   C60   A    
C65   C104  S    
C81   C125  S    
C80   H16   S    
C131  O65   D    
C6    C118  A    
C64   H12   S    
C66   C82   A    
C11   C12   A    
C37   H57   S    
Cr12  O20   S    
C26   C30   A    
C17   C21   A    
