data_mof_unit_48158.cif
_audit_creation_date              2012-12-10T17:43:52-0500
_audit_creation_method            fapswitch 2.2
_symmetry_space_group_name_H-M    P1
_symmetry_Int_Tables_number       1
_space_group_crystal_system       triclinic
_cell_length_a                    15.86551
_cell_length_b                    15.081023
_cell_length_c                    13.708128
_cell_angle_alpha                 90.394702
_cell_angle_beta                  90.648367
_cell_angle_gamma                 90.028007
_cell_volume                      3279.6296814

loop_
_atom_site_label
_atom_site_type_symbol
_atom_type_description
_atom_site_fract_x
_atom_site_fract_y
_atom_site_fract_z
_atom_type_partial_charge
C1    C     C_R   0.500327 0.328503 0.499814 0.810339
C2    C     C_R   0.500519 0.671498 0.500306 0.812829
C3    C     C_R   0.502301 0.768306 0.500920 -0.094401
C4    C     C_R   0.501669 0.231700 0.499809 -0.088635
C5    C     C_R   0.510062 0.814079 0.412931 -0.205010
C6    C     C_R   0.495476 0.186002 0.588109 -0.219231
C7    C     C_R   0.511865 0.906309 0.412537 0.065806
C8    C     C_R   0.496480 0.093736 0.588972 0.074652
C9    C     C_R   0.504630 0.953529 0.501187 -0.000756
C10   C     C_R   0.504514 0.046499 0.500455 -0.000615
C11   C     C_R   0.497507 0.907765 0.590433 0.019741
C12   C     C_R   0.512899 0.092247 0.411359 0.018032
C13   C     C_R   0.521471 0.951785 0.324765 -0.306475
C14   C     C_R   0.490336 0.048263 0.677229 -0.314801
C15   C     C_R   0.524855 0.044512 0.323910 0.451065
C16   C     C_R   0.490476 0.955514 0.678706 0.426550
C17   C     C_R   0.555470 0.447213 0.793308 -0.089076
C18   C     C_R   0.442675 0.550550 0.206398 -0.084119
C19   C     C_R   0.444163 0.552299 0.793065 0.748508
C20   C     C_R   0.556001 0.447683 0.206908 0.754050
C21   C     C_R   0.442058 0.552187 0.895977 -0.138075
C22   C     C_R   0.556764 0.445782 0.103797 -0.147298
C23   C     C_R   0.339782 0.500823 0.499509 0.829003
C24   C     C_R   0.660246 0.499813 0.500609 0.825774
C25   C     C_R   0.498991 0.498325 0.948067 -0.017278
C26   C     C_R   0.498764 0.498453 0.051697 -0.026116
C27   C     C_R   0.556318 0.444683 0.896468 -0.092700
C28   C     C_R   0.440375 0.551006 0.103204 -0.068168
C29   C     C_R   0.383883 0.603899 0.947607 -0.274900
C30   C     C_R   0.613714 0.392287 0.051850 -0.227680
C31   C     C_R   0.380787 0.601537 0.050298 0.442413
C32   C     C_R   0.612640 0.389845 0.949171 0.460646
C33   C     C_3   0.973600 0.419005 0.487398 -0.379403
C34   C     C_3   0.026926 0.589461 0.520851 -0.496992
C35   C     C_3   0.025641 0.476333 0.416760 0.386624
C36   C     C_3   0.973513 0.531801 0.590927 0.384145
C37   C     C_1   0.250271 0.503508 0.498598 -0.162875
C38   C     C_1   0.749840 0.499829 0.502464 -0.147354
C39   C     C_3   0.030851 0.451420 0.572577 0.444704
C40   C     C_3   0.969570 0.557491 0.435375 0.407010
C41   C     C_3   0.083353 0.506721 0.501535 -0.062495
C42   C     C_3   0.916887 0.501162 0.505586 -0.035057
C43   C     C_1   0.174860 0.505669 0.499043 0.049076
C44   C     C_1   0.825314 0.500149 0.504490 0.083926
C45   C     C_R   0.496889 0.815102 0.589346 -0.198652
C46   C     C_R   0.510263 0.184846 0.411918 -0.210802
Cu1   Cu    Cu3+1 0.500010 0.499990 0.597420 0.994375
Cu2   Cu    Cu3+1 0.499990 0.500010 0.402580 0.999582
H1    H     H_    0.339141 0.645162 0.908581 0.197439
H2    H     H_    0.659129 0.351676 0.090622 0.191092
H3    H     H_    0.951203 0.350035 0.475166 0.173375
H4    H     H_    0.051587 0.657422 0.533682 0.160643
H5    H     H_    0.491114 0.779198 0.657148 0.210317
H6    H     H_    0.515417 0.220731 0.344056 0.209779
H7    H     H_    0.515220 0.777998 0.344550 0.161082
H8    H     H_    0.489440 0.222128 0.656367 0.147016
H9    H     H_    0.527564 0.915530 0.256632 0.157211
H10   H     H_    0.485798 0.084699 0.745319 0.150320
H11   H     H_    0.598953 0.407050 0.751889 0.182731
H12   H     H_    0.398686 0.590496 0.247429 0.190655
N1    N     N_R   0.499960 0.499930 0.743810 -0.232559
N2    N     N_R   0.500040 0.500070 0.256190 -0.236101
O1    O     O_R   0.500020 0.370250 0.582280 -0.607341
O2    O     O_R   0.499980 0.629750 0.417720 -0.600540
O3    O     O_R   0.500010 0.370270 0.417740 -0.545121
O4    O     O_R   0.499990 0.629730 0.582260 -0.542250
O5    O     O_R   0.379080 0.499980 0.582260 -0.525827
O6    O     O_R   0.620920 0.500020 0.417740 -0.517564
O7    O     O_R   0.379070 0.500000 0.417710 -0.592433
O8    O     O_R   0.620930 0.500000 0.582290 -0.589363
O9    O     O_3   0.059514 0.448454 0.326848 -0.607333
C47   C     C_3   0.993707 0.424695 0.261705 0.065876
H13   H     H_    0.957838 0.484664 0.239410 0.174631
H14   H     H_    0.949860 0.376072 0.295025 0.145273
C48   C     C_3   0.031603 0.381907 0.170815 -0.348694
H15   H     H_    0.079304 0.427014 0.139180 0.220831
H16   H     H_    0.063736 0.319204 0.191527 0.229879
C49   C     C_3   0.963950 0.361771 0.093749 -0.896194
H17   H     H_    0.916080 0.315655 0.123244 0.259950
H18   H     H_    0.993453 0.330249 0.029149 0.259617
H19   H     H_    0.932488 0.423978 0.070207 0.262512
O10   O     O_3   0.939214 0.552351 0.683050 -0.599655
C50   C     C_3   0.971078 0.634076 0.717563 0.040226
H20   H     H_    0.948587 0.688832 0.669761 0.159022
H21   H     H_    0.041307 0.633348 0.719986 0.128271
C51   C     C_3   0.939117 0.650432 0.820812 -0.306937
H22   H     H_    0.869056 0.651842 0.819648 0.235415
H23   H     H_    0.960067 0.595422 0.868904 0.216906
C52   C     C_3   0.972166 0.738084 0.862358 -0.934990
H24   H     H_    0.042106 0.736964 0.867294 0.259759
H25   H     H_    0.946658 0.748715 0.936603 0.259674
H26   H     H_    0.951842 0.794098 0.815460 0.260059
O11   O     O_3   0.320861 0.651323 0.098528 -0.630709
C53   C     C_3   0.241368 0.609284 0.088551 0.031928
H27   H     H_    0.233818 0.560933 0.148769 0.161614
H28   H     H_    0.232959 0.573004 0.017821 0.143154
C54   C     C_3   0.171982 0.679164 0.094852 -0.314059
H29   H     H_    0.172970 0.710135 0.168652 0.223182
H30   H     H_    0.183474 0.731640 0.040050 0.227249
C55   C     C_3   0.085426 0.638424 0.074862 -0.964459
H31   H     H_    0.082914 0.608076 0.000814 0.263274
H32   H     H_    0.036533 0.690850 0.078973 0.256640
H33   H     H_    0.071680 0.586869 0.129762 0.259076
O12   O     O_3   0.670529 0.337139 0.901220 -0.610481
C56   C     C_3   0.631681 0.257019 0.869975 0.040375
H34   H     H_    0.654401 0.241760 0.795338 0.168388
H35   H     H_    0.561370 0.260291 0.864516 0.118092
C57   C     C_3   0.657984 0.181618 0.937711 -0.365433
H36   H     H_    0.727862 0.176402 0.939322 0.231955
H37   H     H_    0.636031 0.196638 0.012603 0.217499
C58   C     C_3   0.620623 0.093116 0.904136 -0.878424
H38   H     H_    0.550817 0.094938 0.908941 0.256615
H39   H     H_    0.644534 0.039203 0.951695 0.251117
H40   H     H_    0.639082 0.078153 0.827849 0.267644
O13   O     O_3   0.929755 0.610925 0.364471 -0.614540
C59   C     C_3   0.989225 0.664480 0.316526 0.065657
H41   H     H_    0.973980 0.661386 0.237478 0.163440
H42   H     H_    0.055900 0.641820 0.325157 0.157068
C60   C     C_3   0.980382 0.760889 0.350276 -0.335899
H43   H     H_    0.915332 0.784333 0.334066 0.228369
H44   H     H_    0.991173 0.765779 0.430262 0.214647
C61   C     C_3   0.043200 0.820809 0.298962 -0.925065
H45   H     H_    0.108780 0.799981 0.316399 0.256877
H46   H     H_    0.034623 0.890334 0.324085 0.261248
H47   H     H_    0.032918 0.817964 0.218706 0.257886
O14   O     O_3   0.065644 0.392823 0.642258 -0.593332
C62   C     C_3   0.103198 0.441018 0.720196 0.084724
H48   H     H_    0.054163 0.457831 0.774572 0.180139
H49   H     H_    0.134143 0.503319 0.695840 0.131079
C63   C     C_3   0.170462 0.383667 0.769368 -0.316858
H50   H     H_    0.141125 0.321693 0.796387 0.225576
H51   H     H_    0.219269 0.365605 0.715164 0.228998
C64   C     C_3   0.212510 0.432631 0.854834 -0.945052
H52   H     H_    0.243125 0.494402 0.829273 0.276336
H53   H     H_    0.261486 0.389710 0.888547 0.259583
H54   H     H_    0.165099 0.449617 0.910986 0.247804
O15   O     O_3   0.535941 0.088415 0.236612 -0.612764
C65   C     C_3   0.621039 0.081052 0.207144 0.015462
H55   H     H_    0.621135 0.075495 0.126482 0.176639
H56   H     H_    0.654004 0.020629 0.234728 0.133870
C66   C     C_3   0.670366 0.164223 0.237754 -0.328809
H57   H     H_    0.638623 0.223677 0.207238 0.254222
H58   H     H_    0.671383 0.170163 0.318566 0.225387
C67   C     C_3   0.761072 0.161006 0.202066 -0.915408
H59   H     H_    0.794706 0.103493 0.234387 0.256830
H60   H     H_    0.794401 0.222759 0.224488 0.264461
H61   H     H_    0.762470 0.155427 0.121347 0.250605
O16   O     O_3   0.491073 0.911870 0.767108 -0.611716
C68   C     C_3   0.408074 0.908533 0.802804 0.035343
H62   H     H_    0.365650 0.873335 0.749888 0.152572
H63   H     H_    0.383439 0.976626 0.816553 0.140251
C69   C     C_3   0.408740 0.857899 0.898954 -0.287639
H64   H     H_    0.434212 0.790136 0.886631 0.236903
H65   H     H_    0.450506 0.892715 0.952465 0.224317
C70   C     C_3   0.320445 0.850795 0.941144 -0.924660
H66   H     H_    0.293509 0.917840 0.953578 0.254839
H67   H     H_    0.323756 0.815842 0.012046 0.288037
H68   H     H_    0.278461 0.812781 0.890705 0.254064
F1    F     F_    0.390500 0.605059 0.742098 -0.685112
F2    F     F_    0.610712 0.396281 0.258027 -0.687157

loop_
_geom_bond_atom_site_label_1
_geom_bond_atom_site_label_2
_ccdc_geom_bond_type
O14   C62   S    
C70   H67   S    
C23   O7    A    
C36   C42   S    
C58   H38   S    
Cu2   O7    S    
C54   H29   S    
C24   O8    A    
C39   C41   S    
C29   H1    S    
C57   H36   S    
C56   H35   S    
C33   C39   S    
C34   C40   S    
C33   C42   S    
C19   C21   A    
C2    C3    S    
C66   H58   S    
Cu1   O1    S    
C51   H23   S    
Cu2   O2    S    
C40   O13   S    
C13   H9    S    
O13   C59   S    
C59   H41   S    
C23   O5    A    
C17   N1    A    
C50   H20   S    
C36   O10   S    
C64   H54   S    
C1    O3    A    
C32   O12   S    
Cu2   O3    S    
C52   H25   S    
C9    C10   A    
Cu1   O4    S    
C40   C42   S    
C30   H2    S    
C35   O9    S    
C39   O14   S    
C70   H68   S    
C41   C43   S    
C34   C41   S    
C42   C44   S    
C67   H61   S    
C1    O1    A    
Cu1   O5    S    
O12   C56   S    
C54   H30   S    
C2    O2    A    
C60   H44   S    
C14   H10   S    
C56   C57   S    
C28   C31   A    
C17   C27   A    
C18   C28   A    
O16   C68   S    
C67   H60   S    
C59   H42   S    
C68   C69   S    
C6    H8    S    
C5    C7    A    
C49   H17   S    
C18   N2    A    
C4    C46   A    
C53   C54   S    
C3    C5    A    
C25   C26   A    
C23   C37   S    
C21   C29   A    
C3    C45   A    
C55   H33   S    
C12   C46   A    
C37   C43   T    
C63   H51   S    
C48   H15   S    
C62   H49   S    
Cu1   O8    S    
C38   C44   T    
C9    C11   A    
C11   C16   A    
Cu2   N2    S    
Cu1   Cu2   S    
C69   C70   S    
C46   H6    S    
C55   H32   S    
C49   H18   S    
C58   H39   S    
O11   C53   S    
Cu2   O6    S    
C52   H26   S    
C53   H28   S    
C48   H16   S    
C10   C12   A    
C24   C38   S    
C17   H11   S    
C47   H14   S    
C50   H21   S    
C69   H65   S    
C12   C15   A    
C13   C15   A    
C22   C26   A    
C64   H52   S    
C14   C16   A    
C66   C67   S    
C4    C6    A    
C33   H3    S    
C61   H46   S    
C62   H48   S    
C65   C66   S    
C54   C55   S    
O15   C65   S    
C60   C61   S    
C18   H12   S    
C7    C9    A    
C21   C25   A    
C8    C14   A    
C22   C30   A    
C27   C32   A    
C51   H22   S    
C34   H4    S    
C5    H7    S    
C36   C39   S    
C20   C22   A    
C47   H13   S    
C2    O4    A    
C51   C52   S    
Cu1   N1    S    
C6    C8    A    
C60   H43   S    
C57   C58   S    
C65   H56   S    
C25   C27   A    
C56   H34   S    
C26   C28   A    
C59   C60   S    
C16   O16   S    
C1    C4    S    
C19   F1    S    
C61   H47   S    
C68   H63   S    
C35   C40   S    
C52   H24   S    
C62   C63   S    
O9    C47   S    
C29   C31   A    
C31   O11   S    
C68   H62   S    
C30   C32   A    
C49   H19   S    
C47   C48   S    
C19   N1    A    
C55   H31   S    
C33   C35   S    
C57   H37   S    
C63   H50   S    
C58   H40   S    
C34   C36   S    
C20   N2    A    
C53   H27   S    
C35   C41   S    
C48   C49   S    
C11   C45   A    
C65   H55   S    
C24   O6    A    
C45   H5    S    
C63   C64   S    
C67   H59   S    
C7    C13   A    
C50   C51   S    
C69   H64   S    
C8    C10   A    
O10   C50   S    
C20   F2    S    
C70   H66   S    
C64   H53   S    
C61   H45   S    
C66   H57   S    
C15   O15   S    
