data_mof_unit_64851.cif
_audit_creation_date              2012-12-10T18:15:19-0500
_audit_creation_method            fapswitch 2.2
_symmetry_space_group_name_H-M    P1
_symmetry_Int_Tables_number       1
_space_group_crystal_system       triclinic
_cell_length_a                    22.565709
_cell_length_b                    22.488267
_cell_length_c                    14.680969
_cell_angle_alpha                 89.987574
_cell_angle_beta                  90.034698
_cell_angle_gamma                 90.001388
_cell_volume                      7450.05714387

loop_
_atom_site_label
_atom_site_type_symbol
_atom_type_description
_atom_site_fract_x
_atom_site_fract_y
_atom_site_fract_z
_atom_type_partial_charge
C1    C     C_R   0.079920 0.419830 0.500032 0.814072
C2    C     C_R   0.079918 0.580173 0.500002 0.813725
C3    C     C_R   0.579929 0.919837 0.500034 0.814535
C4    C     C_R   0.579921 0.080171 0.500024 0.814850
C5    C     C_1   0.161156 0.663410 0.499432 0.117286
C6    C     C_1   0.161167 0.336603 0.500675 0.117101
C7    C     C_1   0.660985 0.163582 0.500621 0.066135
C8    C     C_1   0.661250 0.836685 0.500740 0.117469
C9    C     C_1   0.836147 0.339343 0.500463 0.152071
C10   C     C_1   0.836316 0.660818 0.500355 0.161750
C11   C     C_1   0.336238 0.839261 0.499649 0.161973
C12   C     C_1   0.336255 0.160755 0.500254 0.161058
C13   C     C_1   0.874647 0.376045 0.500045 -0.101978
C14   C     C_1   0.874732 0.624033 0.500002 -0.102422
C15   C     C_1   0.374689 0.876012 0.499920 -0.101673
C16   C     C_1   0.374701 0.123999 0.499986 -0.104283
C17   C     C_3   0.963456 0.559155 0.055752 0.299157
C18   C     C_3   0.960830 0.558061 0.944958 0.270849
C19   C     C_3   0.964906 0.439963 0.944148 0.292985
C20   C     C_3   0.962259 0.440991 0.054938 0.275618
C21   C     C_3   0.469251 0.062403 0.055772 0.295768
C22   C     C_3   0.466535 0.061566 0.944977 0.273987
C23   C     C_3   0.459354 0.943615 0.944164 0.298396
C24   C     C_3   0.456807 0.944896 0.054952 0.272450
C25   C     C_3   0.995104 0.499821 0.092174 0.044394
C26   C     C_3   0.995102 0.500057 0.907799 0.040257
C27   C     C_3   0.495106 0.000307 0.092184 0.040557
C28   C     C_3   0.495128 0.000542 0.907809 0.043261
C29   C     C_3   0.059617 0.501746 0.947235 -0.461849
C30   C     C_3   0.059641 0.499719 0.052863 -0.462475
C31   C     C_3   0.559509 0.996041 0.947245 -0.462239
C32   C     C_3   0.559339 0.994016 0.052872 -0.461977
C33   C     C_1   0.998509 0.500024 0.804658 0.155201
C34   C     C_1   0.998509 0.499938 0.195334 0.152515
C35   C     C_1   0.498517 0.000182 0.804661 0.151123
C36   C     C_1   0.498509 0.000096 0.195337 0.156124
C37   C     C_R   0.919955 0.419943 0.499992 0.825682
C38   C     C_R   0.919965 0.580064 0.499980 0.825093
C39   C     C_R   0.419957 0.919944 0.499988 0.826435
C40   C     C_R   0.419962 0.080060 0.499979 0.822874
C41   C     C_3   0.810697 0.237967 0.555607 -0.129212
C42   C     C_3   0.777460 0.272261 0.400780 -0.189352
C43   C     C_3   0.781290 0.731372 0.401750 -0.197687
C44   C     C_3   0.809570 0.760653 0.560853 -0.123865
C45   C     C_3   0.284353 0.765678 0.596954 -0.197726
C46   C     C_3   0.307447 0.741399 0.433990 -0.123560
C47   C     C_3   0.284661 0.234757 0.403235 -0.197706
C48   C     C_3   0.307267 0.258335 0.566644 -0.123669
C49   C     C_3   0.255199 0.695314 0.421665 0.302846
C50   C     C_3   0.238588 0.711973 0.596721 0.308359
C51   C     C_3   0.254981 0.304367 0.578968 0.304225
C52   C     C_3   0.238894 0.288460 0.403602 0.308151
C53   C     C_3   0.732782 0.217668 0.400276 0.330837
C54   C     C_3   0.758614 0.192053 0.569915 0.312437
C55   C     C_3   0.757728 0.807128 0.573678 0.303203
C56   C     C_3   0.735526 0.785079 0.401473 0.308242
C57   C     C_1   0.124055 0.625268 0.499904 -0.125559
C58   C     C_1   0.124061 0.374741 0.500197 -0.125293
C59   C     C_1   0.623986 0.125335 0.500178 -0.133917
C60   C     C_1   0.624108 0.874786 0.500214 -0.125689
C61   C     C_3   0.788808 0.294534 0.501409 0.012827
C62   C     C_3   0.789074 0.705740 0.501157 0.023366
C63   C     C_3   0.288963 0.794373 0.499063 0.022933
C64   C     C_3   0.288979 0.205642 0.500872 0.023759
C65   C     C_3   0.206647 0.710200 0.498508 0.092140
C66   C     C_3   0.206659 0.289812 0.501545 0.091861
C67   C     C_3   0.706340 0.210560 0.501346 0.088312
C68   C     C_3   0.706779 0.789932 0.501697 0.091954
C69   C     C_3   0.176247 0.773594 0.476410 0.154079
C70   C     C_3   0.176196 0.226323 0.522733 0.153611
C71   C     C_3   0.677627 0.272967 0.533332 0.145207
C72   C     C_3   0.677198 0.727329 0.530608 0.154483
C73   C     C_3   0.729773 0.320696 0.543821 0.464779
C74   C     C_3   0.728756 0.678383 0.537595 0.418728
C75   C     C_3   0.227580 0.822761 0.469174 0.418040
C76   C     C_3   0.227507 0.177127 0.529929 0.418611
Cu1   Cu    Cu3+1 0.999990 0.500000 0.589920 1.024709
Cu2   Cu    Cu3+1 0.999990 0.500000 0.410080 1.013027
Cu3   Cu    Cu3+1 0.499990 1.000000 0.589920 1.010168
Cu4   Cu    Cu3+1 0.499990 0.000000 0.410080 1.025203
H1    H     H_    0.843580 0.216283 0.509873 0.153975
H2    H     H_    0.821171 0.256597 0.374714 0.153070
H3    H     H_    0.825690 0.749062 0.382389 0.153651
H4    H     H_    0.844345 0.783249 0.519563 0.152545
H5    H     H_    0.329301 0.747459 0.611692 0.153674
H6    H     H_    0.343484 0.717591 0.470958 0.152839
H7    H     H_    0.329652 0.253042 0.389084 0.154411
H8    H     H_    0.343414 0.282303 0.530241 0.151285
H9    H     H_    0.086258 0.537075 0.080164 0.207371
H10   H     H_    0.084844 0.541002 0.923831 0.192190
H11   H     H_    0.087137 0.465054 0.919987 0.207240
H12   H     H_    0.085815 0.461094 0.076319 0.192153
H13   H     H_    0.589390 0.028649 0.080180 0.206301
H14   H     H_    0.588355 0.032703 0.923848 0.191088
H15   H     H_    0.583411 0.956882 0.919989 0.207880
H16   H     H_    0.581716 0.953058 0.076319 0.192318
N1    N     N_1   0.000150 0.500000 0.724970 -0.146577
N2    N     N_1   0.000150 0.500000 0.275030 -0.148765
N3    N     N_1   0.500150 0.000000 0.724970 -0.148890
N4    N     N_1   0.500150 0.000000 0.275030 -0.146730
O1    O     O_R   0.060270 0.439640 0.575970 -0.566235
O2    O     O_R   0.060270 0.439640 0.424030 -0.557939
O3    O     O_R   0.060270 0.560360 0.424030 -0.566435
O4    O     O_R   0.060270 0.560360 0.575970 -0.557924
O5    O     O_R   0.560270 0.939640 0.575970 -0.567267
O6    O     O_R   0.560270 0.939640 0.424030 -0.556797
O7    O     O_R   0.560270 0.060360 0.424030 -0.552372
O8    O     O_R   0.560270 0.060360 0.575970 -0.573422
O9    O     O_R   0.939710 0.439640 0.575970 -0.560143
O10   O     O_R   0.939710 0.439640 0.424030 -0.574902
O11   O     O_R   0.939710 0.560360 0.424030 -0.571611
O12   O     O_R   0.939710 0.560360 0.575970 -0.562920
O13   O     O_R   0.439710 0.939640 0.575970 -0.568225
O14   O     O_R   0.439710 0.939640 0.424030 -0.564850
O15   O     O_R   0.439710 0.060360 0.424030 -0.568402
O16   O     O_R   0.439710 0.060360 0.575970 -0.566933
N5    N     N_3   0.270616 0.655693 0.614256 -0.539836
H17   H     H_    0.312502 0.654946 0.584300 0.213436
H18   H     H_    0.279923 0.652134 0.683846 0.256283
N6    N     N_3   0.279130 0.634930 0.434011 -0.598163
H19   H     H_    0.312910 0.627677 0.386502 0.245213
H20   H     H_    0.246351 0.603289 0.420414 0.257009
N7    N     N_3   0.270974 0.344815 0.386920 -0.539512
H21   H     H_    0.312770 0.345433 0.417255 0.213695
H22   H     H_    0.280487 0.348673 0.317451 0.256857
N8    N     N_3   0.278949 0.364803 0.567443 -0.598552
H23   H     H_    0.312585 0.371853 0.615326 0.244252
H24   H     H_    0.246128 0.396384 0.581058 0.256958
N9    N     N_3   0.780962 0.132081 0.548838 -0.593345
H25   H     H_    0.817181 0.122720 0.590988 0.241958
H26   H     H_    0.748737 0.100203 0.564092 0.256963
N10   N     N_3   0.764312 0.163030 0.372129 -0.538894
H27   H     H_    0.807592 0.161443 0.396855 0.211243
H28   H     H_    0.769893 0.163280 0.301414 0.256039
N11   N     N_3   0.766890 0.840716 0.377514 -0.537871
H29   H     H_    0.809688 0.842341 0.404244 0.213583
H30   H     H_    0.773945 0.842103 0.307138 0.256756
N12   N     N_3   0.781161 0.867037 0.555198 -0.598157
H31   H     H_    0.816421 0.875717 0.599564 0.244872
H32   H     H_    0.748821 0.899098 0.568897 0.255536
N13   N     N_3   0.760868 0.320864 0.338914 -0.507786
H33   H     H_    0.768815 0.307311 0.271853 0.260949
H34   H     H_    0.715844 0.330503 0.343507 0.319986
N14   N     N_3   0.846012 0.251279 0.637565 -0.544419
H35   H     H_    0.869588 0.213058 0.655958 0.238530
H36   H     H_    0.820436 0.262408 0.693681 0.317652
N15   N     N_3   0.841615 0.744524 0.644751 -0.537258
H37   H     H_    0.864923 0.781849 0.667707 0.243065
H38   H     H_    0.813735 0.732249 0.697649 0.320831
N16   N     N_3   0.770215 0.685161 0.332994 -0.521253
H39   H     H_    0.780861 0.702289 0.268781 0.257058
H40   H     H_    0.725964 0.672874 0.330036 0.289363
N17   N     N_3   0.336767 0.760151 0.349078 -0.536945
H41   H     H_    0.359267 0.723608 0.321731 0.243084
H42   H     H_    0.307231 0.774013 0.299264 0.320777
N18   N     N_3   0.275561 0.809694 0.669733 -0.520480
H43   H     H_    0.288239 0.790608 0.731764 0.256874
H44   H     H_    0.231474 0.821828 0.676857 0.289631
N19   N     N_3   0.336333 0.239219 0.651626 -0.542039
H45   H     H_    0.358757 0.275640 0.679537 0.239881
H46   H     H_    0.306648 0.225149 0.701040 0.321239
N20   N     N_3   0.276088 0.191055 0.329935 -0.519635
H47   H     H_    0.288949 0.210410 0.268213 0.257493
H48   H     H_    0.232023 0.178951 0.322298 0.289588
Br1   Br    Br    0.222685 0.693233 0.296172 -0.488474
Br2   Br    Br    0.180631 0.714051 0.698713 -0.520385
Br3   Br    Br    0.222092 0.305911 0.704186 -0.488154
Br4   Br    Br    0.181244 0.286817 0.301072 -0.521911
Br5   Br    Br    0.669318 0.224555 0.306539 -0.506619
Br6   Br    Br    0.731885 0.185809 0.698029 -0.485087
Br7   Br    Br    0.729292 0.813126 0.701139 -0.489301
Br8   Br    Br    0.674364 0.779911 0.304164 -0.520679
Br9   Br    Br    0.742139 0.346208 0.670696 -0.400184
Br10  Br    Br    0.710320 0.399406 0.491816 -0.393369
Br11  Br    Br    0.709658 0.602202 0.477531 -0.425480
Br12  Br    Br    0.739129 0.646989 0.661944 -0.390710
Br13  Br    Br    0.210535 0.896975 0.536051 -0.419849
Br14  Br    Br    0.233974 0.857987 0.346631 -0.391605
Br15  Br    Br    0.210661 0.103200 0.462157 -0.419550
Br16  Br    Br    0.233535 0.141377 0.652171 -0.392685
N21   N     N_3   0.131846 0.788325 0.547003 -0.549479
H49   H     H_    0.101923 0.820180 0.522864 0.247104
H50   H     H_    0.150564 0.807631 0.604157 0.275452
N22   N     N_3   0.143223 0.770261 0.389751 -0.477788
H51   H     H_    0.123119 0.811161 0.375586 0.263020
H52   H     H_    0.108249 0.739990 0.395684 0.239922
N23   N     N_3   0.132006 0.211893 0.451597 -0.550204
H53   H     H_    0.150895 0.192835 0.394417 0.275328
H54   H     H_    0.102013 0.179935 0.475147 0.247256
N24   N     N_3   0.142912 0.229283 0.609127 -0.476967
H55   H     H_    0.107956 0.259578 0.603187 0.241396
H56   H     H_    0.122765 0.188323 0.622700 0.263627
N25   N     N_3   0.645623 0.266095 0.620410 -0.490970
H57   H     H_    0.610424 0.236263 0.612975 0.222885
H58   H     H_    0.626145 0.306581 0.638744 0.261848
N26   N     N_3   0.634048 0.293595 0.465380 -0.541638
H59   H     H_    0.611661 0.331088 0.489612 0.257045
H60   H     H_    0.600750 0.261582 0.458185 0.241097
N27   N     N_3   0.630594 0.710478 0.464544 -0.550347
H61   H     H_    0.647472 0.689405 0.407534 0.275268
H62   H     H_    0.601521 0.679439 0.493159 0.246807
N28   N     N_3   0.646999 0.733379 0.619272 -0.477931
H63   H     H_    0.611840 0.763472 0.613749 0.240291
H64   H     H_    0.627421 0.692987 0.637867 0.263151
N29   N     N_3   0.898758 0.559295 0.912358 -0.540986
H65   H     H_    0.870395 0.530207 0.945582 0.262261
H66   H     H_    0.896412 0.550678 0.842480 0.240659
N30   N     N_3   0.903296 0.563257 0.094512 -0.619032
H67   H     H_    0.882859 0.602386 0.072080 0.257895
H68   H     H_    0.905681 0.566917 0.165437 0.241359
N31   N     N_3   0.900236 0.438229 0.087418 -0.553909
H69   H     H_    0.871177 0.466613 0.054139 0.261036
H70   H     H_    0.897682 0.446793 0.157289 0.231504
N32   N     N_3   0.904865 0.434388 0.905272 -0.610182
H71   H     H_    0.885385 0.394766 0.927656 0.263754
H72   H     H_    0.907335 0.430793 0.834350 0.250241
N33   N     N_3   0.404864 0.068744 0.912375 -0.545488
H73   H     H_    0.373865 0.042502 0.945588 0.261788
H74   H     H_    0.401711 0.060394 0.842495 0.237947
N34   N     N_3   0.409757 0.072251 0.094529 -0.617962
H75   H     H_    0.393138 0.113162 0.072104 0.257430
H76   H     H_    0.412476 0.075661 0.165455 0.242953
N35   N     N_3   0.394802 0.948099 0.087424 -0.542249
H77   H     H_    0.368578 0.979135 0.054139 0.261249
H78   H     H_    0.393071 0.956870 0.157296 0.238448
N36   N     N_3   0.399059 0.943811 0.905280 -0.615962
H79   H     H_    0.375900 0.906238 0.927669 0.259144
H80   H     H_    0.401184 0.939987 0.834360 0.244250
N37   N     N_3   0.990162 0.386680 0.092672 -0.560870
H81   H     H_    0.983022 0.384124 0.162961 0.238828
H82   H     H_    0.035705 0.384263 0.083325 0.215611
N38   N     N_3   0.998665 0.388116 0.909493 -0.571115
H83   H     H_    0.976517 0.348721 0.926177 0.255842
H84   H     H_    0.041005 0.384509 0.936978 0.229840
N39   N     N_3   0.987399 0.613042 0.907269 -0.557232
H85   H     H_    0.980177 0.615433 0.836972 0.242800
H86   H     H_    0.032872 0.616572 0.916671 0.214774
N40   N     N_3   0.995943 0.611817 0.090460 -0.575288
H87   H     H_    0.972843 0.650656 0.073730 0.253283
H88   H     H_    0.038180 0.616462 0.063040 0.229871
N41   N     N_3   0.479401 0.888157 0.092693 -0.558337
H89   H     H_    0.472012 0.886284 0.162973 0.242317
H90   H     H_    0.524511 0.881394 0.083401 0.213829
N42   N     N_3   0.488031 0.888770 0.909522 -0.576983
H91   H     H_    0.462233 0.851677 0.926193 0.252572
H92   H     H_    0.529827 0.881124 0.937041 0.228721
N43   N     N_3   0.498216 0.113750 0.907298 -0.562034
H93   H     H_    0.491269 0.116813 0.836996 0.237075
H94   H     H_    0.543816 0.112911 0.916725 0.212390
N44   N     N_3   0.506603 0.111710 0.090492 -0.566425
H95   H     H_    0.487309 0.152587 0.073763 0.255508
H96   H     H_    0.549093 0.112285 0.063088 0.230859

loop_
_geom_bond_atom_site_label_1
_geom_bond_atom_site_label_2
_ccdc_geom_bond_type
N24   H55   S    
Cu2   O2    S    
C50   N5    S    
C43   H3    S    
C6    C58   T    
C51   Br3   S    
N15   H37   S    
C42   H2    S    
C24   C27   S    
C41   C61   S    
C76   Br15  S    
C23   N36   S    
N34   H76   S    
C55   C68   S    
C2    C57   S    
N11   H29   S    
C66   C70   S    
N29   H65   S    
C3    O5    A    
C74   Br12  S    
C4    O8    A    
C46   C49   S    
N8    H23   S    
C55   N12   S    
N28   H64   S    
C18   N29   S    
C9    C61   S    
C2    O3    A    
Cu3   N3    S    
N18   H43   S    
N15   H38   S    
C39   O13   A    
N9    H25   S    
C11   C63   S    
N5    H18   S    
C42   C53   S    
C65   C69   S    
C22   N43   S    
C12   C64   S    
C52   N7    S    
N32   H72   S    
C71   N25   S    
C40   O15   A    
C20   C25   S    
N44   H96   S    
Cu4   O6    S    
C44   N15   S    
N22   H51   S    
Cu3   O5    S    
N41   H89   S    
C20   N31   S    
C55   Br7   S    
C73   Br10  S    
C75   Br14  S    
C19   C26   S    
C9    C13   T    
N34   H75   S    
N35   H77   S    
N7    H22   S    
C47   N20   S    
C11   C15   T    
C48   C51   S    
N19   H45   S    
C28   C35   S    
N42   H92   S    
N10   H27   S    
N25   H58   S    
C21   N34   S    
C18   C26   S    
Cu2   N2    S    
N24   H56   S    
N39   H85   S    
C48   H8    S    
Cu1   N1    S    
Cu2   O11   S    
N17   H42   S    
C29   C30   S    
C19   N38   S    
C13   C37   S    
N25   H57   S    
C53   Br5   S    
C25   C34   S    
C3    C60   S    
N29   H66   S    
C32   H13   S    
C21   C27   S    
N27   H61   S    
C22   C28   S    
C21   C22   S    
C56   Br8   S    
N39   H86   S    
C30   H12   S    
C10   C62   S    
N13   H33   S    
C30   H9    S    
C35   N3    T    
C7    C59   T    
C29   H10   S    
C4    O7    A    
N6    H20   S    
N20   H48   S    
N43   H94   S    
C3    O6    A    
N42   H91   S    
C48   N19   S    
N40   H88   S    
N28   H63   S    
C23   N42   S    
C12   C16   T    
N7    H21   S    
Cu1   O1    S    
C41   N14   S    
C72   C74   S    
C10   C14   T    
N21   H50   S    
C21   N44   S    
C71   C73   S    
C8    C60   T    
C18   N39   S    
N30   H67   S    
C54   C67   S    
C69   N22   S    
C44   C62   S    
N44   H95   S    
Cu1   Cu2   S    
C45   C63   S    
N41   H90   S    
C51   C66   S    
C47   H7    S    
N21   H49   S    
Cu1   O12   S    
C45   H5    S    
C28   C31   S    
N31   H69   S    
C49   Br1   S    
N37   H81   S    
C14   C38   S    
N14   H36   S    
C26   C33   S    
C31   C32   S    
Cu4   O7    S    
Cu4   O15   S    
C2    O4    A    
C68   C72   S    
C39   O14   A    
C41   H1    S    
C42   N13   S    
N19   H46   S    
C17   C18   S    
C64   C76   S    
C24   N41   S    
C36   N4    T    
C53   N10   S    
C23   C28   S    
Cu1   O9    S    
C42   C61   S    
C15   C39   S    
C37   O10   A    
C43   N16   S    
C49   C65   S    
C70   N23   S    
C16   C40   S    
C5    C65   S    
N31   H70   S    
C22   N33   S    
Cu4   O14   S    
C8    C68   S    
N36   H80   S    
Cu3   O13   S    
C70   C76   S    
N16   H40   S    
C38   O12   A    
C1    O1    A    
C47   C64   S    
C56   N11   S    
C52   C66   S    
N6    H19   S    
C70   N24   S    
C72   N28   S    
N20   H47   S    
C24   N35   S    
C25   C30   S    
N11   H30   S    
C46   N17   S    
N40   H87   S    
N8    H24   S    
C20   N37   S    
C32   H16   S    
Cu2   O3    S    
N32   H71   S    
C51   N8    S    
C37   O9    A    
C54   N9    S    
C17   N30   S    
N26   H59   S    
C76   Br16  S    
N38   H84   S    
N43   H93   S    
N35   H78   S    
C47   C52   S    
N12   H32   S    
C5    C57   T    
C27   C36   S    
N33   H74   S    
C31   H14   S    
Cu2   O10   S    
C44   H4    S    
C46   C63   S    
N14   H35   S    
C19   N32   S    
C61   C73   S    
C19   C20   S    
N13   H34   S    
N17   H41   S    
C75   Br13  S    
C17   C25   S    
C74   Br11  S    
N37   H82   S    
N30   H68   S    
C56   C68   S    
N5    H17   S    
C52   Br4   S    
C72   N27   S    
Cu3   O16   S    
C44   C55   S    
C71   N26   S    
C40   O16   A    
C17   N40   S    
C63   C75   S    
C45   C50   S    
C31   H15   S    
C4    C59   S    
N18   H44   S    
N38   H83   S    
C34   N2    T    
N22   H52   S    
Cu3   O8    S    
C69   C75   S    
C67   C71   S    
N33   H73   S    
C73   Br9   S    
C50   Br2   S    
C53   C67   S    
C50   C65   S    
C41   C54   S    
N23   H54   S    
N26   H60   S    
C48   C64   S    
N12   H31   S    
C27   C32   S    
C23   C24   S    
C7    C67   S    
Cu3   Cu4   S    
C49   N6    S    
C43   C56   S    
C6    C66   S    
C26   C29   S    
N10   H28   S    
N36   H79   S    
C54   Br6   S    
N27   H62   S    
N16   H39   S    
C62   C74   S    
Cu1   O4    S    
N23   H53   S    
C33   N1    T    
N9    H26   S    
C38   O11   A    
C1    C58   S    
C29   H11   S    
C1    O2    A    
Cu4   N4    S    
C43   C62   S    
C69   N21   S    
C46   H6    S    
C45   N18   S    
