data_mof_unit_40481.cif
_audit_creation_date              2013-03-05T16:33:33-0500
_audit_creation_method            fapswitch 2.2
_symmetry_space_group_name_H-M    P1
_symmetry_Int_Tables_number       1
_space_group_crystal_system       triclinic
_cell_length_a                    10.82512
_cell_length_b                    10.908477
_cell_length_c                    9.540404
_cell_angle_alpha                 92.695927
_cell_angle_beta                  90.733083
_cell_angle_gamma                 91.40868
_cell_volume                      1124.88729785

loop_
_atom_site_label
_atom_site_type_symbol
_atom_site_description
_atom_site_fract_x
_atom_site_fract_y
_atom_site_fract_z
_atom_type_partial_charge
O1    O     O_R   0.500000 0.319640 0.618810 -0.541376
O2    O     O_R   0.500010 0.319680 0.381230 -0.541630
C1    C     C_R   0.497394 0.262844 0.496646 0.870065
O3    O     O_R   0.319650 0.499970 0.618810 -0.613881
O4    O     O_R   0.319660 0.500010 0.381230 -0.525195
C2    C     C_R   0.262263 0.492979 0.498747 0.903643
Cu1   Cu    Cu3+1 0.499990 0.499980 0.640670 1.041808
Cu2   Cu    Cu3+1 0.500010 0.500020 0.359330 1.080781
O5    O     O_R   0.499990 0.680320 0.618770 -0.556021
O6    O     O_R   0.500000 0.680360 0.381190 -0.601230
O7    O     O_R   0.680340 0.499990 0.618770 -0.576836
O8    O     O_R   0.680350 0.500030 0.381190 -0.559021
C3    C     C_R   0.494991 0.737682 0.502861 0.919345
C4    C     C_R   0.737423 0.491267 0.499943 0.875729
C5    C     C_R   0.064953 0.484782 0.621705 -0.077466
C6    C     C_R   0.129011 0.472024 0.496832 -0.121260
C7    C     C_R   0.063188 0.427431 0.375122 0.365504
C8    C     C_R   0.931573 0.425392 0.375638 0.237477
C9    C     C_R   0.869531 0.466507 0.499275 -0.188882
C10   C     C_R   0.938453 0.480676 0.623556 0.048642
C11   C     C_3   0.934272 0.571877 0.745040 -0.408521
C12   C     C_3   0.074789 0.576655 0.742740 0.186720
H1    H     H_    0.890834 0.658365 0.716662 0.261737
H2    H     H_    0.897896 0.529316 0.840216 0.216807
H3    H     H_    0.119431 0.540215 0.837358 0.135375
C13   C     C_R   0.544350 0.071001 0.599562 -0.093496
C14   C     C_R   0.492263 0.130406 0.490561 -0.211196
C15   C     C_R   0.425924 0.058118 0.386326 0.262483
C16   C     C_R   0.418838 0.928074 0.394929 0.237717
C17   C     C_R   0.480721 0.870758 0.506830 -0.168619
C18   C     C_R   0.535447 0.948079 0.612219 -0.100449
C19   C     C_3   0.615122 0.958620 0.744688 0.429780
C20   C     C_3   0.628169 0.097684 0.722378 0.669702
C21   C     C_R   0.600414 0.543810 0.077924 0.292411
N1    N     N_R   0.500790 0.500930 0.147930 -0.237042
C22   C     C_R   0.406490 0.445142 0.069961 0.035220
H4    H     H_    0.330385 0.401700 0.121985 0.210951
C23   C     C_R   0.406047 0.445728 0.921196 0.031216
H5    H     H_    0.329042 0.403321 0.862341 0.149238
N2    N     N_R   0.500790 0.500890 0.852020 -0.198037
C24   C     C_R   0.601706 0.540989 0.929934 0.153954
C25   C     C_3   0.654291 0.667313 0.930376 -0.356922
C26   C     C_3   0.650142 0.672445 0.088895 0.184175
H6    H     H_    0.748575 0.672175 0.888747 0.234180
H7    H     H_    0.587841 0.725293 0.879375 0.219406
H8    H     H_    0.584782 0.740711 0.133588 0.177113
O9    O     O_3   0.128837 0.387174 0.259329 -0.689171
H9    H     H_    0.074999 0.333977 0.196354 0.382956
N3    N     N_R   0.731802 0.893436 0.734597 0.073983
O10   O     O_R   0.756114 0.824447 0.623866 -0.409944
O11   O     O_R   0.816689 0.912713 0.831452 -0.244079
O12   O     O_3   0.573535 0.173167 0.826197 -0.635611
H10   H     H_    0.635915 0.186084 0.902899 0.385491
O13   O     O_3   0.746991 0.141031 0.686217 -0.683198
H11   H     H_    0.772776 0.095964 0.598959 0.345923
O14   O     O_3   0.768832 0.679969 0.149469 -0.614050
H12   H     H_    0.757304 0.700358 0.250797 0.355905
N4    N     N_R   0.862906 0.384831 0.251509 0.131202
O15   O     O_R   0.783501 0.293610 0.255811 -0.315664
O16   O     O_R   0.882846 0.435640 0.132905 -0.326964
N5    N     N_R   0.125795 0.695919 0.704410 0.165200
O17   O     O_R   0.214375 0.748545 0.780320 -0.249138
O18   O     O_R   0.084630 0.749845 0.594838 -0.268695
N6    N     N_R   0.360229 0.115569 0.277048 0.158116
O19   O     O_R   0.419164 0.151607 0.167752 -0.261390
O20   O     O_R   0.240063 0.114833 0.276637 -0.277801
N7    N     N_R   0.345301 0.855907 0.293504 0.155081
O21   O     O_R   0.264048 0.775951 0.334809 -0.285881
O22   O     O_R   0.354561 0.874018 0.160251 -0.218886
N8    N     N_R   0.546962 0.934695 0.872947 0.106268
O23   O     O_R   0.599198 0.958455 0.995167 -0.289359
O24   O     O_R   0.431037 0.899999 0.866694 -0.244390

loop_
_geom_bond_atom_site_label_1
_geom_bond_atom_site_label_2
_geom_bond_distance
_ccdc_geom_bond_type
O4    Cu2   1.966113 S    
C23   N2    1.368882 A    
Cu1   N2    2.015829 S    
C16   C17   1.429864 A    
C21   N1    1.360489 A    
C8    N4    1.436226 S    
C24   C25   1.477754 S    
C3    C17   1.462390 S    
C13   C20   1.486154 S    
C20   O12   1.403927 S    
C9    C10   1.393139 A    
Cu2   N1    2.017456 S    
Cu2   O8    1.960652 S    
C14   C15   1.416535 A    
C19   C20   1.545024 S    
C1    C14   1.442805 S    
C7    C8    1.424455 A    
C13   C18   1.353163 A    
C5    C12   1.493947 S    
O1    Cu1   1.968482 S    
C11   C12   1.521205 S    
C10   C11   1.493383 S    
C12   N5    1.464843 S    
Cu1   O7    1.966113 S    
C15   C16   1.425042 A    
C13   C14   1.373177 A    
N5    O17   1.299833 A    
C21   C24   1.411030 A    
C25   H6    1.100877 S    
N5    O18   1.302380 A    
O3    Cu1   1.960652 S    
O4    C2    1.293254 A    
C15   N6    1.431723 S    
N6    O19   1.300795 A    
C22   C23   1.419542 A    
N2    C24   1.364700 A    
C26   H8    1.113873 S    
O8    C4    1.292127 A    
O2    C1    1.289109 A    
C11   H1    1.107743 S    
C17   C18   1.397752 A    
Cu2   O6    1.968483 S    
O7    C4    1.298750 A    
C19   N3    1.466644 S    
N8    O24   1.301608 A    
C25   C26   1.512028 S    
C2    C6    1.454647 S    
N7    O21   1.301211 A    
O9    H9    0.989431 S    
C7    O9    1.381325 S    
C26   O14   1.401027 S    
Cu1   Cu2   2.684121 S    
N8    O23   1.301557 A    
C23   H5    1.081106 S    
O14   H12   0.991865 S    
C12   H3    1.112848 S    
O3    C2    1.294231 A    
N3    O10   1.301423 A    
C11   H2    1.111267 S    
N7    O22   1.300447 A    
C20   O13   1.412048 S    
Cu1   O5    1.988048 S    
C8    C9    1.424381 A    
O5    C3    1.297121 A    
O13   H11   0.993374 S    
C22   H4    1.078437 S    
C19   N8    1.467484 S    
N1    C22   1.368631 A    
O1    C1    1.293595 A    
N4    O15   1.301308 A    
C16   N7    1.437901 S    
N4    O16   1.301354 A    
C4    C9    1.461917 S    
C25   H7    1.093876 S    
C5    C6    1.389171 A    
O2    Cu2   1.988046 S    
C21   C26   1.489074 S    
C18   C19   1.519174 S    
C6    C7    1.414675 A    
O12   H10   0.992127 S    
C5    C10   1.369375 A    
N3    O11   1.301135 A    
O6    C3    1.294751 A    
N6    O20   1.300604 A    
