data_mof_unit_45024.cif
_audit_creation_date              2012-12-11T16:36:18-0500
_audit_creation_method            fapswitch 2.2
_symmetry_space_group_name_H-M    P1
_symmetry_Int_Tables_number       1
_space_group_crystal_system       triclinic
_cell_length_a                    25.822108
_cell_length_b                    7.272045
_cell_length_c                    23.480052
_cell_angle_alpha                 90.000179
_cell_angle_beta                  104.81128
_cell_angle_gamma                 90.000061
_cell_volume                      4262.57323751

loop_
_atom_site_label
_atom_site_type_symbol
_atom_type_description
_atom_site_fract_x
_atom_site_fract_y
_atom_site_fract_z
_atom_type_partial_charge
O1    O     O_R   0.438720 0.630760 0.439780 -0.542499
O2    O     O_R   0.061280 0.869240 0.060220 -0.539811
O3    O     O_R   0.561280 0.130760 0.560220 -0.542455
O4    O     O_R   0.938720 0.369240 0.939780 -0.539808
O5    O     O_R   0.546380 0.956770 0.446270 -0.549966
O6    O     O_R   0.953620 0.543230 0.053730 -0.547580
O7    O     O_R   0.453620 0.456770 0.553730 -0.549984
O8    O     O_R   0.046380 0.043230 0.946270 -0.547582
C1    C     C_R   0.560695 0.790484 0.432477 0.703112
C2    C     C_R   0.936972 0.708299 0.064951 0.711871
C3    C     C_R   0.439303 0.290484 0.567522 0.703073
C4    C     C_R   0.063029 0.208299 0.935049 0.711864
O9    O     O_R   0.438210 0.960230 0.432810 -0.535561
O10   O     O_R   0.061790 0.539770 0.067190 -0.548190
O11   O     O_R   0.561790 0.460230 0.567190 -0.535565
O12   O     O_R   0.938210 0.039770 0.932810 -0.548191
O13   O     O_R   0.452340 0.134240 0.546660 -0.504557
O14   O     O_R   0.047660 0.365760 0.953340 -0.506065
O15   O     O_R   0.547660 0.634240 0.453340 -0.504564
O16   O     O_R   0.952340 0.865760 0.046660 -0.506064
C5    C     C_R   0.419292 0.791636 0.416668 0.687415
C6    C     C_R   0.081325 0.708374 0.083253 0.700181
C7    C     C_R   0.580708 0.291637 0.583332 0.687403
C8    C     C_R   0.918674 0.208373 0.916747 0.700159
O17   O     O_3   0.504760 0.798440 0.537370 -0.371935
O18   O     O_3   0.995240 0.701560 0.962630 -0.371382
O19   O     O_3   0.495240 0.298440 0.462630 -0.371952
O20   O     O_3   0.004760 0.201560 0.037370 -0.371376
V1    V     V_3+5 0.499120 0.071860 0.493070 1.453845
V2    V     V_3+5 0.000880 0.428140 0.006930 1.441463
V3    V     V_3+5 0.500880 0.571860 0.506930 1.453777
V4    V     V_3+5 0.999120 0.928140 0.993070 1.441456
C9    C     C_R   0.720994 0.172777 0.672124 0.471636
C10   C     C_R   0.793265 0.401845 0.809794 0.484597
C11   C     C_R   0.279024 0.672629 0.327857 0.471674
C12   C     C_R   0.206726 0.901854 0.190216 0.484693
C13   C     C_R   0.674031 0.181947 0.626042 -0.220675
C14   C     C_R   0.842022 0.389066 0.853675 -0.250170
C15   C     C_R   0.325987 0.681806 0.373941 -0.220841
C16   C     C_R   0.157968 0.889075 0.146337 -0.250137
H1    H     H_    0.673138 0.115973 0.584416 0.133864
H2    H     H_    0.859353 0.513030 0.876124 0.137223
H3    H     H_    0.326895 0.615714 0.415552 0.133810
H4    H     H_    0.140632 0.013045 0.123896 0.137229
C17   C     C_R   0.629288 0.280539 0.632659 -0.090499
C18   C     C_R   0.868364 0.219488 0.868373 -0.103190
C19   C     C_R   0.370713 0.780534 0.367342 -0.090471
C20   C     C_R   0.131634 0.719490 0.131628 -0.103198
C21   C     C_R   0.630964 0.364014 0.686854 -0.186013
C22   C     C_R   0.845473 0.061910 0.837343 -0.178205
C23   C     C_R   0.369022 0.864128 0.313161 -0.185960
C24   C     C_R   0.154532 0.561904 0.162646 -0.178206
H5    H     H_    0.596372 0.437547 0.693146 0.112438
H6    H     H_    0.864277 0.928672 0.847496 0.147281
H7    H     H_    0.403602 0.937761 0.306881 0.112461
H8    H     H_    0.135734 0.428659 0.152482 0.147283
C25   C     C_R   0.676629 0.347811 0.733993 -0.142719
C26   C     C_R   0.798094 0.074130 0.792358 -0.160098
C27   C     C_R   0.323360 0.847916 0.266020 -0.142804
C28   C     C_R   0.201911 0.574122 0.207628 -0.160024
H9    H     H_    0.675853 0.407704 0.775923 0.145647
H10   H     H_    0.781792 0.950094 0.769131 0.202994
H11   H     H_    0.324128 0.907897 0.224100 0.145694
H12   H     H_    0.218221 0.450072 0.230840 0.203053
C29   C     C_R   0.722468 0.253923 0.727333 0.020408
C30   C     C_R   0.771784 0.243492 0.777377 -0.001095
C31   C     C_R   0.277535 0.753906 0.272664 0.020432
C32   C     C_R   0.228214 0.743491 0.222624 -0.000919
C33   C     C_R   0.399556 0.101226 0.636609 0.410571
C34   C     C_R   0.126884 0.383206 0.887702 0.411237
C35   C     C_R   0.600437 0.601236 0.363382 0.410575
C36   C     C_R   0.873121 0.883213 0.112304 0.411239
C37   C     C_R   0.365930 0.086226 0.674787 -0.224548
C38   C     C_R   0.161903 0.383313 0.850474 -0.193946
C39   C     C_R   0.634071 0.586235 0.325213 -0.224534
C40   C     C_R   0.838109 0.883325 0.149538 -0.193925
H13   H     H_    0.358600 0.949052 0.687088 0.177783
H14   H     H_    0.173228 0.514779 0.836067 0.162111
H15   H     H_    0.641397 0.449063 0.312905 0.177775
H16   H     H_    0.826784 0.014792 0.163945 0.162103
C41   C     C_R   0.342851 0.241368 0.694786 0.085115
C42   C     C_R   0.182656 0.218368 0.833658 0.083964
C43   C     C_R   0.657159 0.741375 0.305224 0.085100
C44   C     C_R   0.817359 0.718383 0.166359 0.083968
C45   C     C_R   0.351496 0.413303 0.670522 -0.157445
C46   C     C_R   0.160447 0.052507 0.847856 -0.164210
C47   C     C_R   0.648515 0.913307 0.329490 -0.157410
C48   C     C_R   0.839564 0.552519 0.152157 -0.164219
H17   H     H_    0.332776 0.537120 0.681136 0.149466
H18   H     H_    0.173963 0.919789 0.837126 0.129367
H19   H     H_    0.667239 0.037122 0.318881 0.149479
H20   H     H_    0.826046 0.419804 0.162890 0.129368
C49   C     C_R   0.382339 0.428818 0.629436 -0.259083
C50   C     C_R   0.119653 0.052795 0.877099 -0.254821
C51   C     C_R   0.617667 0.928821 0.370572 -0.259035
C52   C     C_R   0.880352 0.552801 0.122908 -0.254811
H21   H     H_    0.386474 0.562702 0.610968 0.173834
H22   H     H_    0.102053 0.922557 0.884005 0.182876
H23   H     H_    0.613533 0.062702 0.389042 0.173850
H24   H     H_    0.897950 0.422562 0.115999 0.182878
C53   C     C_R   0.406500 0.273781 0.611466 -0.126941
C54   C     C_R   0.102990 0.216337 0.898819 -0.133193
C55   C     C_R   0.593499 0.773785 0.388533 -0.126967
C56   C     C_R   0.897014 0.716342 0.101185 -0.133196
C57   C     C_R   0.297817 0.380236 0.769301 -0.303736
C58   C     C_R   0.238950 0.063213 0.772868 -0.291984
C59   C     C_R   0.702193 0.880236 0.230711 -0.303730
C60   C     C_R   0.761080 0.563245 0.227168 -0.291983
H25   H     H_    0.321065 0.503541 0.770124 0.162929
H26   H     H_    0.218388 0.934691 0.773708 0.159573
H27   H     H_    0.678937 0.003525 0.229880 0.162908
H28   H     H_    0.781651 0.434735 0.226337 0.159560
C61   C     C_R   0.262722 0.371393 0.806371 0.434602
C62   C     C_R   0.283222 0.059415 0.748528 0.431953
C63   C     C_R   0.737290 0.871394 0.193643 0.434588
C64   C     C_R   0.716805 0.559432 0.251501 0.431980
C65   C     C_R   0.227109 0.220459 0.802205 -0.040401
C66   C     C_R   0.307159 0.226185 0.737041 -0.034675
C67   C     C_R   0.772910 0.720477 0.197818 -0.040393
C68   C     C_R   0.692857 0.726193 0.262976 -0.034663
O21   O     O_3   0.764926 0.080097 0.663131 -0.556413
C69   C     C_3   0.795596 0.204557 0.639284 -0.224238
H29   H     H_    0.810035 0.321588 0.669806 0.147557
H30   H     H_    0.772618 0.256305 0.595481 0.135424
H31   H     H_    0.831364 0.131371 0.632861 0.169408
O22   O     O_3   0.768898 0.570975 0.794447 -0.552037
C70   C     C_3   0.755283 0.650288 0.843626 -0.322987
H32   H     H_    0.790760 0.715657 0.873662 0.145353
H33   H     H_    0.736827 0.549024 0.868202 0.128158
H34   H     H_    0.725219 0.759964 0.827660 0.172611
O23   O     O_3   0.235104 0.579788 0.336816 -0.556405
C71   C     C_3   0.204543 0.703849 0.360954 -0.224313
H35   H     H_    0.190187 0.821589 0.330700 0.147489
H36   H     H_    0.227574 0.754567 0.404872 0.135401
H37   H     H_    0.168722 0.630641 0.367225 0.169448
O24   O     O_3   0.231089 0.070989 0.205564 -0.552016
C72   C     C_3   0.244708 0.150292 0.156385 -0.323101
H38   H     H_    0.209233 0.215656 0.126345 0.145362
H39   H     H_    0.263165 0.049023 0.131812 0.128159
H40   H     H_    0.274773 0.259968 0.172351 0.172605
O25   O     O_3   0.265401 0.506433 0.848510 -0.592669
C73   C     C_3   0.310307 0.474453 0.896838 0.024195
H41   H     H_    0.318432 0.604254 0.922546 0.142132
H42   H     H_    0.347294 0.442223 0.882615 0.113768
C74   C     C_3   0.299347 0.321941 0.937436 -0.311127
H43   H     H_    0.261073 0.350463 0.948807 0.207669
H44   H     H_    0.295944 0.187125 0.914541 0.182760
C75   C     C_3   0.344198 0.309207 0.993993 -0.843137
H45   H     H_    0.382822 0.276929 0.983585 0.230691
H46   H     H_    0.334938 0.198201 0.022342 0.229740
H47   H     H_    0.348096 0.440902 0.018684 0.230043
O26   O     O_3   0.310190 0.894756 0.751215 -0.585355
C76   C     C_3   0.344553 0.874302 0.808916 0.050905
H48   H     H_    0.327829 0.765727 0.831791 0.169792
H49   H     H_    0.348577 0.999864 0.837358 0.107129
C77   C     C_3   0.400796 0.819564 0.805468 -0.338213
H50   H     H_    0.398577 0.699982 0.775507 0.193818
H51   H     H_    0.419190 0.937565 0.787908 0.193597
C78   C     C_3   0.436565 0.770576 0.865983 -0.838920
H52   H     H_    0.439635 0.888847 0.896615 0.231842
H53   H     H_    0.477331 0.735981 0.861846 0.231979
H54   H     H_    0.420276 0.649858 0.884513 0.222478
O27   O     O_3   0.734607 0.006411 0.151496 -0.592678
C79   C     C_3   0.689702 0.974393 0.103171 0.024178
H55   H     H_    0.681568 0.104186 0.077459 0.142143
H56   H     H_    0.652717 0.942137 0.117396 0.113768
C80   C     C_3   0.700671 0.821882 0.062577 -0.311111
H57   H     H_    0.738942 0.850430 0.051204 0.207667
H58   H     H_    0.704083 0.687073 0.085476 0.182757
C81   C     C_3   0.655819 0.809108 0.006021 -0.843138
H59   H     H_    0.617199 0.776803 0.016432 0.230693
H60   H     H_    0.665085 0.698103 0.977676 0.229735
H61   H     H_    0.651913 0.940796 0.981325 0.230045
O28   O     O_3   0.689838 0.394765 0.248806 -0.585350
C82   C     C_3   0.655490 0.374297 0.191098 0.050897
H62   H     H_    0.672214 0.265674 0.168241 0.169848
H63   H     H_    0.651490 0.499829 0.162646 0.107119
C83   C     C_3   0.599236 0.319644 0.194524 -0.338250
H64   H     H_    0.601433 0.200108 0.224498 0.193833
H65   H     H_    0.580843 0.437702 0.212056 0.193587
C84   C     C_3   0.563483 0.270609 0.134004 -0.838944
H66   H     H_    0.560448 0.388812 0.103354 0.231842
H67   H     H_    0.522703 0.236132 0.138122 0.231991
H68   H     H_    0.579763 0.149805 0.115509 0.222483
O29   O     O_3   0.422133 0.943425 0.619814 -0.565872
C85   C     C_3   0.461321 0.867616 0.667721 0.080523
H69   H     H_    0.473861 0.733748 0.652768 0.151364
H70   H     H_    0.444734 0.835467 0.705627 0.089429
C86   C     C_3   0.511307 0.990099 0.686868 -0.327625
H71   H     H_    0.527176 0.019657 0.648240 0.219262
H72   H     H_    0.500807 0.122519 0.704719 0.166166
C87   C     C_3   0.555025 0.896534 0.734112 -0.828458
H73   H     H_    0.540288 0.866850 0.773663 0.229297
H74   H     H_    0.590409 0.988627 0.747074 0.236901
H75   H     H_    0.567579 0.766109 0.716960 0.228126
O30   O     O_3   0.114902 0.546411 0.912171 -0.567046
C88   C     C_3   0.161453 0.620797 0.951352 0.060757
H76   H     H_    0.150823 0.758937 0.964961 0.138444
H77   H     H_    0.194511 0.642786 0.929598 0.126663
C89   C     C_3   0.180788 0.505379 0.007687 -0.334319
H78   H     H_    0.147809 0.489944 0.029583 0.204316
H79   H     H_    0.192639 0.365521 0.996936 0.168666
C90   C     C_3   0.228638 0.596540 0.050190 -0.841555
H80   H     H_    0.262535 0.609624 0.029374 0.233757
H81   H     H_    0.241853 0.512043 0.090624 0.231956
H82   H     H_    0.217554 0.735363 0.062855 0.229082
O31   O     O_3   0.577848 0.443437 0.380161 -0.565863
C91   C     C_3   0.538659 0.367691 0.332242 0.080477
H83   H     H_    0.526155 0.233708 0.347153 0.151267
H84   H     H_    0.555227 0.335782 0.294306 0.089462
C92   C     C_3   0.488648 0.490075 0.313175 -0.327489
H85   H     H_    0.472770 0.519247 0.351819 0.219375
H86   H     H_    0.499120 0.622684 0.295418 0.166141
C93   C     C_3   0.444954 0.396674 0.265865 -0.828627
H87   H     H_    0.459695 0.367417 0.226292 0.229339
H88   H     H_    0.409543 0.488670 0.252975 0.236931
H89   H     H_    0.432438 0.266032 0.282919 0.228097
O32   O     O_3   0.885102 0.046416 0.087833 -0.567043
C94   C     C_3   0.838548 0.120796 0.048654 0.060748
H90   H     H_    0.849176 0.258943 0.035046 0.138443
H91   H     H_    0.805491 0.142772 0.070409 0.126667
C95   C     C_3   0.819214 0.005383 0.992318 -0.334316
H92   H     H_    0.852194 0.989961 0.970421 0.204324
H93   H     H_    0.807366 0.865520 0.003067 0.168660
C96   C     C_3   0.771363 0.096538 0.949816 -0.841545
H94   H     H_    0.737465 0.109604 0.970632 0.233752
H95   H     H_    0.758151 0.012049 0.909380 0.231960
H96   H     H_    0.782444 0.235369 0.937154 0.229086

loop_
_geom_bond_atom_site_label_1
_geom_bond_atom_site_label_2
_ccdc_geom_bond_type
C26   H10   S    
C33   O29   S    
C6    C20   S    
C90   H80   S    
C48   C52   A    
O17   V3    S    
O22   C70   S    
C7    C17   S    
C47   H19   S    
O19   V1    S    
O13   V1    S    
O3    C7    A    
O27   C79   S    
C73   C74   S    
C75   H47   S    
C62   O26   S    
C36   C40   A    
O15   V3    S    
C10   C30   A    
C74   H43   S    
O29   C85   S    
C9    C29   A    
C79   H56   S    
C80   H58   S    
C84   H66   S    
C88   C89   S    
O1    C5    A    
C72   H39   S    
O5    C1    A    
C22   H6    S    
C39   H15   S    
C58   C62   A    
C57   C61   A    
C77   H50   S    
O10   V2    S    
C14   H2    S    
C20   C24   A    
C2    C56   S    
C44   C67   S    
O16   V4    S    
C11   C15   A    
O4    C8    A    
C51   H23   S    
C81   H59   S    
C50   H22   S    
O1    V3    S    
C96   H96   S    
C21   C25   A    
C33   C53   A    
O11   V3    S    
O2    V4    S    
C88   H77   S    
O28   C82   S    
C35   C55   A    
C24   C28   A    
C27   C31   A    
C45   C49   A    
C1    O15   A    
C3    O13   A    
C76   H48   S    
C78   H52   S    
C2    O16   A    
C71   H35   S    
C51   C55   A    
C47   C51   A    
C34   C38   A    
C78   H53   S    
C33   C37   A    
O14   V2    S    
C11   C31   A    
C76   H49   S    
C46   C50   A    
C23   H7    S    
C10   O22   S    
C35   O31   S    
C89   C90   S    
O12   C8    A    
C85   H70   S    
C9    O21   S    
C60   C67   A    
C40   C44   A    
C88   H76   S    
C38   C42   A    
C12   O24   S    
C37   C41   A    
C90   H82   S    
C26   C30   A    
C83   H64   S    
C82   C83   S    
O5    V1    S    
O31   C91   S    
C84   H67   S    
C72   H40   S    
O7    V3    S    
C74   H44   S    
C24   H8    S    
C31   C32   S    
O8    V4    S    
C87   H75   S    
C48   H20   S    
C12   C16   A    
C75   H45   S    
C82   H63   S    
C46   H18   S    
C49   C53   A    
C80   H57   S    
C45   H17   S    
C93   H87   S    
C89   H78   S    
C15   H3    S    
C36   C56   A    
C95   C96   S    
C42   C46   A    
C41   C66   S    
C9    C13   A    
C60   H28   S    
C87   H74   S    
C43   C68   S    
C86   C87   S    
O7    C3    A    
C70   H33   S    
C4    C54   S    
C19   C23   A    
C94   H91   S    
C90   H81   S    
C49   H21   S    
C92   H85   S    
C17   C21   A    
O8    C4    A    
C25   C29   A    
C34   C54   A    
C96   H94   S    
C78   H54   S    
O9    C5    A    
C3    C53   S    
C76   C77   S    
C95   H93   S    
C59   C63   A    
O21   C69   S    
C62   C66   A    
C61   C65   A    
C80   C81   S    
C91   H84   S    
C22   C26   A    
O6    V2    S    
C39   C43   A    
C63   C67   A    
C52   C56   A    
C58   C65   A    
C91   C92   S    
C73   H42   S    
C57   C66   A    
C23   C27   A    
C13   C17   A    
O23   C71   S    
C63   O27   S    
C11   O23   S    
C59   C68   A    
C94   H90   S    
C74   C75   S    
C15   C19   A    
C58   H26   S    
C84   H68   S    
O9    V1    S    
C16   C20   A    
C57   H25   S    
C79   H55   S    
C92   H86   S    
C10   C14   A    
C59   H27   S    
C79   C80   S    
C40   H16   S    
C75   H46   S    
O30   C88   S    
C93   H89   S    
C43   C47   A    
O6    C2    A    
C83   H65   S    
C12   C32   A    
C34   O30   S    
C25   H9    S    
O18   V4    S    
C77   C78   S    
O12   V4    S    
C36   O32   S    
C72   H38   S    
C18   C22   A    
C27   H11   S    
C64   O28   S    
C28   H12   S    
C8    C18   S    
C87   H73   S    
O10   C6    A    
C69   H31   S    
C77   H51   S    
C85   H69   S    
C70   H34   S    
O20   V2    S    
C82   H62   S    
O2    C6    A    
C94   C95   S    
C35   C39   A    
C60   C64   A    
O32   C94   S    
C44   C48   A    
C81   H60   S    
C85   C86   S    
C71   H37   S    
C21   H5    S    
C52   H24   S    
O11   C7    A    
C1    C55   S    
C96   H95   S    
C61   O25   S    
C91   H83   S    
C93   H88   S    
C13   H1    S    
C86   H71   S    
O4    V2    S    
C14   C18   A    
C83   C84   S    
C64   C68   A    
C16   H4    S    
C92   C93   S    
O26   C76   S    
C28   C32   A    
C71   H36   S    
C29   C30   S    
C38   H14   S    
C4    O14   A    
C37   H13   S    
C73   H41   S    
O24   C72   S    
O3    V1    S    
C42   C65   S    
C86   H72   S    
C69   H29   S    
O25   C73   S    
C69   H30   S    
C95   H92   S    
C89   H79   S    
C41   C45   A    
C70   H32   S    
C50   C54   A    
C5    C19   S    
C81   H61   S    
