data_mof_unit_65253.cif
_audit_creation_date              2012-12-11T17:44:45-0500
_audit_creation_method            fapswitch 2.2
_symmetry_space_group_name_H-M    P1
_symmetry_Int_Tables_number       1
_space_group_crystal_system       triclinic
_cell_length_a                    8.168713
_cell_length_b                    12.651479
_cell_length_c                    14.898757
_cell_angle_alpha                 96.961121
_cell_angle_beta                  97.561053
_cell_angle_gamma                 98.355959
_cell_volume                      1494.60577001

loop_
_atom_site_label
_atom_site_type_symbol
_atom_type_description
_atom_site_fract_x
_atom_site_fract_y
_atom_site_fract_z
_atom_type_partial_charge
Ba1   Ba    Ba6+2 0.843760 0.550230 0.455610 1.637305
Ba2   Ba    Ba6+2 0.346080 0.449860 0.544400 1.633744
C1    C     C_3   0.522522 0.912308 0.185044 -0.416219
C2    C     C_R   0.110130 0.468781 0.206906 0.059924
C3    C     C_R   0.919344 0.476836 0.765996 -0.281622
C4    C     C_3   0.072814 0.773577 0.203837 0.360227
C5    C     C_R   0.822000 0.434908 0.827373 0.001535
C6    C     C_R   0.888246 0.441245 0.919355 -0.155289
C7    C     C_R   0.053730 0.493886 0.953331 0.009905
C8    C     C_R   0.149050 0.542995 0.890475 -0.028514
C9    C     C_R   0.125463 0.502147 0.048051 0.011402
C10   C     C_R   0.292190 0.558053 0.077629 -0.029403
C11   C     C_R   0.380040 0.607054 0.014685 -0.110786
C12   C     C_3   0.585408 0.830991 0.242701 0.338989
C13   C     C_R   0.308523 0.602144 0.924181 -0.046390
C14   C     C_R   0.038097 0.456125 0.114519 -0.132158
C15   C     C_R   0.272071 0.524272 0.233869 -0.291536
C16   C     C_3   0.037795 0.802651 0.107875 -0.355712
C17   C     C_R   0.080951 0.532701 0.795640 0.039140
C18   C     C_R   0.773754 0.180373 0.533334 -0.276440
C19   C     C_R   0.421309 0.808072 0.461157 -0.287315
C20   C     C_R   0.389402 0.986332 0.428336 -0.105772
C21   C     C_R   0.323340 0.878258 0.424197 -0.010765
C22   C     C_R   0.581456 0.846699 0.509902 0.079325
C23   C     C_3   0.413649 0.286599 0.265985 0.316470
C24   C     C_R   0.648155 0.958621 0.518904 -0.057265
C25   C     C_R   0.550989 0.028411 0.475750 -0.064666
C26   C     C_R   0.616162 0.139273 0.483396 0.040729
C27   C     C_R   0.872961 0.112695 0.572482 -0.010879
C28   C     C_3   0.264744 0.780288 0.651601 0.276063
C29   C     C_R   0.808816 0.003243 0.568413 -0.089925
C30   C     C_3   0.274223 0.901713 0.669882 -0.338593
C31   C     C_3   0.930549 0.218002 0.345956 0.277166
C32   C     C_3   0.917164 0.096413 0.324780 -0.347451
C33   C     C_3   0.754463 0.714394 0.741544 0.274596
C34   C     C_3   0.368588 0.254982 0.163055 -0.410186
C35   C     C_3   0.740762 0.760492 0.839942 -0.154667
C36   C     C_3   0.111187 0.222992 0.796015 0.465160
C37   C     C_3   0.128514 0.188038 0.890911 -0.090950
C38   C     C_3   0.602735 0.167916 0.752084 0.364096
C39   C     C_3   0.660728 0.080642 0.804231 -0.409473
C40   C     C_R   0.365976 0.565509 0.170352 -0.008051
H1    H     H_    0.688224 0.873289 0.297047 0.078189
H2    H     H_    0.881523 0.694649 0.738207 -0.000829
H3    H     H_    0.659316 0.640899 0.718635 0.063669
H4    H     H_    0.478669 0.976411 0.229054 0.104351
H5    H     H_    0.831007 0.837002 0.861158 0.124986
H6    H     H_    0.612855 0.779911 0.842503 0.118945
H7    H     H_    0.480661 0.796855 0.276558 -0.048492
H8    H     H_    0.417137 0.871024 0.131862 0.112330
H9    H     H_    0.301929 0.309115 0.293532 0.017883
H10   H     H_    0.516273 0.357087 0.279791 0.062766
H11   H     H_    0.262391 0.186677 0.147127 0.125206
H12   H     H_    0.366973 0.935003 0.731290 0.116681
H13   H     H_    0.331744 0.324213 0.130782 0.059265
H14   H     H_    0.478229 0.230460 0.134141 0.126966
H15   H     H_    0.624062 0.949526 0.150503 0.132478
H16   H     H_    0.070726 0.739836 0.057790 0.076035
H17   H     H_    0.195978 0.300621 0.798267 0.074138
H18   H     H_    0.980175 0.235646 0.777789 -0.164216
H19   H     H_    0.078168 0.244861 0.939078 0.026906
H20   H     H_    0.054238 0.106174 0.886663 0.092958
H21   H     H_    0.707289 0.201540 0.717850 -0.048987
H22   H     H_    0.495336 0.131186 0.698402 0.080790
H23   H     H_    0.312350 0.939139 0.610886 0.079561
H24   H     H_    0.770107 0.116474 0.856592 0.104216
H25   H     H_    0.696130 0.016346 0.756521 0.088872
H26   H     H_    0.990779 0.696352 0.206715 0.094553
H27   H     H_    0.560028 0.045116 0.840114 0.142389
H28   H     H_    0.328179 0.531157 0.304701 0.073348
H29   H     H_    0.505366 0.651454 0.034576 0.122376
H30   H     H_    0.914269 0.409592 0.097086 0.085739
H31   H     H_    0.865692 0.470199 0.694778 0.075583
H32   H     H_    0.805871 0.406154 0.962462 0.080833
H33   H     H_    0.381745 0.645330 0.881020 0.101589
H34   H     H_    0.150296 0.921499 0.681994 0.138952
H35   H     H_    0.310085 0.036693 0.396496 0.100806
H36   H     H_    0.887485 0.954669 0.602821 0.107269
H37   H     H_    0.823370 0.265251 0.537612 0.063559
H38   H     H_    0.205591 0.762574 0.216958 -0.075014
H39   H     H_    0.368391 0.723767 0.456855 0.069993
H40   H     H_    0.903173 0.807965 0.090327 0.168434
H41   H     H_    0.113647 0.881638 0.103555 0.106108
H42   H     H_    0.386040 0.761480 0.635510 -0.000718
H43   H     H_    0.165082 0.748997 0.592360 0.078798
H44   H     H_    0.689585 0.614886 0.885298 0.193193
H45   H     H_    0.812269 0.237966 0.365550 0.002279
H46   H     H_    0.895435 0.669537 0.902452 0.170149
H47   H     H_    0.306831 0.140726 0.979399 0.168928
H48   H     H_    0.362084 0.263882 0.950782 0.199331
H49   H     H_    0.034008 0.247389 0.403506 0.077531
H50   H     H_    0.816156 0.064762 0.266562 0.116385
H51   H     H_    0.888140 0.057986 0.384921 0.085776
H52   H     H_    0.037383 0.075817 0.306611 0.140383
N1    N     N_3   0.774715 0.686389 0.904922 -0.525768
N2    N     N_3   0.303408 0.185025 0.924567 -0.441595
O1    O     O_2   0.827930 0.435360 0.277760 -0.459002
O2    O     O_2   0.213060 0.118463 0.565480 -0.486320
O3    O     O_3   0.152082 0.142609 0.732986 -0.599376
O4    O     O_3   0.100310 0.439010 0.391180 -0.499955
O5    O     O_3   0.587770 0.631830 0.546230 -0.490725
O6    O     O_2   0.332600 0.233710 0.456170 -0.467597
O7    O     O_3   0.464486 0.198558 0.304327 -0.650800
O8    O     O_2   0.479336 0.439680 0.825702 -0.499987
O9    O     O_3   0.550635 0.244786 0.813785 -0.573697
O10   O     O_3   0.625610 0.634200 0.333270 -0.476396
O11   O     O_2   0.707616 0.555832 0.173939 -0.489047
O12   O     O_3   0.729445 0.796418 0.688983 -0.658751
O13   O     O_3   0.958822 0.262754 0.267090 -0.635281
O14   O     O_3   0.647899 0.753682 0.186280 -0.595729
O15   O     O_2   0.857120 0.766320 0.543890 -0.468295
O16   O     O_3   0.056570 0.691100 0.379020 -0.487677
O17   O     O_2   0.987672 0.882729 0.437074 -0.486755
O18   O     O_3   0.039512 0.856436 0.267194 -0.599838
O19   O     O_2   0.361790 0.564680 0.722290 -0.476215
O20   O     O_3   0.089410 0.561080 0.608830 -0.494323
O21   O     O_3   0.564100 0.365890 0.666740 -0.472056
O22   O     O_3   0.231481 0.737487 0.730754 -0.641424
O23   O     O_3   0.601940 0.368260 0.453780 -0.479061
O24   O     O_3   0.133140 0.308990 0.620990 -0.482586
P1    P     P_3+3 0.998770 0.403620 0.291990 0.980564
P2    P     P_3+3 0.687370 0.751000 0.571300 0.970387
P3    P     P_3+3 0.102600 0.829014 0.377714 0.949086
P4    P     P_3+3 0.190950 0.596470 0.708020 0.969823
P5    P     P_3+3 0.091561 0.169559 0.621989 0.954094
P6    P     P_3+3 0.586490 0.625013 0.214448 0.955302
P7    P     P_3+3 0.506948 0.233138 0.423269 0.932121
P8    P     P_3+3 0.603919 0.373809 0.784955 0.957908

loop_
_geom_bond_atom_site_label_1
_geom_bond_atom_site_label_2
_ccdc_geom_bond_type
C13   H33   S    
C27   P5    S    
C14   H30   S    
C32   H51   S    
C5    C6    A    
O3    P5    S    
C24   C25   A    
C38   H21   S    
C33   C35   S    
C22   C24   A    
O4    P1    S    
C8    C13   A    
C31   H49   S    
Ba1   O16   S    
Ba1   O23   S    
C36   C37   S    
C12   H7    S    
Ba2   O6    S    
C35   N1    S    
Ba1   Ba2   S    
Ba2   O19   S    
C30   H12   S    
Ba1   P2    S    
C4    O18   S    
O1    P1    D    
C33   O12   S    
C15   C40   A    
Ba2   O20   S    
Ba2   O21   S    
O2    P5    D    
C6    C7    A    
O8    P8    D    
C10   C40   A    
C34   H11   S    
Ba1   O20   S    
C5    P8    S    
C35   H5    S    
O7    P7    S    
C7    C8    A    
C18   H37   S    
C26   P7    S    
Ba1   O10   S    
C12   H1    S    
C4    H26   S    
H46   N1    S    
Ba2   O4    S    
C15   H28   S    
O15   P2    D    
C28   H42   S    
C4    C16   S    
Ba1   O4    S    
C22   P2    S    
C1    H8    S    
C16   H16   S    
C31   C32   S    
Ba1   P1    S    
C18   C27   A    
C37   H19   S    
C17   P4    S    
C20   H35   S    
O16   P3    S    
C39   H25   S    
O6    P7    D    
Ba1   O1    S    
C3    C5    A    
Ba2   O24   S    
O24   P5    S    
C23   O7    S    
C21   P3    S    
C18   C26   A    
Ba2   O5    S    
C28   H43   S    
C2    C14   A    
C23   H9    S    
C34   H14   S    
C9    C14   A    
C4    H38   S    
O17   P3    D    
C8    C17   A    
Ba2   O23   S    
C6    H32   S    
C16   H41   S    
O22   P4    S    
C35   H6    S    
C33   H2    S    
C7    C9    A    
C1    C12   S    
O14   P6    S    
C36   H18   S    
O18   P3    S    
C1    H15   S    
C38   C39   S    
C19   H39   S    
C20   C25   A    
C11   C13   A    
C31   O13   S    
C2    C15   A    
C33   H3    S    
Ba1   O5    S    
C29   H36   S    
C39   H27   S    
C12   O14   S    
C37   H20   S    
O19   P4    D    
O20   P4    S    
O9    P8    S    
C32   H52   S    
O11   P6    D    
O12   P2    S    
C36   O3    S    
C30   H34   S    
C9    C10   A    
H48   N2    S    
C39   H24   S    
C3    C17   A    
Ba2   P4    S    
C11   H29   S    
O10   P6    S    
C1    H4    S    
O5    P2    S    
C38   H22   S    
H47   N2    S    
C19   C21   A    
C31   H45   S    
C23   H10   S    
C27   C29   A    
C34   H13   S    
Ba1   O15   S    
C28   C30   S    
O13   P1    S    
C16   H40   S    
C2    P1    S    
C3    H31   S    
O21   P8    S    
C32   H50   S    
C37   N2    S    
H44   N1    S    
C40   P6    S    
C23   C34   S    
C36   H17   S    
C24   C29   A    
C10   C11   A    
C19   C22   A    
C28   O22   S    
C25   C26   A    
C20   C21   A    
C38   O9    S    
C30   H23   S    
O23   P7    S    
