data_mof_unit_32588.cif
_audit_creation_date              2013-03-05T15:50:13-0500
_audit_creation_method            fapswitch 2.2
_symmetry_space_group_name_H-M    P1
_symmetry_Int_Tables_number       1
_space_group_crystal_system       triclinic
_cell_length_a                    15.03683
_cell_length_b                    15.032645
_cell_length_c                    34.879406
_cell_angle_alpha                 90.721115
_cell_angle_beta                  90.18275
_cell_angle_gamma                 60.323307
_cell_volume                      6849.51803971

loop_
_atom_site_label
_atom_site_type_symbol
_atom_site_description
_atom_site_fract_x
_atom_site_fract_y
_atom_site_fract_z
_atom_type_partial_charge
O1    O     O_R   0.502070 0.323090 0.541280 -0.521067
O2    O     O_R   0.338340 0.520690 0.539540 -0.503395
C1    C     C_R   0.302220 0.608223 0.555675 0.542795
O3    O     O_R   0.324760 0.674070 0.543580 -0.522119
O4    O     O_R   0.522400 0.640310 0.540110 -0.502184
C2    C     C_R   0.610955 0.588722 0.555110 0.546594
O5    O     O_R   0.675940 0.500630 0.542210 -0.521867
O6    O     O_R   0.641790 0.337020 0.538150 -0.508068
C3    C     C_R   0.590926 0.299153 0.553280 0.535064
O7    O     O_R   0.500260 0.324550 0.456580 -0.520747
O8    O     O_R   0.336660 0.522040 0.461020 -0.500682
C4    C     C_R   0.298864 0.610714 0.446428 0.543331
O9    O     O_R   0.322940 0.675540 0.458880 -0.519597
O10   O     O_R   0.520720 0.641670 0.461580 -0.500274
C5    C     C_R   0.607859 0.589647 0.445277 0.542673
O11   O     O_R   0.674120 0.502090 0.457500 -0.521279
O12   O     O_R   0.640110 0.338380 0.459630 -0.504978
C6    C     C_R   0.587775 0.302796 0.443693 0.539913
Cr1   Cr    Cr6+3 0.421670 0.426920 0.499620 1.009364
Cr2   Cr    Cr6+3 0.427030 0.651190 0.500980 1.007922
Cr3   Cr    Cr6+3 0.651280 0.421870 0.499380 0.997891
O13   O     O_3   0.499990 0.499990 0.499990 -0.230878
N1    N     N_R   0.756611 0.603488 0.766551 -0.229629
N2    N     N_R   0.752428 0.602009 0.728510 -0.234211
C7    C     C_R   0.633086 0.625006 0.591329 0.022152
C8    C     C_R   0.728492 0.567028 0.609062 -0.131388
C9    C     C_R   0.742377 0.587370 0.646972 -0.122374
C10   C     C_R   0.661043 0.665937 0.667814 0.033937
C11   C     C_R   0.568697 0.729869 0.648969 -0.124241
C12   C     C_R   0.554823 0.709568 0.610991 -0.133387
N3    N     N_R   0.589897 0.747095 0.730442 -0.246435
N4    N     N_R   0.594169 0.748633 0.768532 -0.257412
C13   C     C_R   0.677276 0.676324 0.787341 0.352018
C14   C     C_R   0.669088 0.673797 0.709672 0.348547
C15   C     C_R   0.768185 0.601087 0.848457 -0.115268
C16   C     C_R   0.783502 0.611168 0.887251 -0.124797
C17   C     C_R   0.626929 0.775074 0.889370 -0.128790
C18   C     C_R   0.611128 0.764423 0.850579 -0.122127
C19   C     C_R   0.684172 0.679655 0.829395 0.041533
C20   C     C_R   0.715556 0.700468 0.907614 0.025769
H1    H     H_    0.790679 0.502162 0.594432 0.127214
H2    H     H_    0.480657 0.756153 0.597929 0.128101
H3    H     H_    0.852202 0.551872 0.900571 0.128539
H4    H     H_    0.815151 0.537883 0.660488 0.132493
H5    H     H_    0.505036 0.791920 0.664125 0.130427
H6    H     H_    0.824790 0.533745 0.833089 0.130011
H7    H     H_    0.572764 0.844354 0.904434 0.125087
H8    H     H_    0.544419 0.824995 0.836858 0.119788
C21   C     C_R   0.724480 0.073128 0.905974 0.021747
C22   C     C_R   0.627449 0.130645 0.889422 -0.130556
C23   C     C_R   0.618860 0.155145 0.850659 -0.136289
C24   C     C_R   0.707113 0.118952 0.827886 0.023615
C25   C     C_R   0.803665 0.069501 0.845122 -0.077800
C26   C     C_R   0.812374 0.047137 0.883975 -0.114518
C27   C     C_R   0.744190 0.177990 0.767486 -0.098192
C28   C     C_R   0.739565 0.187728 0.727810 -0.100170
C29   C     C_R   0.691185 0.145672 0.705766 0.019996
C30   C     C_R   0.650727 0.090647 0.723721 -0.086129
C31   C     C_R   0.653839 0.080753 0.763636 0.044013
C32   C     C_R   0.699952 0.126765 0.785860 0.064499
C33   C     C_R   0.574705 0.204102 0.650117 -0.130622
C34   C     C_R   0.551927 0.239762 0.613009 -0.132075
C35   C     C_R   0.729997 0.194939 0.602282 -0.008321
C36   C     C_R   0.750694 0.161788 0.640617 -0.094042
C37   C     C_R   0.673032 0.168423 0.664643 0.014349
C38   C     C_R   0.626918 0.240500 0.589226 0.022082
H9    H     H_    0.558679 0.152570 0.905983 0.123632
H10   H     H_    0.888263 0.002746 0.896012 0.135234
H11   H     H_    0.826541 0.132028 0.652441 0.108864
H12   H     H_    0.770362 0.231467 0.714489 0.110277
H13   H     H_    0.780524 0.212523 0.784078 0.105597
H14   H     H_    0.543668 0.197378 0.838034 0.106950
H15   H     H_    0.615199 0.056324 0.706501 0.103725
H16   H     H_    0.513455 0.210327 0.668254 0.101711
H17   H     H_    0.473111 0.272593 0.603802 0.131283
H18   H     H_    0.872514 0.043115 0.828104 0.166746
C39   C     C_R   0.085634 0.700128 0.909964 0.021243
C40   C     C_R   0.109611 0.764169 0.888557 -0.120543
C41   C     C_R   0.126245 0.748772 0.849168 -0.077280
C42   C     C_R   0.119722 0.668937 0.830678 0.067404
C43   C     C_R   0.105364 0.599213 0.852356 -0.103632
C44   C     C_R   0.088242 0.614746 0.891790 -0.122200
C45   C     C_R   0.202851 0.572697 0.771366 -0.159694
C46   C     C_R   0.216319 0.566631 0.731792 -0.123721
C47   C     C_R   0.151228 0.649321 0.708710 -0.013970
C48   C     C_R   0.069859 0.736675 0.725589 -0.097662
C49   C     C_R   0.053965 0.743170 0.765382 0.232940
C50   C     C_R   0.123827 0.661223 0.788566 0.011786
C51   C     C_R   0.175490 0.728425 0.650064 -0.118102
C52   C     C_R   0.211724 0.718954 0.612597 -0.127798
C53   C     C_R   0.234328 0.547865 0.608272 -0.129645
C54   C     C_R   0.198795 0.557157 0.645731 -0.118501
C55   C     C_R   0.172377 0.646101 0.667332 0.035794
C56   C     C_R   0.244886 0.627131 0.591859 0.021295
H19   H     H_    0.108516 0.830388 0.901674 0.122634
H20   H     H_    0.070088 0.564008 0.907469 0.123822
H21   H     H_    0.195446 0.493381 0.658335 0.105615
H22   H     H_    0.280317 0.498831 0.719355 0.117456
H23   H     H_    0.256503 0.509552 0.788788 0.112255
H24   H     H_    0.139424 0.801945 0.832784 0.116841
H25   H     H_    0.017971 0.799285 0.707580 0.145843
H26   H     H_    0.155686 0.797735 0.666280 0.109599
H27   H     H_    0.218658 0.781411 0.600651 0.123161
H28   H     H_    0.101532 0.536373 0.838438 0.108727
H29   H     H_    0.258604 0.476334 0.592955 0.123430
C57   C     C_R   0.694200 0.718243 0.091114 0.023920
C58   C     C_R   0.596118 0.789594 0.104727 -0.129695
C59   C     C_R   0.567070 0.782942 0.142164 -0.121078
C60   C     C_R   0.636904 0.706853 0.166620 0.029780
C61   C     C_R   0.731691 0.631539 0.152166 -0.134109
C62   C     C_R   0.759937 0.636782 0.114723 -0.129376
C63   C     C_R   0.618435 0.620396 0.223082 -0.133746
C64   C     C_R   0.618070 0.608122 0.262522 -0.125363
C65   C     C_R   0.614978 0.683008 0.287662 0.012962
C66   C     C_R   0.607963 0.772424 0.272914 -0.109543
C67   C     C_R   0.609768 0.785389 0.233187 0.013346
C68   C     C_R   0.616322 0.707403 0.207952 0.031899
C69   C     C_R   0.551578 0.740668 0.354465 -0.121219
C70   C     C_R   0.551705 0.718978 0.393267 -0.125960
C71   C     C_R   0.699201 0.550756 0.382653 -0.125256
C72   C     C_R   0.698243 0.572067 0.343863 -0.123255
C73   C     C_R   0.622434 0.665799 0.329298 0.029760
C74   C     C_R   0.623385 0.622441 0.407440 0.022311
H30   H     H_    0.543526 0.852488 0.087005 0.120737
H31   H     H_    0.835860 0.580214 0.105123 0.124716
H32   H     H_    0.754805 0.514054 0.324949 0.103749
H33   H     H_    0.622023 0.539122 0.273468 0.116850
H34   H     H_    0.624328 0.559875 0.204206 0.116095
H35   H     H_    0.492054 0.839590 0.152556 0.100196
H36   H     H_    0.606543 0.829712 0.292486 0.100223
H37   H     H_    0.492802 0.813688 0.343749 0.101509
H38   H     H_    0.492356 0.775666 0.411707 0.121078
H39   H     H_    0.786102 0.571589 0.170560 0.104107
H40   H     H_    0.755267 0.475592 0.392623 0.126166
C75   C     C_R   0.700743 0.102573 0.087827 0.021535
C76   C     C_R   0.776387 0.120649 0.103804 -0.133003
C77   C     C_R   0.764545 0.161371 0.140731 -0.124173
C78   C     C_R   0.676800 0.184961 0.162259 0.030040
C79   C     C_R   0.597088 0.175835 0.144927 -0.129795
C80   C     C_R   0.609013 0.134858 0.108003 -0.132770
C81   C     C_R   0.582270 0.272665 0.222380 -0.122649
C82   C     C_R   0.576167 0.277111 0.262255 -0.120583
C83   C     C_R   0.662048 0.213133 0.284406 0.028235
C84   C     C_R   0.755357 0.147908 0.266156 -0.118873
C85   C     C_R   0.761544 0.143408 0.226263 -0.124696
C86   C     C_R   0.674354 0.204013 0.203988 0.022694
C87   C     C_R   0.726519 0.223421 0.349318 -0.126210
C88   C     C_R   0.709898 0.242197 0.388611 -0.131995
C89   C     C_R   0.551880 0.236722 0.383201 -0.129830
C90   C     C_R   0.568501 0.218158 0.343933 -0.125696
C91   C     C_R   0.653624 0.215779 0.326497 0.032251
C92   C     C_R   0.619908 0.253874 0.405572 0.021741
H41   H     H_    0.847404 0.097928 0.088692 0.119465
H42   H     H_    0.549242 0.122258 0.096362 0.127598
H43   H     H_    0.512536 0.210047 0.326877 0.099841
H44   H     H_    0.504019 0.330028 0.275837 0.106215
H45   H     H_    0.514404 0.321118 0.205909 0.105627
H46   H     H_    0.826233 0.169554 0.153172 0.100388
H47   H     H_    0.822355 0.097708 0.282708 0.098859
H48   H     H_    0.833065 0.088092 0.212914 0.098477
H49   H     H_    0.792775 0.221700 0.336421 0.099676
H50   H     H_    0.763975 0.254652 0.405126 0.118589
H51   H     H_    0.528940 0.192394 0.160957 0.101450
H52   H     H_    0.482196 0.244616 0.395448 0.123968
C93   C     C_R   0.991171 0.764697 0.103531 0.021347
C94   C     C_R   0.994669 0.681563 0.122878 -0.129602
C95   C     C_R   0.007066 0.673994 0.162617 -0.124958
C96   C     C_R   0.015460 0.749764 0.183684 0.028470
C97   C     C_R   0.007522 0.834914 0.164460 -0.133710
C98   C     C_R   0.995148 0.842470 0.124869 -0.125859
C99   C     C_R   0.108955 0.763937 0.240399 -0.117905
C100  C     C_R   0.134747 0.749255 0.279001 -0.113744
C101  C     C_R   0.089740 0.709118 0.303246 0.020553
C102  C     C_R   0.019102 0.682649 0.288411 -0.124692
C103  C     C_R   0.993247 0.697107 0.249555 -0.123727
C104  C     C_R   0.038139 0.737881 0.225187 0.029976
C105  C     C_R   0.184501 0.584788 0.353739 -0.135087
C106  C     C_R   0.237340 0.559508 0.388354 -0.138002
C107  C     C_R   0.165295 0.739741 0.403849 -0.115100
C108  C     C_R   0.111241 0.766480 0.369159 0.008129
C109  C     C_R   0.124388 0.687540 0.343236 0.031288
C110  C     C_R   0.231227 0.636801 0.412920 0.008695
H53   H     H_    0.989144 0.621726 0.107311 0.127180
H54   H     H_    0.988917 0.909314 0.110952 0.125114
H55   H     H_    0.192373 0.766247 0.289750 0.108624
H56   H     H_    0.147130 0.792579 0.222185 0.104540
H57   H     H_    0.013111 0.607400 0.176656 0.100896
H58   H     H_    0.984929 0.650138 0.306805 0.108491
H59   H     H_    0.938598 0.676172 0.238577 0.095995
H60   H     H_    0.195295 0.523872 0.334047 0.109708
H61   H     H_    0.287440 0.479518 0.394861 0.127106
H62   H     H_    0.010617 0.896022 0.180097 0.095562
H63   H     H_    0.157193 0.799547 0.423602 0.119049
O14   O     O_R   0.017640 0.822070 0.960410 -0.516269
O15   O     O_R   0.822000 0.989470 0.960340 -0.503127
C111  C     C_R   0.735961 0.025976 0.943563 0.548702
O16   O     O_R   0.666920 0.007430 0.955290 -0.513320
O17   O     O_R   0.694410 0.812480 0.959650 -0.497750
C112  C     C_R   0.746052 0.722635 0.945057 0.549736
O18   O     O_R   0.831550 0.656950 0.958960 -0.519224
O19   O     O_R   0.998590 0.685540 0.963930 -0.494691
C113  C     C_R   0.037408 0.734406 0.948053 0.556466
O20   O     O_R   0.008220 0.831200 0.045060 -0.515020
O21   O     O_R   0.813270 0.997930 0.038810 -0.522985
C114  C     C_R   0.723389 0.038775 0.052915 0.533521
O22   O     O_R   0.657500 0.016560 0.039940 -0.518725
O23   O     O_R   0.685680 0.820940 0.038120 -0.503407
C115  C     C_R   0.733893 0.734465 0.054832 0.531821
O24   O     O_R   0.822130 0.666070 0.043610 -0.531014
O25   O     O_R   0.989860 0.694000 0.042400 -0.500381
C116  C     C_R   0.977423 0.774414 0.061620 0.561951
Cr4   Cr    Cr6+3 0.910810 0.908010 0.001130 1.005947
Cr5   Cr    Cr6+3 0.682800 0.909890 0.998370 1.006496
Cr6   Cr    Cr6+3 0.908370 0.682300 0.002180 1.009961
O26   O     O_3   0.833990 0.833400 0.000560 -0.256476
C117  C     C_3   0.607880 0.020304 0.780771 -0.238805
C118  C     C_3   0.490563 0.080393 0.777786 -0.317917
C119  C     C_3   0.441631 0.027037 0.798743 -0.448960
H64   H     H_    0.466227 0.950940 0.785433 0.188224
H65   H     H_    0.463307 0.017902 0.829514 0.147422
H66   H     H_    0.357024 0.073728 0.796693 0.143681
H67   H     H_    0.460265 0.158497 0.790209 0.155054
H68   H     H_    0.467414 0.088436 0.747168 0.158034
H69   H     H_    0.637826 0.946164 0.764977 0.177713
H70   H     H_    0.631145 0.000157 0.811028 0.176645
C120  C     C_3   0.815299 0.184295 0.575797 -0.242583
C121  C     C_3   0.924159 0.102472 0.587354 -0.318641
C122  C     C_3   0.001473 0.084449 0.555718 -0.454095
H71   H     H_    0.982845 0.055285 0.529225 0.150736
H72   H     H_    0.001196 0.156795 0.549316 0.149992
H73   H     H_    0.079411 0.026725 0.565200 0.144394
H74   H     H_    0.947844 0.127928 0.613596 0.154883
H75   H     H_    0.926180 0.028913 0.593126 0.170976
H76   H     H_    0.801003 0.162987 0.546701 0.153256
H77   H     H_    0.812164 0.259585 0.574128 0.166731
N5    N     N_R   0.966372 0.831901 0.781482 0.061000
O27   O     O_R   0.925543 0.918608 0.763527 -0.385175
O28   O     O_R   0.918756 0.823475 0.811102 -0.345269
C123  C     C_3   0.612919 0.878622 0.219186 -0.256676
C124  C     C_3   0.722943 0.853251 0.210502 -0.293966
C125  C     C_3   0.723997 0.942782 0.191072 -0.436924
H78   H     H_    0.690517 0.953405 0.161929 0.165488
H79   H     H_    0.679082 0.013743 0.208337 0.167644
H80   H     H_    0.803657 0.927834 0.188494 0.159759
H81   H     H_    0.766261 0.836843 0.237808 0.161592
H82   H     H_    0.762153 0.784756 0.191468 0.179786
H83   H     H_    0.563434 0.911114 0.193771 0.142409
H84   H     H_    0.580542 0.940438 0.241421 0.127338
C126  C     C_3   0.038855 0.878733 0.361236 -0.255963
C127  C     C_3   0.096506 0.938249 0.356088 -0.296422
C128  C     C_3   0.022935 0.050122 0.346729 -0.458885
H85   H     H_    0.982650 0.055606 0.319376 0.144844
H86   H     H_    0.965774 0.087223 0.370126 0.149529
H87   H     H_    0.066401 0.091582 0.343639 0.138631
H88   H     H_    0.138197 0.935505 0.382798 0.157013
H89   H     H_    0.153341 0.903421 0.332500 0.159515
H90   H     H_    0.991666 0.888417 0.335404 0.155235
H91   H     H_    0.984567 0.912327 0.385730 0.138348

loop_
_geom_bond_atom_site_label_1
_geom_bond_atom_site_label_2
_geom_bond_distance
_ccdc_geom_bond_type
C118  H68   1.111526 S    
C99   C100  1.389718 A    
O11   Cr3   2.040494 S    
C76   H41   1.082933 S    
C42   C43   1.400699 A    
C51   H26   1.083142 S    
O19   C113  1.274312 A    
C53   H29   1.083067 S    
C117  H70   1.108435 S    
C87   C91   1.401802 A    
C87   C88   1.393928 A    
C126  H91   1.112059 S    
C49   C50   1.418879 A    
C39   C113  1.474878 S    
C122  H72   1.110976 S    
C85   C86   1.407526 A    
C119  H64   1.108914 S    
C60   C68   1.474489 S    
C75   C76   1.405840 A    
O4    Cr2   1.925339 S    
C25   C26   1.390444 A    
C67   C68   1.420917 A    
C4    O9    1.267698 A    
Cr6   O26   1.975030 S    
C67   C123  1.512663 S    
O8    Cr1   1.928427 S    
C8    C9    1.391688 A    
C17   C18   1.393861 A    
C28   C29   1.399896 A    
C5    C74   1.473608 S    
C77   H46   1.083025 S    
C45   C46   1.391023 A    
C54   C55   1.401359 A    
C10   C11   1.404454 A    
C100  C101  1.399279 A    
O7    C6    1.270681 A    
C17   C20   1.404051 A    
C57   C115  1.474433 S    
O4    C2    1.277298 A    
C102  C103  1.398415 A    
C105  C109  1.402411 A    
C83   C84   1.401048 A    
C128  H86   1.110919 S    
C2    C7    1.470996 S    
C26   H10   1.083379 S    
C57   C58   1.405800 A    
C8    H1    1.083169 S    
C66   C67   1.403945 A    
O14   C113  1.268629 A    
O23   Cr5   1.923811 S    
C59   C60   1.402903 A    
C123  H83   1.106758 S    
C125  H78   1.110582 S    
C97   C98   1.391329 A    
C127  H88   1.111014 S    
C21   C22   1.402741 A    
C61   C62   1.389795 A    
C122  H71   1.110999 S    
C69   H37   1.083193 S    
C24   C32   1.471348 S    
C102  H58   1.083114 S    
Cr3   O13   1.977144 S    
C69   C70   1.395869 A    
C47   C55   1.473897 S    
C9    H4    1.082847 S    
C4    C110  1.470768 S    
C123  C124  1.532897 S    
C100  H55   1.082278 S    
O6    C3    1.276225 A    
N1    C13   1.356443 A    
C62   H31   1.082834 S    
O18   Cr6   2.040191 S    
N1    N2    1.328579 A    
C52   C56   1.404580 A    
O17   C112  1.277845 A    
C17   H7    1.083105 S    
C22   H9    1.083114 S    
C40   H19   1.082989 S    
C18   H8    1.080654 S    
C99   H56   1.082823 S    
C71   C74   1.405247 A    
C75   C114  1.472544 S    
C107  C110  1.403137 A    
C83   C91   1.472310 S    
C121  H74   1.111338 S    
C35   C38   1.425150 A    
C101  C109  1.470259 S    
C31   C32   1.420583 A    
C101  C102  1.401467 A    
C27   C32   1.403042 A    
C93   C98   1.404091 A    
C124  H82   1.110292 S    
O20   C116  1.297056 A    
C58   H30   1.082879 S    
C6    C92   1.473066 S    
C63   C64   1.390657 A    
C54   H21   1.083289 S    
C43   C44   1.395460 A    
C35   C120  1.524752 S    
C57   C62   1.405818 A    
Cr5   O26   1.977125 S    
C127  H89   1.109928 S    
C75   C80   1.402874 A    
C121  H75   1.111987 S    
O1    Cr1   2.046115 S    
C44   H20   1.083036 S    
C5    O11   1.272694 A    
C34   C38   1.406567 A    
C23   C24   1.403187 A    
O10   Cr2   1.923933 S    
C41   H24   1.083427 S    
C128  H85   1.110332 S    
Cr1   O13   1.968289 S    
O1    C3    1.270444 A    
C46   C47   1.402402 A    
N5    O27   1.301445 A    
C87   H49   1.082900 S    
C89   C92   1.404538 A    
C29   C37   1.471825 S    
C95   C96   1.404978 A    
C72   H32   1.083395 S    
C85   H48   1.082948 S    
C40   C41   1.393018 A    
C115  O24   1.270076 A    
C128  H87   1.110296 S    
O15   C111  1.271848 A    
C22   C23   1.394494 A    
C127  C128  1.525751 S    
C39   C40   1.406350 A    
O14   Cr4   2.044528 S    
O12   Cr3   1.920711 S    
C49   N5    1.440672 S    
O23   C115  1.279995 A    
C11   H5    1.082825 S    
C123  H84   1.112791 S    
C125  H79   1.108944 S    
C15   C16   1.390817 A    
O3    Cr2   2.041794 S    
C99   C104  1.404646 A    
C15   C19   1.403518 A    
C117  H69   1.112468 S    
C11   C12   1.393732 A    
O6    Cr3   1.923759 S    
C108  C126  1.516488 S    
C119  H65   1.110942 S    
C121  C122  1.526869 S    
Cr4   O26   1.968466 S    
C16   C20   1.404599 A    
O7    Cr1   2.042239 S    
C58   C59   1.398587 A    
C41   C42   1.400909 A    
C95   H57   1.082657 S    
O21   Cr4   1.926151 S    
C27   C28   1.391330 A    
O12   C6    1.273180 A    
C126  C127  1.535320 S    
N3    C14   1.357592 A    
C120  C121  1.539309 S    
C89   H52   1.083029 S    
C13   C19   1.472141 S    
C24   C25   1.399593 A    
C117  C118  1.536896 S    
C84   H47   1.082650 S    
C59   H35   1.082869 S    
C106  C110  1.400853 A    
C107  C108  1.403098 A    
C81   C86   1.402805 A    
O22   Cr5   2.039432 S    
C81   H45   1.082924 S    
C96   C97   1.404323 A    
C21   C111  1.466942 S    
Cr2   O13   1.974867 S    
C105  C106  1.392759 A    
C28   H12   1.083146 S    
C90   H43   1.083288 S    
C94   C95   1.396527 A    
O20   Cr4   2.044994 S    
C30   C31   1.400163 A    
C25   H18   1.082971 S    
C23   H14   1.080935 S    
C1    O3    1.271330 A    
C53   C54   1.392120 A    
O16   Cr5   2.042378 S    
C71   C72   1.392700 A    
C48   C49   1.403120 A    
C119  H66   1.110303 S    
C64   C65   1.400689 A    
C107  H63   1.083641 S    
C7    C12   1.404655 A    
C96   C104  1.478748 S    
C114  O22   1.272367 A    
C118  H67   1.110229 S    
C105  H60   1.083684 S    
O9    Cr2   2.042453 S    
C98   H54   1.082988 S    
O2    Cr1   1.925757 S    
C31   C117  1.516146 S    
C12   H2    1.083112 S    
N3    N4    1.330368 A    
C93   C116  1.474631 S    
C94   H53   1.082694 S    
C88   C92   1.406819 A    
C126  H90   1.110582 S    
C111  O16   1.270826 A    
C16   H3    1.083097 S    
C70   H38   1.083081 S    
C124  H81   1.111328 S    
C103  H59   1.082556 S    
C79   C80   1.393712 A    
C72   C73   1.402408 A    
C65   C66   1.399712 A    
C2    O5    1.271785 A    
C64   H33   1.083501 S    
C20   C112  1.470887 S    
C70   C74   1.406382 A    
C33   H16   1.083568 S    
C36   H11   1.080445 S    
C77   C78   1.402389 A    
C15   H6    1.082884 S    
O24   Cr6   2.040455 S    
C120  H76   1.112350 S    
C63   C68   1.402261 A    
C84   C85   1.393393 A    
C125  H80   1.107719 S    
C46   H22   1.083228 S    
N4    C13   1.356919 A    
C79   H51   1.082686 S    
O2    C1    1.272323 A    
C7    C8    1.403600 A    
C88   H50   1.083124 S    
O15   Cr4   1.928599 S    
C47   C48   1.400773 A    
C103  C104  1.407227 A    
O25   Cr6   1.922662 S    
C89   C90   1.392748 A    
C36   C37   1.401682 A    
C53   C56   1.406374 A    
O5    Cr3   2.039033 S    
C106  H61   1.083379 S    
C48   H25   1.083400 S    
C29   C30   1.400092 A    
C18   C19   1.404160 A    
C39   C44   1.407335 A    
C78   C86   1.476907 S    
C69   C73   1.402189 A    
C118  C119  1.523690 S    
C124  C125  1.521554 S    
N5    O28   1.301478 A    
C45   C50   1.400521 A    
C1    C56   1.473819 S    
C71   H40   1.083118 S    
C3    C38   1.480949 S    
C51   C55   1.404548 A    
C33   C34   1.383011 A    
C34   H17   1.083345 S    
N2    C14   1.356531 A    
C52   H27   1.083079 S    
C63   H34   1.083747 S    
C78   C79   1.406064 A    
C120  H77   1.111498 S    
C10   C14   1.472715 S    
C35   C36   1.411953 A    
C65   C73   1.472469 S    
C33   C37   1.395433 A    
C93   C94   1.405631 A    
C112  O18   1.270439 A    
O21   C114  1.273015 A    
C30   H15   1.084176 S    
C42   C50   1.471029 S    
O25   C116  1.304700 A    
C60   C61   1.399916 A    
C9    C10   1.404590 A    
C82   C83   1.404297 A    
O10   C5    1.276993 A    
C76   C77   1.392494 A    
C61   H39   1.083618 S    
C45   H23   1.083627 S    
C97   H62   1.083068 S    
C82   H44   1.083229 S    
C51   C52   1.395688 A    
C81   C82   1.392724 A    
O17   Cr5   1.922826 S    
O19   Cr6   1.923884 S    
C66   H36   1.084068 S    
C122  H73   1.110659 S    
C27   H13   1.083597 S    
C108  C109  1.416564 A    
C21   C26   1.405629 A    
O8    C4    1.274360 A    
C80   H42   1.082970 S    
C90   C91   1.403068 A    
C43   H28   1.083306 S    
