data_mof_unit_5668.cif
_audit_creation_date              2013-03-05T16:48:44-0500
_audit_creation_method            fapswitch 2.2
_symmetry_space_group_name_H-M    P1
_symmetry_Int_Tables_number       1
_space_group_crystal_system       triclinic
_cell_length_a                    27.206733
_cell_length_b                    8.889664
_cell_length_c                    8.102763
_cell_angle_alpha                 90.160715
_cell_angle_beta                  90.121875
_cell_angle_gamma                 90.159624
_cell_volume                      1959.70406533

loop_
_atom_site_label
_atom_site_type_symbol
_atom_site_description
_atom_site_fract_x
_atom_site_fract_y
_atom_site_fract_z
_atom_type_partial_charge
O1    O     O_R   0.500000 0.285350 0.636850 -0.598250
O2    O     O_R   0.500000 0.714650 0.363150 -0.598550
O3    O     O_R   0.500000 0.714650 0.636850 -0.619684
O4    O     O_R   0.500000 0.285350 0.363150 -0.619836
C1    C     C_R   0.499961 0.218048 0.499855 0.968156
C2    C     C_R   0.500036 0.781952 0.500144 0.967787
O5    O     O_R   0.428760 0.500000 0.636860 -0.588372
O6    O     O_R   0.571240 0.500000 0.363140 -0.588795
O7    O     O_R   0.571240 0.500000 0.636860 -0.597746
O8    O     O_R   0.428760 0.500000 0.363140 -0.598613
C3    C     C_R   0.405522 0.498960 0.499770 1.034396
C4    C     C_R   0.594482 0.501070 0.500203 1.034586
Zn1   Zn    Zn3+2 0.500000 0.500000 0.682780 1.096785
Zn2   Zn    Zn3+2 0.500000 0.500000 0.317220 1.096290
C5    C     C_R   0.176089 0.321274 0.416472 0.667063
C6    C     C_R   0.824959 0.671409 0.572051 0.666804
C7    C     C_R   0.176029 0.557000 0.296798 0.665592
C8    C     C_R   0.824989 0.435574 0.691470 0.665403
O9    O     O_2   0.200870 0.190531 0.408530 -0.362075
O10   O     O_2   0.800599 0.802818 0.581582 -0.362615
O11   O     O_2   0.200573 0.634838 0.180699 -0.404732
O12   O     O_2   0.800896 0.358561 0.809262 -0.404718
N1    N     N_R   0.200328 0.454263 0.391773 -0.332851
N2    N     N_R   0.800471 0.539080 0.598153 -0.332662
C9    C     C_R   0.275326 0.619976 0.428831 0.392900
C10   C     C_R   0.724531 0.376365 0.566994 0.392898
C11   C     C_R   0.274619 0.376469 0.558960 0.397205
C12   C     C_R   0.725572 0.619342 0.435672 0.397007
C13   C     C_R   0.326693 0.623801 0.437566 0.273873
C14   C     C_R   0.673112 0.374588 0.561355 0.273237
C15   C     C_R   0.325966 0.379333 0.569961 0.281230
C16   C     C_R   0.674178 0.618497 0.427710 0.281515
C17   C     C_R   0.250125 0.481619 0.455377 -0.104122
C18   C     C_R   0.750181 0.513550 0.538146 -0.102990
C19   C     C_R   0.099734 0.457817 0.401742 -0.155788
C20   C     C_R   0.901042 0.533046 0.582560 -0.155400
C21   C     C_R   0.124881 0.323307 0.440578 -0.128669
C22   C     C_R   0.876021 0.668084 0.544946 -0.128530
C23   C     C_R   0.124926 0.572623 0.315534 -0.125556
C24   C     C_R   0.875940 0.418637 0.669715 -0.126125
C25   C     C_R   0.098462 0.200981 0.506544 0.470733
C26   C     C_R   0.902384 0.789820 0.477452 0.470076
C27   C     C_R   0.098688 0.698543 0.258287 0.478978
C28   C     C_R   0.902091 0.291943 0.725323 0.479255
C29   C     C_R   0.352068 0.498583 0.498324 -0.360309
C30   C     C_R   0.647942 0.500479 0.501222 -0.360183
C31   C     C_R   0.975693 0.379924 0.580532 0.027444
C32   C     C_R   0.024897 0.609951 0.401533 0.027390
C33   C     C_R   0.975976 0.632705 0.456292 0.027549
C34   C     C_R   0.024628 0.357242 0.525845 0.027426
C35   C     C_R   0.951093 0.515225 0.539787 0.094439
C36   C     C_R   0.049545 0.474928 0.442880 0.094386
C37   C     C_R   0.951039 0.273935 0.680586 -0.242118
C38   C     C_R   0.049580 0.715856 0.301442 -0.243247
C39   C     C_R   0.951534 0.771470 0.435361 -0.261291
C40   C     C_R   0.049150 0.218613 0.546952 -0.261406
H1    H     H_    0.969057 0.175496 0.728457 0.178056
H2    H     H_    0.031489 0.813779 0.252597 0.178227
H3    H     H_    0.969825 0.869563 0.387219 0.175900
H4    H     H_    0.030833 0.120220 0.594230 0.175772
C41   C     C_1   0.499983 0.065280 0.499793 -0.073164
C42   C     C_1   0.500012 0.934721 0.500207 -0.073357
N3    N     N_1   0.500000 0.500000 0.073640 0.007297
N4    N     N_1   0.500000 0.500000 0.926360 0.007338
Cl1   Cl    Cl    0.357275 0.232512 0.672812 -0.425254
Cl2   Cl    Cl    0.642978 0.766153 0.325868 -0.424436
Cl3   Cl    Cl    0.358970 0.789571 0.383183 -0.440829
Cl4   Cl    Cl    0.640463 0.210195 0.618193 -0.442226
Cl5   Cl    Cl    0.242699 0.270248 0.709760 -0.346965
Cl6   Cl    Cl    0.757133 0.723808 0.282547 -0.346817
Cl7   Cl    Cl    0.244417 0.795319 0.435461 -0.277347
Cl8   Cl    Cl    0.754612 0.199710 0.558606 -0.278183
Cl9   Cl    Cl    0.125161 0.025513 0.554421 -0.402606
Cl10  Cl    Cl    0.875767 0.965476 0.429806 -0.403589
Cl11  Cl    Cl    0.125432 0.845317 0.142231 -0.386829
Cl12  Cl    Cl    0.875389 0.145104 0.841414 -0.386163

loop_
_geom_bond_atom_site_label_1
_geom_bond_atom_site_label_2
_geom_bond_distance
_ccdc_geom_bond_type
C5    O9    1.346737 S    
C39   H3    1.077274 S    
C10   Cl8   1.774078 S    
O3    C2    1.260420 A    
C11   C17   1.424006 A    
C32   C38   1.413555 A    
C7    N1    1.366944 A    
O1    C1    1.259524 A    
C19   C21   1.415166 A    
C22   C26   1.409034 A    
C32   C36   1.417212 A    
C7    C23   1.406127 A    
C28   Cl12  1.766648 S    
C8    C24   1.406175 A    
C5    C21   1.407387 A    
C20   C24   1.414834 A    
O7    Zn1   1.974373 S    
C13   Cl3   1.770600 S    
C28   C37   1.390474 A    
C10   C18   1.423525 A    
N1    C17   1.467912 S    
C34   C36   1.417012 A    
C9    Cl7   1.773910 S    
C11   Cl5   1.773503 S    
O6    C4    1.276823 A    
C31   C37   1.413504 A    
C5    N1    1.367528 A    
C12   C18   1.423967 A    
C6    N2    1.367508 A    
C21   C25   1.409042 A    
O2    C2    1.259524 A    
O5    C3    1.276963 A    
C31   C34   1.418819 A    
C9    C13   1.399499 A    
C26   Cl10  1.766444 S    
C11   C15   1.399771 A    
C12   C16   1.399609 A    
C4    C30   1.454502 S    
O8    Zn2   1.974376 S    
C37   H1    1.077047 S    
C23   C27   1.408453 A    
C33   C35   1.417277 A    
C33   C39   1.413487 A    
C34   C40   1.413631 A    
C40   H4    1.077222 S    
C13   C29   1.401419 A    
C19   C23   1.414732 A    
C25   C40   1.390865 A    
C26   C39   1.390632 A    
C27   C38   1.390635 A    
C24   C28   1.408419 A    
C6    O10   1.346820 S    
C1    C41   1.358057 S    
C20   C35   1.415061 A    
C32   C33   1.418732 A    
C10   C14   1.399657 A    
C8    N2    1.366943 A    
C3    C29   1.454304 S    
O1    Zn1   1.943095 S    
C27   Cl11  1.766536 S    
C16   Cl2   1.770241 S    
C38   H2    1.077110 S    
C15   Cl1   1.770015 S    
O6    Zn2   1.972819 S    
C8    O12   1.346544 S    
C16   C30   1.402187 A    
C14   C30   1.401679 A    
C12   Cl6   1.773618 S    
O4    C1    1.260419 A    
O3    Zn1   1.945143 S    
C31   C35   1.417535 A    
C2    C42   1.358059 S    
C20   C22   1.415302 A    
Zn1   N4    1.973671 S    
Zn2   N3    1.973671 S    
O4    Zn2   1.945144 S    
C41   C42   1.160643 T    
O2    Zn2   1.943094 S    
O7    C4    1.276346 A    
N2    C18   1.467907 S    
O8    C3    1.276103 A    
C25   Cl9   1.766295 S    
N3    N4    1.193374 T    
O5    Zn1   1.972821 S    
C15   C29   1.402170 A    
C6    C22   1.407302 A    
C19   C36   1.414765 A    
C14   Cl4   1.770619 S    
C9    C17   1.423568 A    
C7    O11   1.346633 S    
