data_mof_unit_39697.cif
_audit_creation_date              2013-03-05T15:44:59-0500
_audit_creation_method            fapswitch 2.2
_symmetry_space_group_name_H-M    P1
_symmetry_Int_Tables_number       1
_space_group_crystal_system       triclinic
_cell_length_a                    17.376047
_cell_length_b                    24.265964
_cell_length_c                    15.17065
_cell_angle_alpha                 90.364027
_cell_angle_beta                  125.845297
_cell_angle_gamma                 89.85811
_cell_volume                      5185.02239855

loop_
_atom_site_label
_atom_site_type_symbol
_atom_site_description
_atom_site_fract_x
_atom_site_fract_y
_atom_site_fract_z
_atom_type_partial_charge
C1    C     C_R   0.353232 0.347080 0.909703 -0.129041
C2    C     C_R   0.648105 0.347677 0.089211 -0.111661
C3    C     C_R   0.850199 0.847963 0.909373 -0.081148
C4    C     C_R   0.187370 0.872675 0.090482 -0.110736
H1    H     H_    0.316116 0.333035 0.826534 0.117762
H2    H     H_    0.686352 0.333954 0.172369 0.105758
H3    H     H_    0.810573 0.834343 0.825695 0.122331
H4    H     H_    0.242772 0.863256 0.173671 0.093318
N1    N     N_R   0.395440 0.396300 0.944370 -0.048012
N2    N     N_R   0.604560 0.396300 0.055630 -0.046865
N3    N     N_R   0.895440 0.896300 0.944370 -0.044410
N4    N     N_R   0.104560 0.896300 0.055630 -0.047350
C5    C     C_R   0.441716 0.651381 0.090055 -0.131730
C6    C     C_R   0.598543 0.625561 0.911237 -0.089306
C7    C     C_R   0.900790 0.125840 0.088101 -0.076610
C8    C     C_R   0.098254 0.124615 0.910098 -0.109604
H5    H     H_    0.487628 0.664937 0.173719 0.099594
H6    H     H_    0.570667 0.633469 0.827979 0.093397
H7    H     H_    0.928163 0.133683 0.171342 0.133353
H8    H     H_    0.070817 0.129658 0.826040 0.099055
N5    N     N_R   0.449890 0.602500 0.055780 -0.044555
N6    N     N_R   0.550110 0.602500 0.944220 -0.044121
N7    N     N_R   0.949890 0.102500 0.055780 -0.050988
N8    N     N_R   0.050110 0.102500 0.944220 -0.042087
C9    C     C_R   0.493383 0.454122 0.262060 0.349263
C10   C     C_R   0.474230 0.453122 0.711162 0.396136
C11   C     C_R   0.022581 0.954625 0.287207 0.363055
C12   C     C_R   0.950443 0.953016 0.698709 0.258629
N9    N     N_R   0.525090 0.470990 0.205640 -0.090444
N10   N     N_R   0.474910 0.470990 0.794360 -0.094053
N11   N     N_R   0.025090 0.970990 0.205640 -0.094940
N12   N     N_R   0.974910 0.970990 0.794360 -0.094473
C13   C     C_R   0.232147 0.545131 0.753907 -0.140600
C14   C     C_R   0.759480 0.545013 0.298411 -0.097550
C15   C     C_R   0.746865 0.044497 0.696588 -0.131136
C16   C     C_R   0.266241 0.044741 0.288745 -0.146720
H9    H     H_    0.210095 0.587593 0.745215 0.111508
H10   H     H_    0.773163 0.586903 0.328883 0.115978
H11   H     H_    0.736950 0.086162 0.666724 0.122197
H12   H     H_    0.287493 0.086689 0.316632 0.103953
N13   N     N_R   0.320240 0.527820 0.794510 -0.050594
N14   N     N_R   0.679760 0.527820 0.205490 -0.050601
N15   N     N_R   0.820240 0.027820 0.794510 -0.048472
N16   N     N_R   0.179760 0.027820 0.205490 -0.049208
C17   C     C_R   0.486038 0.546465 0.253268 -0.097560
C18   C     C_R   0.475048 0.545327 0.711897 -0.192944
C19   C     C_R   0.027702 0.046554 0.289148 -0.131425
C20   C     C_R   0.955723 0.044533 0.700429 -0.201415
H13   H     H_    0.483061 0.589245 0.271377 0.132471
H14   H     H_    0.462434 0.587090 0.682128 0.121797
H15   H     H_    0.040258 0.088814 0.317147 0.147251
H16   H     H_    0.946318 0.086861 0.674130 0.151650
N17   N     N_R   0.524580 0.527810 0.205160 -0.057476
N18   N     N_R   0.475420 0.527810 0.794840 -0.061273
N19   N     N_R   0.024580 0.027810 0.205160 -0.070470
N20   N     N_R   0.975420 0.027810 0.794840 -0.067800
C21   C     C_R   0.233165 0.452935 0.754031 -0.061603
C22   C     C_R   0.758624 0.453096 0.296541 -0.068628
C23   C     C_R   0.746513 0.952851 0.699105 -0.083759
C24   C     C_R   0.263777 0.952877 0.286908 -0.103134
H17   H     H_    0.213044 0.410200 0.746064 0.098209
H18   H     H_    0.771899 0.410632 0.322657 0.109350
H19   H     H_    0.736483 0.910325 0.673033 0.133142
H20   H     H_    0.281689 0.910750 0.314104 0.115231
N21   N     N_R   0.320750 0.470990 0.794990 -0.044312
N22   N     N_R   0.679250 0.470990 0.205010 -0.050415
N23   N     N_R   0.820750 0.970990 0.794990 -0.046345
N24   N     N_R   0.179250 0.970990 0.205010 -0.048227
C25   C     C_R   0.351981 0.651715 0.909112 -0.132608
C26   C     C_R   0.690488 0.624560 0.093404 -0.117804
C27   C     C_R   0.809507 0.124560 0.905756 -0.114504
C28   C     C_R   0.189140 0.126344 0.092196 -0.107442
H21   H     H_    0.315397 0.665716 0.826318 0.093051
H22   H     H_    0.748256 0.630143 0.177873 0.096234
H23   H     H_    0.752117 0.129473 0.820926 0.100190
H24   H     H_    0.245463 0.135048 0.175700 0.096917
N25   N     N_R   0.393580 0.602500 0.942610 -0.043230
N26   N     N_R   0.606420 0.602500 0.057390 -0.044586
N27   N     N_R   0.893580 0.102500 0.942610 -0.044698
N28   N     N_R   0.106420 0.102500 0.057390 -0.045193
C29   C     C_R   0.443840 0.347126 0.090151 -0.109123
C30   C     C_R   0.557744 0.347979 0.908145 -0.078396
C31   C     C_R   0.941956 0.847866 0.090373 -0.081274
C32   C     C_R   0.098637 0.875813 0.909160 -0.063275
H25   H     H_    0.491126 0.332502 0.172036 0.159258
H26   H     H_    0.512679 0.334063 0.825209 0.155971
H27   H     H_    0.988561 0.833425 0.172414 0.166094
H28   H     H_    0.074239 0.872711 0.825803 0.122068
N29   N     N_R   0.451750 0.396300 0.057540 -0.059870
N30   N     N_R   0.548250 0.396300 0.942460 -0.048131
N31   N     N_R   0.951750 0.896300 0.057540 -0.054826
N32   N     N_R   0.048250 0.896300 0.942460 -0.032310
C33   C     C_R   0.383017 0.315128 0.999531 0.025807
C34   C     C_R   0.618134 0.316026 0.997937 0.022454
C35   C     C_R   0.879579 0.816250 0.999688 -0.000121
C36   C     C_R   0.187087 0.861238 0.000501 -0.004322
C37   C     C_R   0.381451 0.683547 0.999824 0.053270
C38   C     C_R   0.688366 0.638190 0.002953 0.048293
C39   C     C_R   0.811118 0.138680 0.995655 0.054340
C40   C     C_R   0.187237 0.138917 0.001402 0.036932
C41   C     C_R   0.466995 0.500951 0.290970 -0.081480
C42   C     C_R   0.478287 0.499121 0.662110 -0.008847
C43   C     C_R   0.021261 0.001653 0.338194 -0.042419
C44   C     C_R   0.940876 0.998066 0.640186 0.058478
C45   C     C_R   0.176452 0.498855 0.729727 0.098475
C46   C     C_R   0.810191 0.498992 0.356618 0.126237
C47   C     C_R   0.700833 0.998331 0.634969 0.088573
C48   C     C_R   0.320984 0.998165 0.335551 0.136185
Ni1   Ni    Ni4+2 0.435420 0.434250 0.870220 0.271394
Ni2   Ni    Ni4+2 0.564580 0.434250 0.129780 0.262915
Ni3   Ni    Ni4+2 0.935420 0.934250 0.870220 0.287002
Ni4   Ni    Ni4+2 0.064580 0.934250 0.129780 0.266549
Ni5   Ni    Ni4+2 0.563400 0.564580 0.128670 0.239262
Ni6   Ni    Ni4+2 0.436600 0.564580 0.871330 0.211437
Ni7   Ni    Ni4+2 0.063400 0.064580 0.128670 0.219940
Ni8   Ni    Ni4+2 0.936600 0.064580 0.871330 0.229725
C49   C     C_2   0.923918 0.457905 0.535011 -0.020952
C50   C     C_2   0.021569 0.454603 0.633613 -0.107182
C51   C     C_2   0.470219 0.957301 0.396069 -0.123192
C52   C     C_2   0.572654 0.953295 0.472468 -0.098861
C53   C     C_2   0.896473 0.500381 0.466462 -0.160758
C54   C     C_2   0.074904 0.499946 0.679412 -0.166317
C55   C     C_2   0.422609 0.996354 0.409183 -0.199351
C56   C     C_2   0.622985 0.998951 0.520899 -0.043260
H29   H     H_    0.879779 0.421397 0.510960 0.145467
H30   H     H_    0.053303 0.413923 0.655072 0.124437
H31   H     H_    0.433217 0.924971 0.335118 0.130562
H32   H     H_    0.601590 0.912571 0.503196 0.130549
H33   H     H_    0.940487 0.536653 0.487560 0.124567
H34   H     H_    0.042170 0.540282 0.663274 0.146976
H35   H     H_    0.458079 0.028459 0.470800 0.133883
H36   H     H_    0.594310 0.039060 0.484447 0.140318
C57   C     C_R   0.289962 0.767461 0.902191 -0.149482
C58   C     C_R   0.841212 0.688048 0.101242 -0.150703
C59   C     C_R   0.656750 0.187530 0.895534 -0.146110
C60   C     C_R   0.342085 0.187169 0.098965 -0.136841
H37   H     H_    0.266983 0.750263 0.824468 0.118870
H38   H     H_    0.861595 0.672952 0.179042 0.119561
H39   H     H_    0.636735 0.171774 0.817948 0.120133
H40   H     H_    0.363215 0.171373 0.176625 0.121609
C61   C     C_R   0.608284 0.232683 0.896184 -0.140501
C62   C     C_R   0.391264 0.231761 0.098438 -0.128720
C63   C     C_R   0.241941 0.812932 0.902398 -0.150502
C64   C     C_R   0.888284 0.733550 0.100231 -0.140687
H41   H     H_    0.552616 0.249963 0.818702 0.135494
H42   H     H_    0.448361 0.248651 0.176036 0.139043
H43   H     H_    0.184064 0.828980 0.824761 0.121430
H44   H     H_    0.943412 0.751408 0.177772 0.138437
C65   C     C_R   0.640396 0.258428 0.995450 0.111470
C66   C     C_R   0.358518 0.257606 0.999739 0.121985
C67   C     C_R   0.260661 0.831745 0.000808 0.136199
C68   C     C_R   0.855717 0.758757 0.000983 0.128144
C69   C     C_R   0.706848 0.231807 0.092963 -0.153511
C70   C     C_R   0.289702 0.231358 0.901532 -0.149966
C71   C     C_R   0.341874 0.813094 0.099230 -0.145091
C72   C     C_R   0.789655 0.731207 0.903314 -0.148523
H45   H     H_    0.729533 0.248489 0.170950 0.137719
H46   H     H_    0.266455 0.248177 0.823800 0.119919
H47   H     H_    0.362877 0.829554 0.176768 0.107412
H48   H     H_    0.767131 0.747512 0.825471 0.124947
C73   C     C_R   0.389976 0.767586 0.099108 -0.151669
C74   C     C_R   0.743210 0.685284 0.904490 -0.117721
C75   C     C_R   0.755381 0.187172 0.091928 -0.075117
C76   C     C_R   0.240899 0.186577 0.902137 -0.152654
H49   H     H_    0.446112 0.750558 0.176682 0.117733
H50   H     H_    0.686943 0.667561 0.827276 0.130579
H51   H     H_    0.813758 0.172081 0.168734 0.197479
H52   H     H_    0.182413 0.170363 0.824640 0.118021
C77   C     C_R   0.357418 0.741205 0.000450 0.126372
C78   C     C_R   0.761416 0.667856 0.003140 0.129403
C79   C     C_R   0.737368 0.168609 0.993989 0.114974
C80   C     C_R   0.260119 0.168522 0.000905 0.125372
C81   C     C_R   0.562846 0.506040 0.580870 0.241630
C82   C     C_R   0.559641 0.508180 0.487599 0.253699
C83   C     C_R   0.900639 0.032158 0.468211 0.222952
C84   C     C_R   0.928501 0.037458 0.399902 0.270778
C85   C     C_R   0.470616 0.504410 0.386058 -0.032009
C86   C     C_R   0.476933 0.499898 0.568786 -0.036554
C87   C     C_R   0.003613 0.004616 0.418112 -0.074322
C88   C     C_R   0.952681 0.996534 0.556135 -0.018435
C89   C     C_R   0.385985 0.499393 0.375545 -0.127343
C90   C     C_R   0.389170 0.497052 0.467933 -0.130793
C91   C     C_R   0.055815 0.970497 0.507562 -0.094540
C92   C     C_R   0.030376 0.966419 0.576847 -0.148116
H53   H     H_    0.318432 0.496119 0.296357 0.148330
H54   H     H_    0.323881 0.492868 0.461391 0.148519
H55   H     H_    0.115778 0.946991 0.523372 0.166812
H56   H     H_    0.072956 0.940865 0.648419 0.127683
N33   N     N_R   0.652061 0.510860 0.686531 0.254690
O1    O     O_R   0.712353 0.549188 0.705547 -0.347409
O2    O     O_R   0.674534 0.476168 0.763213 -0.365770
N34   N     N_R   0.646203 0.510186 0.495701 0.257547
O3    O     O_R   0.708321 0.470865 0.544775 -0.310504
O4    O     O_R   0.668508 0.554410 0.467257 -0.398340
N35   N     N_R   0.819284 0.061254 0.447647 0.248009
O5    O     O_R   0.757073 0.035573 0.454006 -0.388445
O6    O     O_R   0.808396 0.113662 0.426090 -0.341282
N36   N     N_R   0.882705 0.077017 0.314839 0.239973
O7    O     O_R   0.907978 0.128435 0.338185 -0.435200
O8    O     O_R   0.813981 0.062372 0.216297 -0.394516
N37   N     N_R   0.518047 0.402338 0.316829 0.225006
O9    O     O_R   0.597726 0.378765 0.348755 -0.401015
O10   O     O_R   0.468265 0.382547 0.348181 -0.362214
N38   N     N_R   0.439404 0.400324 0.660510 0.210904
O11   O     O_R   0.373281 0.376250 0.661852 -0.451619
O12   O     O_R   0.463400 0.379882 0.600345 -0.345847
N39   N     N_R   0.044039 0.900092 0.330004 0.203856
O13   O     O_R   0.118469 0.874918 0.348899 -0.453726
O14   O     O_R   0.991742 0.876216 0.354187 -0.388456
N40   N     N_R   0.909282 0.899822 0.653613 0.225063
O15   O     O_R   0.894316 0.865563 0.707688 -0.448477
O16   O     O_R   0.877761 0.887431 0.554198 -0.355088

loop_
_geom_bond_atom_site_label_1
_geom_bond_atom_site_label_2
_geom_bond_distance
_ccdc_geom_bond_type
C22   H18   1.081192 S    
C31   H27   1.073014 S    
N3    N31   1.391950 A    
C57   H37   1.080306 S    
C30   C34   1.375922 A    
N12   Ni3   1.879113 S    
C26   N26   1.335789 A    
N37   O9    1.301103 A    
C62   H42   1.079867 S    
C25   N25   1.334225 A    
C14   N14   1.337333 A    
N13   Ni6   1.864904 S    
C4    H4    1.073011 S    
C9    C41   1.385838 A    
C51   C55   1.344798 D    
C27   N27   1.332884 A    
C61   C65   1.405381 A    
C89   C90   1.371456 A    
C71   C73   1.383942 A    
C34   C65   1.455425 S    
C7    H7    1.072898 S    
N10   N18   1.378788 A    
C32   N32   1.334753 A    
N19   Ni7   1.878974 S    
C69   C75   1.376713 A    
C1    H1    1.080116 S    
C70   C76   1.383410 A    
C29   C33   1.377920 A    
C70   H46   1.080639 S    
C3    H3    1.080238 S    
C69   H45   1.080515 S    
C32   C36   1.384403 A    
C15   H11   1.081967 S    
C16   C48   1.378493 A    
C12   N40   1.437373 S    
C20   C44   1.373109 A    
C28   N28   1.338254 A    
C37   C77   1.460707 S    
N39   O14   1.300683 A    
C56   H36   1.087688 S    
C90   H54   1.084310 S    
C11   C43   1.382236 A    
N33   O2    1.301260 A    
C65   C69   1.395299 A    
C60   C62   1.383442 A    
C23   N23   1.330681 A    
C74   H50   1.080439 S    
C52   C56   1.331910 D    
C60   H40   1.080835 S    
N8    N28   1.391950 A    
C84   C87   1.410735 A    
C68   C72   1.399721 A    
N16   Ni7   1.867196 S    
N17   Ni5   1.878974 S    
C26   H22   1.077028 S    
N11   Ni4   1.870543 S    
C25   H21   1.079990 S    
N36   O7    1.300006 A    
C59   C79   1.399657 A    
C4    N4    1.336942 A    
C75   C79   1.398566 A    
C11   N39   1.427114 S    
C24   C48   1.369803 A    
C58   C78   1.398150 A    
C64   H44   1.079348 S    
C9    N37   1.430572 S    
C29   N29   1.332463 A    
C7    N7    1.331578 A    
C72   C74   1.383842 A    
C8    N8    1.329931 A    
C4    C36   1.388441 A    
N27   Ni8   1.872301 S    
C9    N9    1.327239 A    
N37   O10   1.300766 A    
C33   C66   1.460847 S    
C2    H2    1.079996 S    
N7    N27   1.391950 A    
C47   C56   1.443370 S    
C12   N12   1.321724 A    
C83   N35   1.440663 S    
C22   N22   1.334384 A    
C29   H25   1.073751 S    
C6    C38   1.385436 A    
C87   C91   1.385167 A    
N1    Ni1   1.878200 S    
C2    C34   1.386497 A    
C57   C63   1.382814 A    
C19   C43   1.364444 A    
C21   C45   1.386708 A    
N10   Ni1   1.879113 S    
C71   H47   1.080917 S    
N39   O13   1.300804 A    
C14   C46   1.378293 A    
C15   C47   1.372606 A    
C60   C80   1.399784 A    
N9    Ni2   1.870543 S    
C16   H12   1.079314 S    
C3    N3    1.335465 A    
N6    N26   1.391950 A    
N5    Ni5   1.846406 S    
C10   C42   1.370060 A    
N1    N29   1.391950 A    
C89   H53   1.083995 S    
C8    C40   1.384895 A    
C19   H15   1.080124 S    
C30   H26   1.073432 S    
C36   C67   1.461213 S    
C27   C39   1.388381 A    
N29   Ni2   1.836435 S    
C23   C47   1.378212 A    
C92   H56   1.084573 S    
C22   C46   1.381831 A    
N34   O4    1.300728 A    
N31   Ni4   1.836435 S    
C10   N38   1.429973 S    
C91   C92   1.362240 A    
C50   C54   1.339198 D    
C91   H55   1.083771 S    
N15   Ni8   1.864904 S    
C18   C42   1.367317 A    
C12   C44   1.359950 A    
N14   Ni5   1.867196 S    
C83   C84   1.383643 A    
C74   C78   1.404131 A    
N28   Ni7   1.880853 S    
C20   H16   1.081162 S    
C75   H51   1.067721 S    
C8    H8    1.076144 S    
C31   C35   1.378525 A    
C18   N18   1.327143 A    
C17   H13   1.080994 S    
N20   Ni8   1.870365 S    
C1    N1    1.336269 A    
C28   H24   1.073686 S    
N22   Ni2   1.843908 S    
C21   H17   1.078393 S    
C82   C85   1.407937 A    
N21   Ni1   1.846147 S    
C86   C90   1.392034 A    
C17   C41   1.374024 A    
C76   H52   1.080070 S    
N15   N23   1.379079 A    
N38   O12   1.300754 A    
C63   H43   1.080214 S    
N40   O16   1.301009 A    
C11   N11   1.326773 A    
C73   H49   1.080229 S    
C42   C86   1.402379 S    
N35   O6    1.300632 A    
C16   N16   1.339974 A    
N26   Ni5   1.880854 S    
C48   C55   1.434559 S    
C49   C53   1.342243 D    
N25   Ni6   1.872301 S    
C2    N2    1.332636 A    
C25   C37   1.384122 A    
N4    Ni4   1.869484 S    
C3    C35   1.386491 A    
C15   N15   1.335280 A    
C40   C80   1.461409 S    
C57   C77   1.401376 A    
C58   C64   1.381220 A    
C19   N19   1.321020 A    
C28   C40   1.394040 A    
N23   Ni3   1.846147 S    
C20   N20   1.328831 A    
C76   C80   1.403617 A    
C81   N33   1.440299 S    
C55   H35   1.085791 S    
C14   H10   1.081670 S    
C6    H6    1.073737 S    
N4    N32   1.391951 A    
C32   H28   1.075002 S    
C53   H33   1.084024 S    
C58   H38   1.080718 S    
N13   N21   1.379079 A    
C51   C52   1.450971 S    
C52   H32   1.084221 S    
N32   Ni3   1.838546 S    
N8    Ni8   1.844271 S    
C83   C88   1.393660 A    
C72   H48   1.080819 S    
C61   H41   1.079704 S    
C31   N31   1.328943 A    
C18   H14   1.080642 S    
N6    Ni6   1.844271 S    
C23   H19   1.080130 S    
C67   C71   1.401173 A    
C30   N30   1.328523 A    
C13   C45   1.384381 A    
C5    H5    1.079667 S    
C24   H20   1.079569 S    
C59   H39   1.080748 S    
C13   N13   1.339685 A    
N34   O3    1.300962 A    
C62   C66   1.404065 A    
C73   C77   1.402818 A    
C64   C68   1.404802 A    
C49   C50   1.466725 S    
C5    N5    1.332413 A    
C27   H23   1.078491 S    
C6    N6    1.330724 A    
C44   C88   1.405372 S    
C7    C39   1.391257 A    
N9    N17   1.378837 A    
C81   C86   1.401635 A    
C85   C89   1.388783 A    
N18   Ni6   1.870365 S    
C46   C53   1.448879 S    
C63   C67   1.402298 A    
N7    Ni7   1.846405 S    
N12   N20   1.378788 A    
C45   C54   1.455819 S    
N2    Ni2   1.869484 S    
C43   C87   1.415393 S    
C5    C37   1.382127 A    
N33   O1    1.301231 A    
C13   H9    1.080032 S    
N16   N24   1.379031 A    
C24   N24   1.326863 A    
C17   N17   1.323950 A    
N35   O5    1.300927 A    
C38   C78   1.459330 S    
C26   C38   1.392893 A    
C59   C61   1.383790 A    
C84   N36   1.424513 S    
N38   O11   1.301019 A    
N2    N30   1.391951 A    
C1    C33   1.382580 A    
N40   O15   1.300511 A    
C66   C70   1.400149 A    
N5    N25   1.391950 A    
N14   N22   1.379031 A    
N3    Ni3   1.878200 S    
N36   O8    1.300651 A    
C35   C68   1.459928 S    
C50   H30   1.084252 S    
N30   Ni1   1.838546 S    
N11   N19   1.378837 A    
C81   C82   1.384410 A    
C49   H29   1.085199 S    
C54   H34   1.085655 S    
C41   C85   1.408592 S    
N24   Ni4   1.843908 S    
C88   C92   1.398763 A    
C39   C79   1.458761 S    
C82   N34   1.436517 S    
C21   N21   1.336586 A    
C10   N10   1.325446 A    
C51   H31   1.086678 S    
