data_mof_unit_56498.cif
_audit_creation_date              2012-12-10T18:33:43-0500
_audit_creation_method            fapswitch 2.2
_symmetry_space_group_name_H-M    P1
_symmetry_Int_Tables_number       1
_space_group_crystal_system       triclinic
_cell_length_a                    10.485432
_cell_length_b                    15.106124
_cell_length_c                    15.43267
_cell_angle_alpha                 80.167086
_cell_angle_beta                  91.289806
_cell_angle_gamma                 103.557372
_cell_volume                      2341.03284694

loop_
_atom_site_label
_atom_site_type_symbol
_atom_type_description
_atom_site_fract_x
_atom_site_fract_y
_atom_site_fract_z
_atom_type_partial_charge
C1    C     C_R   0.481876 0.441091 0.661821 0.930564
C2    C     C_R   0.518790 0.558908 0.338102 0.858579
C3    C     C_R   0.434151 0.451472 0.813438 0.360807
C4    C     C_R   0.561798 0.544988 0.185626 0.370216
C5    C     C_R   0.474588 0.439253 0.901514 -0.078818
C6    C     C_R   0.515725 0.555820 0.099183 0.002292
C7    C     C_R   0.514736 0.356649 0.935584 0.112149
C8    C     C_R   0.478135 0.639354 0.064839 0.084626
C9    C     C_R   0.481475 0.507878 0.955125 0.064366
C10   C     C_R   0.507482 0.486885 0.045742 0.113799
C11   C     C_R   0.518066 0.396240 0.080864 -0.154249
C12   C     C_R   0.471504 0.598588 0.919850 -0.235047
C13   C     C_R   0.528971 0.334242 0.026394 -0.242718
C14   C     C_R   0.462108 0.661077 0.974116 -0.223194
C15   C     C_R   0.615188 0.813821 0.673586 0.112176
C16   C     C_R   0.383262 0.185474 0.326983 0.114702
C17   C     C_R   0.624423 0.739378 0.633418 -0.028918
C18   C     C_R   0.374909 0.260322 0.366798 -0.033689
C19   C     C_R   0.533576 0.802092 0.501284 0.261145
C20   C     C_R   0.466220 0.197907 0.498922 0.262826
C21   C     C_R   0.540126 0.885077 0.533991 -0.075310
C22   C     C_R   0.459334 0.114766 0.466435 -0.075913
C23   C     C_R   0.741667 0.500336 0.500225 0.854548
C24   C     C_R   0.258354 0.499671 0.499808 0.883552
C25   C     C_R   0.555996 0.882709 0.626170 0.086277
C26   C     C_R   0.442874 0.116841 0.374349 0.086994
C27   C     C_R   0.519602 0.966756 0.480482 0.045062
C28   C     C_R   0.479996 0.033155 0.519994 0.044892
C29   C     C_R   0.455474 0.013874 0.611256 -0.237907
C30   C     C_R   0.544081 0.986069 0.389206 -0.238093
C31   C     C_R   0.502319 0.944737 0.665678 0.216586
C32   C     C_R   0.496566 0.054874 0.334807 0.216420
C33   C     C_3   0.929741 0.417819 0.483635 -0.181306
C34   C     C_3   0.070372 0.582224 0.516574 -0.171628
C35   C     C_3   0.020260 0.432488 0.562247 0.228278
C36   C     C_3   0.979877 0.567611 0.437962 0.223606
C37   C     C_3   0.123020 0.499685 0.499955 -0.027432
C38   C     C_3   0.877051 0.500378 0.500207 -0.026264
C39   C     C_3   0.034862 0.486182 0.420554 -0.227777
C40   C     C_3   0.965220 0.513902 0.579624 -0.215738
C41   C     C_R   0.478091 0.403803 0.755318 -0.133830
C42   C     C_R   0.524751 0.596046 0.244303 -0.216726
C43   C     C_R   0.539419 0.298992 0.877598 0.223611
C44   C     C_R   0.459702 0.699358 0.122223 0.213286
C45   C     C_R   0.529465 0.327301 0.787069 -0.316863
C46   C     C_R   0.474658 0.673132 0.212502 -0.268877
H1    H     H_    0.337181 0.316432 0.330724 0.154087
H2    H     H_    0.662026 0.683190 0.669446 0.152900
H3    H     H_    0.401789 0.054314 0.640871 0.166732
H4    H     H_    0.598028 0.945825 0.359551 0.166438
H5    H     H_    0.869412 0.350464 0.471040 0.164705
H6    H     H_    0.130724 0.649567 0.529186 0.164304
H7    H     H_    0.067441 0.475600 0.355911 0.151378
H8    H     H_    0.932629 0.524495 0.644259 0.148415
H9    H     H_    0.547954 0.268543 0.056375 0.159096
H10   H     H_    0.444225 0.727028 0.943885 0.160540
H11   H     H_    0.444550 0.711667 0.257885 0.172321
H12   H     H_    0.563469 0.290568 0.741539 0.172444
H13   H     H_    0.518340 0.371368 0.150653 0.211218
H14   H     H_    0.470078 0.622892 0.849974 0.209365
N1    N     N_R   0.574200 0.731700 0.552740 -0.120934
N2    N     N_R   0.425800 0.268300 0.447260 -0.119554
O1    O     O_R   0.462600 0.383110 0.605620 -0.630066
O2    O     O_R   0.537400 0.616890 0.394380 -0.614980
O3    O     O_R   0.510210 0.531900 0.639510 -0.575725
O4    O     O_R   0.489790 0.468100 0.360490 -0.598173
O5    O     O_R   0.662240 0.425610 0.483080 -0.633873
O6    O     O_R   0.337760 0.574390 0.516920 -0.622868
O7    O     O_R   0.709860 0.574400 0.516970 -0.615731
O8    O     O_R   0.290140 0.425600 0.483030 -0.613933
Zn1   Zn    Zn3+2 0.468210 0.400660 0.477370 0.933561
Zn2   Zn    Zn3+2 0.531790 0.599340 0.522630 0.947014
C47   C     C_3   0.046771 0.355911 0.632977 -0.895625
H15   H     H_    0.954046 0.318796 0.669037 0.235503
H16   H     H_    0.086394 0.306462 0.602210 0.251098
H17   H     H_    0.119240 0.386071 0.679792 0.258911
C48   C     C_3   0.954208 0.644707 0.367502 -0.904601
H18   H     H_    0.047408 0.682118 0.332167 0.240553
H19   H     H_    0.882639 0.615120 0.319999 0.234710
H20   H     H_    0.913985 0.693788 0.398410 0.253632
C49   C     C_3   0.537688 0.216548 0.582200 -0.861531
H21   H     H_    0.465281 0.209958 0.635505 0.229456
H22   H     H_    0.605534 0.170815 0.602341 0.216066
H23   H     H_    0.603611 0.285375 0.573181 0.277257
C50   C     C_3   0.462355 0.783575 0.417933 -0.860538
H24   H     H_    0.394228 0.829125 0.397903 0.216188
H25   H     H_    0.535107 0.790609 0.364763 0.227580
H26   H     H_    0.396802 0.714618 0.426685 0.277048
C51   C     C_3   0.677435 0.819437 0.762135 -0.920245
H27   H     H_    0.745518 0.772592 0.776150 0.235691
H28   H     H_    0.736915 0.890449 0.763149 0.250949
H29   H     H_    0.602220 0.797976 0.815501 0.248816
C52   C     C_3   0.319272 0.178900 0.239089 -0.928025
H30   H     H_    0.251009 0.225636 0.225299 0.234558
H31   H     H_    0.393422 0.199785 0.185098 0.246802
H32   H     H_    0.259761 0.107708 0.239008 0.252733
O9    O     O_3   0.648039 0.488708 0.209939 -0.779739
H33   H     H_    0.694572 0.504984 0.263691 0.335562
O10   O     O_3   0.346433 0.504615 0.782953 -0.781749
H34   H     H_    0.288080 0.504029 0.832851 0.334273
C53   C     C_3   0.585307 0.211756 0.909683 -0.922094
H35   H     H_    0.602398 0.177091 0.854499 0.242351
H36   H     H_    0.678833 0.228301 0.945233 0.244331
H37   H     H_    0.509718 0.162311 0.954366 0.239171
C54   C     C_3   0.415598 0.787291 0.089972 -0.924235
H38   H     H_    0.402864 0.823716 0.144804 0.241673
H39   H     H_    0.490088 0.835064 0.043325 0.240854
H40   H     H_    0.320094 0.771174 0.056580 0.243808
C55   C     C_3   0.476447 0.932985 0.763363 -0.917149
H41   H     H_    0.412738 0.977729 0.778846 0.233817
H42   H     H_    0.424090 0.860685 0.788993 0.245386
H43   H     H_    0.569232 0.953086 0.798490 0.246672
C56   C     C_3   0.521709 0.066420 0.237062 -0.916546
H44   H     H_    0.585622 0.021869 0.221446 0.233599
H45   H     H_    0.428653 0.045925 0.202328 0.246527
H46   H     H_    0.573472 0.138787 0.211143 0.246759

loop_
_geom_bond_atom_site_label_1
_geom_bond_atom_site_label_2
_ccdc_geom_bond_type
C25   C31   A    
C14   H10   S    
C26   C32   A    
C53   H35   S    
C34   C37   S    
C47   H15   S    
C23   O7    A    
C17   H2    S    
C18   H1    S    
O9    H33   S    
C24   O8    A    
C29   H3    S    
C48   H18   S    
C54   H39   S    
C16   C52   S    
C52   H30   S    
C34   C40   S    
C28   C29   A    
C35   C37   S    
C19   N1    A    
C36   C48   S    
C55   H42   S    
C50   H24   S    
C48   H20   S    
C42   C46   A    
C23   O5    A    
C17   N1    A    
C35   C47   S    
O10   H34   S    
C44   C46   A    
C1    O3    A    
O8    Zn1   S    
C7    C43   A    
C32   C56   S    
C51   H28   S    
C9    C10   A    
C34   C36   S    
C56   H46   S    
C50   H25   S    
C30   H4    S    
C52   H31   S    
C38   C40   S    
C22   C28   A    
C4    O9    S    
C27   C30   A    
C29   C31   A    
C47   H16   S    
C11   H13   S    
C1    O1    A    
C49   H22   S    
C2    O2    A    
C49   H21   S    
C48   H19   S    
C16   C26   A    
C54   H40   S    
C45   H12   S    
C4    C6    A    
C55   H43   S    
C5    C7    A    
C18   N2    A    
C6    C8    A    
C19   C50   S    
C44   C54   S    
O7    Zn2   S    
C43   C53   S    
C20   N2    A    
C5    C9    A    
C15   C51   S    
O4    Zn1   S    
O6    Zn2   S    
C24   C37   S    
C31   C55   S    
C16   C18   A    
C33   C39   S    
C51   H29   S    
C43   C45   A    
N1    Zn2   S    
C1    C41   S    
C12   C14   A    
C52   H32   S    
C40   H8    S    
C46   H11   S    
C47   H17   S    
C20   C22   A    
O3    Zn2   S    
C49   H23   S    
C56   H44   S    
C50   H26   S    
C15   C17   A    
C21   C25   A    
C3    C41   A    
C8    C14   A    
C19   C21   A    
C36   C39   S    
C8    C44   A    
O1    Zn1   S    
C3    C5    A    
C6    C10   A    
C2    O4    A    
C33   H5    S    
C23   C38   S    
C54   H38   S    
C34   H6    S    
C33   C38   S    
C36   C38   S    
C35   C40   S    
C37   C39   S    
C55   H41   S    
C30   C32   A    
C11   C13   A    
C39   H7    S    
C4    C42   A    
C2    C42   S    
C33   C35   S    
N2    Zn1   S    
O5    Zn1   S    
O2    Zn2   S    
C21   C27   A    
C9    C12   A    
C15   C25   A    
C10   C11   A    
C24   O6    A    
C12   H14   S    
C3    O10   S    
C7    C13   A    
C53   H36   S    
C22   C26   A    
C27   C28   A    
C41   C45   A    
C53   H37   S    
C13   H9    S    
C51   H27   S    
C20   C49   S    
C56   H45   S    
