data_mof_unit_57196.cif
_audit_creation_date              2013-03-05T16:48:31-0500
_audit_creation_method            fapswitch 2.2
_symmetry_space_group_name_H-M    P1
_symmetry_Int_Tables_number       1
_space_group_crystal_system       triclinic
_cell_length_a                    10.886065
_cell_length_b                    14.645409
_cell_length_c                    14.692742
_cell_angle_alpha                 65.657527
_cell_angle_beta                  102.250059
_cell_angle_gamma                 102.397156
_cell_volume                      2064.22763947

loop_
_atom_site_label
_atom_site_type_symbol
_atom_site_description
_atom_site_fract_x
_atom_site_fract_y
_atom_site_fract_z
_atom_type_partial_charge
O1    O     O_R   0.455540 0.022090 0.338120 -0.588119
O2    O     O_R   0.544460 0.977910 0.661880 -0.588133
O3    O     O_R   0.512510 0.160150 0.379180 -0.602737
O4    O     O_R   0.487490 0.839850 0.620820 -0.602736
C1    C     C_R   0.476958 0.119594 0.312526 0.820369
C2    C     C_R   0.523042 0.880406 0.687474 0.820339
O5    O     O_R   0.291160 0.930970 0.479480 -0.537699
O6    O     O_R   0.708840 0.069030 0.520520 -0.537682
O7    O     O_R   0.348130 0.069020 0.520540 -0.596077
O8    O     O_R   0.651870 0.930980 0.479460 -0.596078
C3    C     C_R   0.262550 0.002259 0.498492 0.866598
C4    C     C_R   0.737450 0.997742 0.501507 0.866560
Cu1   Cu    Cu3+1 0.466270 0.918260 0.475690 0.986981
Cu2   Cu    Cu3+1 0.533730 0.081740 0.524310 0.986990
H1    H     H_    0.429185 0.223179 0.780829 0.189304
H2    H     H_    0.570809 0.776825 0.219170 0.189303
C5    C     C_R   0.342811 0.079622 0.769937 0.369397
C6    C     C_R   0.657188 0.920383 0.230057 0.369395
C7    C     C_R   0.253083 0.032887 0.712451 -0.165948
C8    C     C_R   0.746917 0.967118 0.287542 -0.165954
H3    H     H_    0.237165 0.951202 0.736840 0.159720
H4    H     H_    0.762837 0.048804 0.263151 0.159721
C9    C     C_R   0.185846 0.091727 0.621756 0.135189
C10   C     C_R   0.814153 0.908279 0.378238 0.135216
C11   C     C_R   0.207264 0.197634 0.589132 -0.039421
C12   C     C_R   0.792731 0.802372 0.410865 -0.039417
C13   C     C_R   0.293320 0.244144 0.647572 -0.204119
C14   C     C_R   0.706675 0.755861 0.352427 -0.204109
H5    H     H_    0.307833 0.325746 0.623050 0.164441
H6    H     H_    0.692159 0.674258 0.376950 0.164438
C15   C     C_R   0.361806 0.185675 0.737042 -0.200067
C16   C     C_R   0.638190 0.814330 0.262955 -0.200058
C17   C     C_R   0.963363 0.033676 0.566071 0.328100
C18   C     C_R   0.036639 0.966337 0.433916 0.328081
C19   C     C_R   0.871091 0.994036 0.503534 -0.242487
C20   C     C_R   0.128910 0.005970 0.496460 -0.242477
C21   C     C_R   0.907923 0.956893 0.439878 -0.147418
C22   C     C_R   0.092078 0.043113 0.560114 -0.147413
C23   C     C_R   0.458966 0.187154 0.205711 -0.072298
C24   C     C_R   0.541034 0.812846 0.794289 -0.072301
C25   C     C_R   0.387966 0.216158 0.029953 -0.084618
C26   C     C_R   0.612035 0.783842 0.970047 -0.084615
C27   C     C_R   0.402904 0.149899 0.130604 -0.053850
C28   C     C_R   0.597097 0.850101 0.869396 -0.053864
C29   C     C_R   0.496128 0.291281 0.179613 -0.222445
C30   C     C_R   0.503870 0.708719 0.820387 -0.222443
C31   C     C_R   0.476539 0.360441 0.079277 0.099637
C32   C     C_R   0.523460 0.639559 0.920723 0.099637
C33   C     C_R   0.424788 0.320737 0.003762 0.137348
C34   C     C_R   0.575211 0.679263 0.996238 0.137347
C35   C     C_R   0.508072 0.467298 0.051940 0.080193
C36   C     C_R   0.491926 0.532703 0.948060 0.080193
C37   C     C_R   0.446068 0.489002 0.875047 -0.154751
C38   C     C_R   0.553930 0.510998 0.124953 -0.154750
C39   C     C_R   0.411317 0.385419 0.902763 -0.136375
C40   C     C_R   0.588682 0.614582 0.097237 -0.136378
H7    H     H_    0.628295 0.930311 0.850477 0.193991
H8    H     H_    0.371707 0.069689 0.149523 0.193994
H9    H     H_    0.347162 0.185670 0.972508 0.162998
H10   H     H_    0.652839 0.814331 0.027492 0.162998
H11   H     H_    0.436152 0.532178 0.795028 0.131925
H12   H     H_    0.563846 0.467822 0.204972 0.131927
N1    N     N_R   0.584450 0.204570 0.560790 -0.199395
N2    N     N_R   0.415550 0.795430 0.439210 -0.199397
C41   C     C_R   0.686589 0.273734 0.683198 -0.210962
C42   C     C_R   0.313407 0.726265 0.316804 -0.210966
C43   C     C_R   0.664579 0.196909 0.647002 0.138779
C44   C     C_R   0.335417 0.803089 0.353000 0.138733
C45   C     C_R   0.527508 0.288705 0.505312 0.032657
C46   C     C_R   0.472492 0.711295 0.494687 0.032656
C47   C     C_R   0.548169 0.371227 0.536680 -0.036829
C48   C     C_R   0.451829 0.628772 0.463321 -0.036833
C49   C     C_R   0.624465 0.359748 0.631012 0.003929
C50   C     C_R   0.375532 0.640251 0.368989 0.003933
C51   C     C_R   0.491790 0.461933 0.479868 0.007535
C52   C     C_R   0.508208 0.538066 0.520133 0.007532
C53   C     C_R   0.578269 0.520405 0.616847 -0.296453
C54   C     C_R   0.421728 0.479594 0.383154 -0.296452
C55   C     C_R   0.635880 0.433444 0.671923 0.324367
C56   C     C_R   0.364117 0.566554 0.328078 0.324366
H13   H     H_    0.538859 0.713159 0.559687 0.131954
H14   H     H_    0.461143 0.286842 0.440311 0.131954
H15   H     H_    0.291961 0.870952 0.310023 0.188871
H16   H     H_    0.708034 0.129046 0.689980 0.188859
H17   H     H_    0.750769 0.264204 0.752558 0.215022
H18   H     H_    0.249225 0.735793 0.247445 0.215024
N3    N     N_R   0.700175 0.419212 0.772001 0.115159
O9    O     O_R   0.770610 0.495506 0.789847 -0.334246
O10   O     O_R   0.669432 0.336548 0.847958 -0.337887
N4    N     N_R   0.299820 0.580787 0.228001 0.115159
O11   O     O_R   0.229386 0.504492 0.210155 -0.334243
O12   O     O_R   0.330562 0.663451 0.152043 -0.337887
H19   H     H_    0.586465 0.571651 0.654049 0.163841
H20   H     H_    0.413532 0.428348 0.345952 0.163842
N5    N     N_R   0.414761 0.019813 0.861010 0.116175
O13   O     O_R   0.521472 0.060492 0.897429 -0.307819
O14   O     O_R   0.375841 0.923826 0.906763 -0.314700
N6    N     N_R   0.585239 0.980191 0.138984 0.116173
O15   O     O_R   0.478528 0.939512 0.102564 -0.307816
O16   O     O_R   0.624160 0.076178 0.093230 -0.314700
H21   H     H_    0.156104 0.243910 0.519041 0.153517
H22   H     H_    0.843891 0.756097 0.480957 0.153497
N7    N     N_R   0.926822 0.056669 0.641934 0.131123
O17   O     O_R   0.868426 0.985317 0.713452 -0.377129
O18   O     O_R   0.945478 0.149378 0.636645 -0.376432
N8    N     N_R   0.073182 0.943369 0.358038 0.131132
O19   O     O_R   0.131654 0.014719 0.286568 -0.377151
O20   O     O_R   0.054465 0.850677 0.363271 -0.376425
H23   H     H_    0.374809 0.355630 0.844279 0.140482
H24   H     H_    0.625190 0.644370 0.155721 0.140483
H25   H     H_    0.457988 0.683887 0.760597 0.150735
H26   H     H_    0.542010 0.316113 0.239403 0.150735

loop_
_geom_bond_atom_site_label_1
_geom_bond_atom_site_label_2
_geom_bond_distance
_ccdc_geom_bond_type
O5    Cu1   1.969142 S    
C42   C44   1.389107 A    
N3    O9    1.301352 A    
C51   C52   1.427773 A    
C13   H5    1.082191 S    
C18   C21   1.396096 A    
C7    C9    1.401541 A    
N5    O13   1.300994 A    
C48   C52   1.434124 A    
C55   N3    1.438304 S    
C29   H26   1.073606 S    
C31   C33   1.418616 A    
O5    C3    1.296934 A    
O1    C1    1.298642 A    
N2    C44   1.354238 A    
C3    C20   1.461000 S    
C19   C21   1.415480 A    
C10   C12   1.403257 A    
C54   C56   1.395754 A    
N8    O19   1.301245 A    
C42   C50   1.407711 A    
C41   C49   1.407710 A    
C29   C31   1.404665 A    
C40   H24   1.084594 S    
O4    Cu1   1.950701 S    
C45   C47   1.422011 A    
C46   H13   1.074712 S    
C45   H14   1.074711 S    
C27   H8    1.082641 S    
C17   C19   1.409961 A    
C37   H11   1.075332 S    
N1    C45   1.361066 A    
C41   C43   1.389106 A    
C5    N5    1.433467 S    
N2    C46   1.361065 A    
C18   C20   1.409963 A    
C23   C29   1.398276 A    
C32   C34   1.418616 A    
C43   H16   1.080774 S    
C50   C56   1.409687 A    
C30   H25   1.073604 S    
C39   H23   1.084592 S    
C25   C27   1.392029 A    
O2    C2    1.298640 A    
C26   C28   1.392029 A    
C25   C33   1.403767 A    
N1    C43   1.354237 A    
C37   C39   1.385637 A    
C38   C40   1.385636 A    
C13   C15   1.395503 A    
C35   C36   1.425198 A    
C18   N8    1.438453 S    
C8    C10   1.401541 A    
C14   C16   1.395504 A    
C52   C53   1.410537 A    
C25   H9    1.084199 S    
O4    C2    1.296791 A    
C26   H10   1.084197 S    
C47   C49   1.420718 A    
C31   C35   1.427561 A    
C38   H12   1.075332 S    
C33   C39   1.389028 A    
C34   C40   1.389028 A    
C24   C30   1.398276 A    
O7    Cu2   1.979749 S    
N4    O12   1.301490 A    
C24   C28   1.398402 A    
C28   H7    1.082641 S    
O6    C4    1.296934 A    
C10   C21   1.482003 S    
C49   C55   1.409688 A    
C53   C55   1.395753 A    
N7    O18   1.300813 A    
C4    C19   1.461007 S    
C41   H17   1.081024 S    
O7    C3    1.292590 A    
O3    Cu2   1.950701 S    
O8    C4    1.292594 A    
C26   C34   1.403768 A    
C48   C50   1.420718 A    
C8    H4    1.083302 S    
N6    O16   1.301422 A    
C1    C23   1.467315 S    
C11   C13   1.394872 A    
C5    C15   1.405139 A    
C2    C24   1.467315 S    
C6    C16   1.405139 A    
C36   C37   1.418163 A    
C53   H19   1.076457 S    
O6    Cu2   1.969143 S    
C7    H3    1.083301 S    
C17   N7    1.438440 S    
C44   H15   1.080773 S    
O3    C1    1.296791 A    
O8    Cu1   1.979749 S    
C42   H18   1.081024 S    
C23   C27   1.398402 A    
N5    O14   1.301423 A    
H1    C15   1.082436 S    
H2    C16   1.082436 S    
C9    C22   1.482008 S    
C12   C14   1.394873 A    
C17   C22   1.396083 A    
C35   C38   1.418162 A    
C20   C22   1.415473 A    
C12   H22   1.083211 S    
C47   C51   1.434125 A    
C11   H21   1.083212 S    
N4    O11   1.301351 A    
Cu1   N2    2.017665 S    
N8    O20   1.300800 A    
C54   H20   1.076457 S    
Cu2   N1    2.017665 S    
C14   H6    1.082191 S    
C5    C7    1.405482 A    
C6    C8    1.405482 A    
C9    C11   1.403257 A    
C56   N4    1.438304 S    
O2    Cu2   1.963105 S    
C51   C54   1.410538 A    
C30   C32   1.404664 A    
C32   C36   1.427560 A    
O1    Cu1   1.963105 S    
N6    O15   1.300993 A    
N7    O17   1.301268 A    
N3    O10   1.301489 A    
C46   C48   1.422009 A    
C6    N6    1.433468 S    
Cu1   Cu2   2.685959 S    
