data_mof_unit_5892.cif
_audit_creation_date              2012-12-10T17:02:15-0500
_audit_creation_method            fapswitch 2.2
_symmetry_space_group_name_H-M    P1
_symmetry_Int_Tables_number       1
_space_group_crystal_system       triclinic
_cell_length_a                    10.700897
_cell_length_b                    10.732336
_cell_length_c                    10.087494
_cell_angle_alpha                 89.369105
_cell_angle_beta                  90.180914
_cell_angle_gamma                 89.503152
_cell_volume                      1158.38460676

loop_
_atom_site_label
_atom_site_type_symbol
_atom_type_description
_atom_site_fract_x
_atom_site_fract_y
_atom_site_fract_z
_atom_type_partial_charge
C1    C     C_R   0.499955 0.262801 0.499987 0.961419
C2    C     C_2   0.502976 0.130534 0.499837 -0.267815
C3    C     C_2   0.425432 0.564279 0.927419 0.059023
C4    C     C_R   0.260715 0.497736 0.500297 0.877922
C5    C     C_2   0.410268 0.539341 0.073571 -0.138500
C6    C     C_R   0.495427 0.736966 0.499332 0.932574
C7    C     C_R   0.739367 0.493683 0.500280 0.887048
C8    C     C_R   0.132888 0.259498 0.508187 0.083489
C9    C     C_R   0.075784 0.153418 0.458279 -0.213925
C10   C     C_R   0.946250 0.152963 0.443605 0.196773
C11   C     C_R   0.878167 0.255691 0.490354 0.082577
C12   C     C_R   0.068264 0.374649 0.499222 0.044850
C13   C     C_R   0.937410 0.372950 0.493756 -0.003678
C14   C     C_R   0.346777 0.664559 0.870848 0.135236
C15   C     C_R   0.393063 0.786173 0.861959 -0.140321
C16   C     C_R   0.314876 0.884015 0.820114 -0.146848
C17   C     C_R   0.190242 0.861016 0.787148 -0.093231
C18   C     C_R   0.143036 0.740382 0.798418 -0.156780
C19   C     C_R   0.220690 0.642448 0.841295 -0.114526
C20   C     C_R   0.128607 0.490585 0.502527 -0.056452
C21   C     C_R   0.062449 0.602620 0.504726 -0.214157
C22   C     C_R   0.934081 0.601065 0.506302 -0.184941
C23   C     C_R   0.872074 0.487665 0.501433 -0.052521
C24   C     C_2   0.486657 0.934108 0.386466 -0.125224
C25   C     C_2   0.477957 0.868025 0.498634 -0.310386
C26   C     C_2   0.479542 0.068378 0.388486 -0.136378
H1    H     H_    0.110500 0.691152 0.506417 0.154470
H2    H     H_    0.489117 0.805268 0.888531 0.141505
H3    H     H_    0.351181 0.977595 0.813493 0.176240
H4    H     H_    0.129895 0.936721 0.754205 0.176725
H5    H     H_    0.046039 0.722937 0.774910 0.160632
H6    H     H_    0.182658 0.549649 0.851839 0.161868
H7    H     H_    0.528544 0.086009 0.592864 0.179629
H8    H     H_    0.321889 0.562769 0.119922 0.167881
H9    H     H_    0.588925 0.503469 0.105870 0.205743
H10   H     H_    0.126964 0.066020 0.455144 0.180234
H11   H     H_    0.882687 0.688443 0.510181 0.170145
H12   H     H_    0.501586 0.889961 0.291319 0.185705
H13   H     H_    0.454799 0.908915 0.592870 0.155766
H14   H     H_    0.459684 0.116349 0.295258 0.190310
I1    I     I_    0.555896 0.322181 0.916480 -0.222070
I2    I     I_    0.233959 0.220597 0.684336 -0.377398
I3    I     I_    0.857747 0.982697 0.398001 -0.388326
I4    I     I_    0.779473 0.207576 0.663611 -0.281599
N1    N     N_2   0.501340 0.501330 0.852150 -0.043458
N2    N     N_2   0.501380 0.501360 0.147810 -0.184344
O1    O     O_R   0.499980 0.319060 0.613040 -0.558635
O2    O     O_R   0.500020 0.319100 0.386900 -0.609707
O3    O     O_R   0.316750 0.499980 0.613090 -0.600079
O4    O     O_R   0.316790 0.500020 0.386950 -0.621585
O5    O     O_R   0.499980 0.680900 0.613100 -0.621372
O6    O     O_R   0.500020 0.680940 0.386960 -0.616412
O7    O     O_R   0.683210 0.499980 0.613050 -0.584425
O8    O     O_R   0.683250 0.500020 0.386910 -0.612142
Zn1   Zn    Zn3+2 0.499970 0.499970 0.650990 1.031517
Zn2   Zn    Zn3+2 0.500030 0.500030 0.349010 0.977950

loop_
_geom_bond_atom_site_label_1
_geom_bond_atom_site_label_2
_ccdc_geom_bond_type
C9    H10   S    
C24   H12   S    
C1    O2    A    
C22   H11   S    
N1    Zn1   S    
C6    O5    A    
O4    Zn2   S    
C9    C10   A    
C10   I3    S    
C4    O3    A    
C8    C12   A    
C5    H8    S    
C12   C20   A    
C17   C18   A    
C21   H1    S    
C11   I4    S    
C2    C26   D    
C21   C22   A    
C24   C25   D    
C17   H4    S    
C11   C13   A    
C26   H14   S    
C15   H2    S    
C16   C17   A    
C3    C14   S    
C7    C23   S    
C19   H6    S    
C2    H7    S    
C24   C26   S    
C1    C2    S    
O5    Zn1   S    
O7    Zn1   S    
O8    Zn2   S    
C6    C25   S    
C10   C11   A    
C7    O7    A    
C8    I2    S    
C15   C16   A    
C4    C20   S    
C12   C13   A    
C13   C23   A    
C16   H3    S    
O1    Zn1   S    
C18   C19   A    
C5    N2    D    
N2    Zn2   S    
O2    Zn2   S    
I1    N1    S    
C14   C15   A    
C1    O1    A    
C18   H5    S    
C7    O8    A    
C6    O6    A    
C20   C21   A    
O3    Zn1   S    
H9    N2    S    
C14   C19   A    
C3    N1    D    
C22   C23   A    
C25   H13   S    
O6    Zn2   S    
C4    O4    A    
C8    C9    A    
C3    C5    S    
