data_mof_unit_27046.cif
_audit_creation_date              2012-10-26T19:35:37-0400
_audit_creation_method            fapswitch 2.2
_symmetry_space_group_name_H-M    P1
_symmetry_Int_Tables_number       1
_space_group_crystal_system       triclinic
_cell_length_a                    15.853148
_cell_length_b                    10.821449
_cell_length_c                    9.550545
_cell_angle_alpha                 89.969622
_cell_angle_beta                  89.84223
_cell_angle_gamma                 90.401032
_cell_volume                      1638.38791545

loop_
_atom_site_label
_atom_site_type_symbol
_atom_type_description
_atom_site_fract_x
_atom_site_fract_y
_atom_site_fract_z
_atom_type_partial_charge
C1    C     C_R   0.500933 0.262442 0.500049 0.550883
C2    C     C_R   0.507627 0.129481 0.500306 0.009071
C3    C     C_R   0.521932 0.064935 0.375102 -0.163687
C4    C     C_R   0.339890 0.499840 0.500114 0.546560
C5    C     C_R   0.520811 0.936375 0.375033 -0.174006
C6    C     C_R   0.506448 0.871171 0.500228 0.004822
C7    C     C_R   0.502012 0.936562 0.626009 0.016021
C8    C     C_3   0.436367 0.930685 0.738670 -0.278464
C9    C     C_3   0.437344 0.070844 0.738757 -0.250106
C10   C     C_R   0.568713 0.541668 0.072852 0.211246
C11   C     C_R   0.437956 0.442018 0.075662 -0.021826
C12   C     C_3   0.083158 0.501378 0.500405 -0.022464
C13   C     C_R   0.436607 0.443033 0.925732 0.362746
C14   C     C_R   0.568434 0.542137 0.926056 0.099453
C15   C     C_3   0.608325 0.666959 0.919144 -0.227845
C16   C     C_R   0.500441 0.737738 0.499990 0.529914
C17   C     C_3   0.609707 0.666137 0.078712 0.139659
C18   C     C_R   0.660121 0.500121 0.499882 0.536339
C19   C     C_3   0.971984 0.467907 0.626336 0.358430
C20   C     C_3   0.026914 0.388571 0.529824 0.299827
C21   C     C_1   0.250262 0.500139 0.500337 -0.033554
C22   C     C_1   0.749770 0.500469 0.499674 0.002116
C23   C     C_3   0.972601 0.616025 0.469970 -0.211366
C24   C     C_3   0.028602 0.581942 0.597789 -0.135679
C25   C     C_3   0.996572 0.183704 0.576730 0.029229
C26   C     C_3   0.034819 0.061239 0.623406 -0.266041
C27   C     C_3   0.967393 0.960610 0.638055 -0.483908
C28   C     C_3   0.292825 0.407657 0.894075 -0.001752
C29   C     C_3   0.246528 0.292101 0.946667 -0.290885
C30   C     C_3   0.154352 0.319502 0.980532 -0.429885
C31   C     C_3   0.709794 0.745640 0.234698 0.027513
C32   C     C_3   0.728554 0.873081 0.171007 -0.285576
C33   C     C_3   0.756322 0.965030 0.283250 -0.468948
C34   C     C_3   0.916900 0.501502 0.499834 0.019065
C35   C     C_3   0.028941 0.535958 0.372438 -0.117067
C36   C     C_3   0.972309 0.422352 0.403228 0.366710
C37   C     C_1   0.174744 0.500595 0.500491 -0.027369
C38   C     C_1   0.825306 0.500934 0.499701 0.022817
C39   C     C_R   0.502526 0.063911 0.625906 0.023814
Cu1   Cu    Cu3+1 0.500000 0.499980 0.640670 0.997689
Cu2   Cu    Cu3+1 0.500000 0.500020 0.359330 0.951080
F1    F     F_    0.941617 0.433610 0.756648 -0.625469
F2    F     F_    0.942059 0.341847 0.302496 -0.628044
H1    H     H_    0.460767 0.890676 0.837565 0.126650
H2    H     H_    0.053088 0.646982 0.678046 0.125894
H3    H     H_    0.530266 0.113128 0.276541 0.141654
H4    H     H_    0.527807 0.888976 0.276348 0.118490
H5    H     H_    0.375716 0.890201 0.701696 0.137403
H6    H     H_    0.964260 0.168891 0.474814 0.190050
H7    H     H_    0.949604 0.212900 0.656827 0.187162
H8    H     H_    0.082571 0.031219 0.545271 0.177202
H9    H     H_    0.066859 0.074201 0.725829 0.176660
H10   H     H_    0.919566 0.987732 0.717297 0.163253
H11   H     H_    0.997169 0.873169 0.672336 0.151325
H12   H     H_    0.377211 0.112044 0.702144 0.154858
H13   H     H_    0.935725 0.944371 0.536033 0.142185
H14   H     H_    0.259272 0.442239 0.800207 0.173395
H15   H     H_    0.288676 0.482901 0.973646 0.095709
H16   H     H_    0.249089 0.219114 0.864892 0.176534
H17   H     H_    0.278081 0.256671 0.042174 0.155308
H18   H     H_    0.150086 0.390866 0.063809 0.163757
H19   H     H_    0.122578 0.233923 0.018198 0.173906
H20   H     H_    0.121106 0.352508 0.885424 0.202395
H21   H     H_    0.766561 0.714828 0.292646 0.158354
H22   H     H_    0.657927 0.750567 0.313156 0.136636
H23   H     H_    0.463035 0.111178 0.836962 0.158381
H24   H     H_    0.779486 0.864664 0.091439 0.188432
H25   H     H_    0.671310 0.909053 0.118440 0.144801
H26   H     H_    0.706623 0.974469 0.364629 0.156749
H27   H     H_    0.767774 0.056914 0.234734 0.184823
H28   H     H_    0.815623 0.933782 0.333382 0.143975
H29   H     H_    0.388838 0.394558 0.133578 0.127772
H30   H     H_    0.671961 0.664306 0.870008 0.172722
H31   H     H_    0.565600 0.737700 0.875038 0.096085
H32   H     H_    0.568223 0.737454 0.125930 0.084482
H33   H     H_    0.053628 0.563590 0.268047 0.138560
H34   H     H_    0.948692 0.709656 0.445092 0.123718
N1    N     N_R   0.500530 0.500930 0.147930 -0.289532
N2    N     N_R   0.500530 0.500890 0.852020 -0.233325
O1    O     O_R   0.500000 0.319640 0.618810 -0.461227
O2    O     O_3   0.376051 0.376149 0.852963 -0.543537
O3    O     O_3   0.693371 0.656989 0.129412 -0.538059
O4    O     O_R   0.500010 0.319680 0.381230 -0.510798
O5    O     O_R   0.379070 0.499970 0.618770 -0.459779
O6    O     O_R   0.379080 0.500010 0.381190 -0.509531
O7    O     O_R   0.499990 0.680320 0.618770 -0.509104
O8    O     O_R   0.500000 0.680360 0.381190 -0.522343
O9    O     O_R   0.620920 0.499990 0.618810 -0.498348
O10   O     O_R   0.620930 0.500030 0.381230 -0.469419
O11   O     O_3   0.061690 0.272315 0.562241 -0.565338

loop_
_geom_bond_atom_site_label_1
_geom_bond_atom_site_label_2
_ccdc_geom_bond_type
Cu2   O10   S    
C13   N2    A    
Cu1   O5    S    
C19   C20   S    
C10   N1    A    
C27   H11   S    
C7    C8    S    
C28   H14   S    
C5    H4    S    
C25   O11   S    
C31   O3    S    
C24   H2    S    
C28   C29   S    
C17   O3    S    
C5    C6    A    
C10   C17   S    
Cu2   O4    S    
C13   O2    S    
C9    C39   S    
C31   H22   S    
C1    C2    S    
Cu1   O7    S    
C12   C37   S    
C9    H23   S    
C25   H7    S    
C2    C39   A    
C29   H16   S    
C8    C9    S    
C16   O8    A    
C23   C24   S    
Cu1   O1    S    
C9    H12   S    
C19   F1    S    
C33   H26   S    
C32   H25   S    
C34   C38   S    
C30   H20   S    
C16   O7    A    
C11   H29   S    
Cu2   O8    S    
C35   H33   S    
C10   C14   A    
Cu2   N1    S    
C27   H13   S    
C4    O6    A    
C25   C26   S    
C20   O11   S    
C18   O9    A    
C35   C36   S    
C8    H5    S    
C29   C30   S    
C11   N1    A    
C26   H9    S    
C31   C32   S    
C4    O5    A    
C29   H17   S    
C23   C34   S    
C12   C20   S    
C26   C27   S    
Cu1   N2    S    
C14   N2    A    
C23   H34   S    
C12   C35   S    
C33   H27   S    
C32   H24   S    
Cu1   Cu2   S    
C15   H30   S    
C23   C35   S    
C30   H19   S    
C15   C17   S    
C28   O2    S    
C18   C22   S    
C18   O10   A    
C31   H21   S    
C8    H1    S    
C3    C5    A    
C19   C34   S    
C27   H10   S    
C6    C7    A    
C28   H15   S    
C1    O4    A    
Cu2   O6    S    
C12   C24   S    
C3    H3    S    
C32   C33   S    
Cu1   O9    S    
C2    C3    A    
C26   H8    S    
C4    C21   S    
C11   C13   A    
C19   C24   S    
C34   C36   S    
C25   H6    S    
C33   H28   S    
C6    C16   S    
C20   C36   S    
C15   H31   S    
C21   C37   T    
C30   H18   S    
C17   H32   S    
C1    O1    A    
C7    C39   A    
C14   C15   S    
C36   F2    S    
C22   C38   T    
