data_mof_unit_29354.cif
_audit_creation_date              2012-12-10T16:41:58-0500
_audit_creation_method            fapswitch 2.2
_symmetry_space_group_name_H-M    P1
_symmetry_Int_Tables_number       1
_space_group_crystal_system       triclinic
_cell_length_a                    10.926436
_cell_length_b                    8.731941
_cell_length_c                    7.611755
_cell_angle_alpha                 103.918907
_cell_angle_beta                  95.298922
_cell_angle_gamma                 96.518815
_cell_volume                      694.935809433

loop_
_atom_site_label
_atom_site_type_symbol
_atom_type_description
_atom_site_fract_x
_atom_site_fract_y
_atom_site_fract_z
_atom_type_partial_charge
C1    C     C_R   0.490528 0.199232 0.452089 0.822028
C2    C     C_2   0.499534 0.968012 0.568390 -0.426647
C3    C     C_R   0.265305 0.494209 0.499262 0.818643
C4    C     C_R   0.499251 0.799381 0.546855 0.903511
C5    C     C_R   0.734566 0.503781 0.499589 0.847229
C6    C     C_2   0.924661 0.487957 0.346779 0.291249
C7    C     C_2   0.868299 0.523733 0.499647 -0.334815
C8    C     C_2   0.061024 0.514631 0.366496 -0.207642
C9    C     C_2   0.131079 0.469685 0.494794 0.079590
C10   C     C_2   0.466277 0.028843 0.426067 -0.200088
Cu1   Cu    Cu3+1 0.513740 0.517380 0.684380 1.013886
Cu2   Cu    Cu3+1 0.486260 0.482620 0.315620 1.041719
H1    H     H_    0.922986 0.576949 0.631410 0.162066
H2    H     H_    0.105098 0.569046 0.269855 0.174644
H3    H     H_    0.539942 0.044737 0.700511 0.193900
N1    N     N_2   0.465540 0.456420 0.038510 -0.220297
N2    N     N_2   0.534460 0.543580 0.961490 -0.226028
O1    O     O_R   0.508930 0.286130 0.619780 -0.559944
O2    O     O_R   0.485720 0.256780 0.308360 -0.543373
O3    O     O_R   0.333540 0.514670 0.655670 -0.570419
O4    O     O_R   0.310330 0.485320 0.344250 -0.566416
O5    O     O_R   0.514280 0.743220 0.691640 -0.560414
O6    O     O_R   0.491070 0.713870 0.380220 -0.541165
O7    O     O_R   0.689670 0.514680 0.655750 -0.573639
O8    O     O_R   0.666460 0.485330 0.344330 -0.538135
N3    N     N_2   0.855120 0.416776 0.171003 -0.395548
H4    H     H_    0.800120 0.310776 0.163969 0.259174
C11   C     C_3   0.915547 0.416202 0.009443 -0.652572
H5    H     H_    0.846852 0.366402 0.886101 0.237825
H6    H     H_    0.991312 0.340975 0.003321 0.228154
H7    H     H_    0.952952 0.539723 0.008665 0.238965
N4    N     N_2   0.077168 0.386356 0.615419 -0.443172
H8    H     H_    0.128447 0.407132 0.741450 0.277245
C12   C     C_3   0.033772 0.218870 0.534557 -0.661855
H9    H     H_    0.995943 0.163505 0.638740 0.219468
H10   H     H_    0.111132 0.156435 0.481946 0.234893
H11   H     H_    0.958660 0.203236 0.420565 0.238267
C13   C     C_2   0.393885 0.933924 0.250199 0.912210
O9    O     O_2   0.300550 0.842377 0.250885 -0.620334
O10   O     O_R   0.430826 0.952894 0.084773 -0.736008
H12   H     H_    0.373595 0.883345 0.975333 0.331971
C14   C     C_2   0.367065 0.328896 0.951810 1.048538
O11   O     O_2   0.312716 0.258603 0.048667 -0.588531
O12   O     O_R   0.328491 0.279127 0.766675 -0.760175
H13   H     H_    0.264410 0.179948 0.731758 0.300813
C15   C     C_2   0.633005 0.671211 0.048864 1.091704
O13   O     O_2   0.685750 0.743915 0.952756 -0.593890
O14   O     O_R   0.674222 0.717432 0.233669 -0.744441
H14   H     H_    0.744897 0.809334 0.268660 0.297857

loop_
_geom_bond_atom_site_label_1
_geom_bond_atom_site_label_2
_ccdc_geom_bond_type
O14   H14   S    
C2    C4    S    
Cu1   Cu2   S    
Cu1   O1    S    
C6    C7    D    
C3    C9    S    
C12   H11   S    
C4    O5    A    
Cu1   O5    S    
N3    C11   S    
Cu2   O8    S    
C10   C13   S    
N4    H8    S    
C11   H6    S    
C1    O1    A    
C3    O3    A    
O12   H13   S    
C13   O10   S    
C2    H3    S    
Cu2   O6    S    
N3    H4    S    
C6    N3    S    
C5    O7    A    
C14   O12   S    
C5    O8    A    
Cu2   O2    S    
C11   H5    S    
C12   H10   S    
C13   O9    D    
C15   O14   S    
Cu1   O3    S    
C1    O2    A    
C3    O4    A    
C14   O11   D    
C2    C10   D    
N1    C14   S    
Cu1   O7    S    
C7    H1    S    
N2    C15   S    
C12   H9    S    
C5    C7    S    
C4    O6    A    
C15   O13   D    
O10   H12   S    
C6    C8    S    
C8    H2    S    
C9    N4    S    
Cu2   O4    S    
C11   H7    S    
Cu1   N2    S    
C1    C10   S    
Cu2   N1    S    
N1    N2    D    
C8    C9    D    
N4    C12   S    
