data_mof_unit_17678.cif
_audit_creation_date              2012-12-10T17:04:35-0500
_audit_creation_method            fapswitch 2.2
_symmetry_space_group_name_H-M    P1
_symmetry_Int_Tables_number       1
_space_group_crystal_system       triclinic
_cell_length_a                    14.961157
_cell_length_b                    10.692924
_cell_length_c                    10.028822
_cell_angle_alpha                 89.695249
_cell_angle_beta                  89.672481
_cell_angle_gamma                 89.709017
_cell_volume                      1604.3266973

loop_
_atom_site_label
_atom_site_type_symbol
_atom_type_description
_atom_site_fract_x
_atom_site_fract_y
_atom_site_fract_z
_atom_type_partial_charge
C1    C     C_R   0.507540 0.263312 0.500122 0.936871
C2    C     C_R   0.187387 0.412208 0.434982 -0.248844
C3    C     C_R   0.231278 0.506262 0.502274 -0.101340
C4    C     C_R   0.327042 0.502170 0.500541 0.892179
C5    C     C_R   0.184671 0.598252 0.574792 -0.086812
C6    C     C_2   0.530681 0.932990 0.398885 -0.223187
C7    C     C_2   0.488154 0.870009 0.496556 -0.152038
C8    C     C_2   0.526660 0.067460 0.389487 -0.142921
C9    C     C_2   0.530030 0.134012 0.500985 -0.314471
C10   C     C_2   0.553876 0.567855 0.924136 -0.112944
C11   C     C_2   0.550282 0.573090 0.074163 -0.115215
C12   C     C_R   0.903385 0.590067 0.566299 0.115154
C13   C     C_R   0.497420 0.737625 0.499534 0.876504
C14   C     C_R   0.672741 0.497265 0.499662 0.876863
C15   C     C_R   0.811523 0.586578 0.566003 -0.274743
C16   C     C_R   0.768085 0.491692 0.499812 -0.095119
C17   C     C_R   0.814574 0.393457 0.437505 -0.089761
C18   C     C_R   0.908746 0.388680 0.447558 0.020249
C19   C     C_R   0.952824 0.492759 0.506356 0.040478
C20   C     C_1   0.425605 0.926337 0.590327 0.194681
C21   C     C_1   0.764680 0.305070 0.357822 0.187378
C22   C     C_R   0.924829 0.160099 0.373932 0.130659
C23   C     C_R   0.961092 0.286647 0.399418 -0.014141
C24   C     C_R   0.881603 0.093774 0.476997 -0.132450
C25   C     C_R   0.849146 0.973358 0.454538 -0.127814
C26   C     C_R   0.860893 0.917405 0.330048 -0.098270
C27   C     C_R   0.904917 0.981972 0.227623 -0.124200
C28   C     C_R   0.937070 0.102766 0.249355 -0.147928
C29   C     C_1   0.234507 0.679848 0.662009 0.193545
C30   C     C_1   0.073895 0.816641 0.673071 0.173174
C31   C     C_R   0.053458 0.299464 0.390780 -0.248675
C32   C     C_R   0.095541 0.404639 0.441925 0.115427
C33   C     C_R   0.046247 0.499920 0.505761 0.040000
C34   C     C_R   0.090374 0.601720 0.568911 0.023829
C35   C     C_R   0.037882 0.700437 0.624055 -0.007410
C36   C     C_R   0.945508 0.691934 0.623789 -0.256062
H1    H     H_    0.773061 0.661039 0.612755 0.138448
H2    H     H_    0.905777 0.766993 0.666829 0.141567
H3    H     H_    0.569169 0.884341 0.322621 0.167835
H4    H     H_    0.872782 0.135677 0.574311 0.129332
H5    H     H_    0.814973 0.923364 0.533695 0.119734
H6    H     H_    0.836036 0.823957 0.313087 0.129872
H7    H     H_    0.914182 0.938373 0.131347 0.133546
H8    H     H_    0.971079 0.151794 0.169232 0.133434
H9    H     H_    0.517132 0.110115 0.291985 0.184584
H10   H     H_    0.547115 0.091365 0.596229 0.158738
H11   H     H_    0.603269 0.625405 0.873789 0.157293
H12   H     H_    0.450987 0.451927 0.898532 0.168159
H13   H     H_    0.593049 0.640228 0.123017 0.154200
H14   H     H_    0.463999 0.433147 0.102851 0.165049
H15   H     H_    0.093457 0.223199 0.350913 0.154592
H16   H     H_    0.225668 0.340279 0.383721 0.149470
N1    N     N_2   0.500970 0.501330 0.852150 -0.189201
N2    N     N_2   0.500990 0.501360 0.147810 -0.189500
N3    N     N_1   0.376078 0.972191 0.664740 -0.180230
N4    N     N_1   0.724384 0.235329 0.294220 -0.190574
N5    N     N_1   0.274672 0.743118 0.732916 -0.164973
N6    N     N_1   0.101789 0.910295 0.712063 -0.189034
O1    O     O_R   0.499990 0.319060 0.613040 -0.614260
O2    O     O_R   0.500010 0.319100 0.386900 -0.615682
O3    O     O_R   0.367830 0.499950 0.613080 -0.607830
O4    O     O_R   0.367860 0.499990 0.386940 -0.611470
O5    O     O_R   0.499990 0.680900 0.613100 -0.608228
O6    O     O_R   0.500010 0.680940 0.386960 -0.616011
O7    O     O_R   0.632140 0.500010 0.613060 -0.618167
O8    O     O_R   0.632170 0.500050 0.386920 -0.613496
Zn1   Zn    Zn3+2 0.499980 0.499970 0.650990 0.963741
Zn2   Zn    Zn3+2 0.500020 0.500030 0.349010 0.956420

loop_
_geom_bond_atom_site_label_1
_geom_bond_atom_site_label_2
_ccdc_geom_bond_type
C23   C31   A    
C8    C9    D    
C21   N4    T    
O8    Zn2   S    
C6    C7    D    
C11   H13   S    
C14   C16   S    
C4    O4    A    
C12   C36   A    
O3    Zn1   S    
C31   C32   A    
C13   O5    A    
C12   C15   A    
O4    Zn2   S    
C3    C5    A    
C32   C33   A    
C22   C24   A    
C36   H2    S    
C17   C18   A    
C14   O8    A    
C8    H9    S    
C9    H10   S    
C22   C28   A    
C5    C34   A    
C13   O6    A    
O2    Zn2   S    
C26   C27   A    
H14   N2    S    
C11   N2    D    
C2    H16   S    
C30   C35   S    
C20   N3    T    
C15   C16   A    
C30   N6    T    
C12   C19   A    
C31   H15   S    
C24   H4    S    
C14   O7    A    
C33   C34   A    
C2    C3    A    
C5    C29   S    
C1    O1    A    
H12   N1    S    
N1    Zn1   S    
O5    Zn1   S    
C10   H11   S    
N2    Zn2   S    
C10   C11   S    
C18   C23   A    
O6    Zn2   S    
C27   H7    S    
C7    C13   S    
C1    C9    S    
C24   C25   A    
C26   H6    S    
C28   H8    S    
C2    C32   A    
C34   C35   A    
C19   C33   A    
C1    O2    A    
C25   H5    S    
C27   C28   A    
C10   N1    D    
C6    H3    S    
C18   C19   A    
C6    C8    S    
O1    Zn1   S    
C25   C26   A    
C22   C23   S    
C4    O3    A    
C7    C20   S    
C15   H1    S    
C3    C4    S    
C29   N5    T    
C16   C17   A    
O7    Zn1   S    
C35   C36   A    
C17   C21   S    
