data_mof_unit_12279.cif
_audit_creation_date              2013-03-05T16:06:16-0500
_audit_creation_method            fapswitch 2.2
_symmetry_space_group_name_H-M    P1
_symmetry_Int_Tables_number       1
_space_group_crystal_system       triclinic
_cell_length_a                    10.82829
_cell_length_b                    9.50258
_cell_length_c                    27.750845
_cell_angle_alpha                 89.955115
_cell_angle_beta                  90.220465
_cell_angle_gamma                 89.952202
_cell_volume                      2855.44713452

loop_
_atom_site_label
_atom_site_type_symbol
_atom_site_description
_atom_site_fract_x
_atom_site_fract_y
_atom_site_fract_z
_atom_type_partial_charge
O1    O     O_R   0.319640 0.618740 0.500000 -0.596362
O2    O     O_R   0.680360 0.381260 0.500000 -0.596218
O3    O     O_R   0.680360 0.618740 0.500000 -0.580671
O4    O     O_R   0.319640 0.381260 0.500000 -0.580227
C1    C     C_R   0.262015 0.500032 0.499962 0.806954
C2    C     C_R   0.737985 0.499968 0.500028 0.806685
O5    O     O_R   0.500020 0.618770 0.430260 -0.570624
O6    O     O_R   0.499980 0.381230 0.569740 -0.570625
O7    O     O_R   0.499980 0.618770 0.569740 -0.557556
O8    O     O_R   0.500020 0.381230 0.430260 -0.557431
C3    C     C_R   0.501381 0.500064 0.407476 0.880681
C4    C     C_R   0.498177 0.499913 0.592517 0.880860
Cu1   Cu    Cu3+1 0.500000 0.640660 0.500000 0.984277
Cu2   Cu    Cu3+1 0.500000 0.359340 0.500000 0.984375
C5    C     C_R   0.403696 0.568311 0.177708 0.573306
C6    C     C_R   0.587658 0.432403 0.822733 0.575695
O9    O     O_2   0.324979 0.651094 0.202476 -0.515272
O10   O     O_2   0.670366 0.353937 0.798299 -0.516171
N1    N     N_R   0.488147 0.488054 0.201876 -0.461805
N2    N     N_R   0.501807 0.509658 0.798202 -0.457378
C7    C     C_R   0.565713 0.398135 0.178228 0.614038
C8    C     C_R   0.419755 0.595055 0.821519 0.606787
C9    C     C_R   0.576689 0.583968 0.277050 0.190744
C10   C     C_R   0.416798 0.415080 0.722255 0.185522
C11   C     C_R   0.581468 0.585954 0.327851 0.045414
C12   C     C_R   0.414320 0.413753 0.671446 0.045910
C13   C     C_R   0.415778 0.411090 0.330198 0.098581
C14   C     C_R   0.580403 0.588244 0.670483 0.096327
C15   C     C_R   0.413279 0.409022 0.279959 -0.171949
C16   C     C_R   0.580597 0.589748 0.720749 -0.166299
C17   C     C_R   0.492640 0.494528 0.253463 0.238289
C18   C     C_R   0.499851 0.504087 0.746567 0.240493
C19   C     C_R   0.483301 0.480547 0.101759 -0.092017
C20   C     C_R   0.500767 0.513199 0.898348 -0.082428
C21   C     C_R   0.399500 0.565998 0.127298 -0.012388
C22   C     C_R   0.589436 0.433492 0.873134 -0.009402
C23   C     C_R   0.310587 0.643287 0.102031 -0.120369
C24   C     C_R   0.680427 0.360409 0.898768 -0.119501
C25   C     C_R   0.563119 0.389485 0.127305 -0.055662
C26   C     C_R   0.416717 0.599051 0.872571 -0.073644
C27   C     C_R   0.499796 0.499611 0.354492 -0.118645
C28   C     C_R   0.497431 0.500112 0.645497 -0.118089
H1    H     H_    0.348877 0.340759 0.261284 0.163650
H2    H     H_    0.644221 0.657680 0.739963 0.164467
H3    H     H_    0.239143 0.701168 0.120749 0.195028
H4    H     H_    0.755436 0.307704 0.880386 0.194631
C29   C     C_R   0.415709 0.595881 0.974988 -0.034291
C30   C     C_R   0.565780 0.394949 0.025002 -0.025861
C31   C     C_R   0.578170 0.414632 0.974507 0.091549
C32   C     C_R   0.406056 0.579855 0.025725 0.089999
C33   C     C_R   0.496668 0.506478 0.949397 0.056110
C34   C     C_R   0.486126 0.485948 0.050695 0.055022
C35   C     C_R   0.352485 0.702885 0.948858 0.084440
C36   C     C_R   0.624102 0.283065 0.050771 0.080892
C37   C     C_R   0.338295 0.691257 0.898490 0.156441
C38   C     C_R   0.630986 0.287402 0.101526 0.139712
O11   O     O_2   0.343287 0.676519 0.795031 -0.486477
O12   O     O_2   0.644958 0.318564 0.204171 -0.470106
C39   C     C_R   0.311054 0.645295 0.052049 -0.156855
C40   C     C_R   0.677262 0.355947 0.948712 -0.151394
H5    H     H_    0.234329 0.696351 0.034306 0.172102
H6    H     H_    0.755522 0.309603 0.966938 0.174641
C41   C     C_R   0.064000 0.372223 0.501820 -0.150205
C42   C     C_R   0.936002 0.627774 0.498159 -0.150660
C43   C     C_R   0.936269 0.372187 0.501842 -0.167648
C44   C     C_R   0.063733 0.627811 0.498139 -0.167707
H7    H     H_    0.112181 0.272350 0.503326 0.160473
H8    H     H_    0.887822 0.727648 0.496653 0.160147
H9    H     H_    0.888302 0.272296 0.503362 0.154406
H10   H     H_    0.111701 0.727701 0.496621 0.154424
C45   C     C_R   0.871795 0.499960 0.500011 -0.017267
C46   C     C_R   0.128207 0.500038 0.499972 -0.017014
C47   C     C_R   0.422077 0.074618 0.470421 -0.002045
C48   C     C_R   0.577910 0.925380 0.529585 -0.002092
C49   C     C_R   0.577891 0.074331 0.529591 0.000391
C50   C     C_R   0.422104 0.925669 0.470411 0.000238
H11   H     H_    0.359675 0.130982 0.446757 0.133972
H12   H     H_    0.640290 0.869013 0.553258 0.133962
H13   H     H_    0.640229 0.130474 0.553281 0.126148
H14   H     H_    0.359762 0.869526 0.446722 0.126069
N3    N     N_R   0.500000 0.852070 0.500000 -0.161303
N4    N     N_R   0.500000 0.147930 0.500000 -0.161156
N5    N     N_3   0.331135 0.324797 0.356609 -0.582214
H15   H     H_    0.241364 0.351666 0.346028 0.233041
H16   H     H_    0.346454 0.219956 0.346866 0.233799
N6    N     N_3   0.666331 0.674651 0.644760 -0.582151
H17   H     H_    0.755576 0.647192 0.655828 0.233145
H18   H     H_    0.650987 0.779389 0.654617 0.234665
I1    I     I_    0.278597 0.290124 0.634336 -0.283254
I2    I     I_    0.718327 0.710552 0.363891 -0.281517
I3    I     I_    0.297568 0.283963 0.763835 -0.202199
I4    I     I_    0.694192 0.714088 0.234398 -0.208725
N7    N     N_3   0.247290 0.775270 0.873609 -0.471353
H19   H     H_    0.183759 0.705362 0.858312 0.245665
H20   H     H_    0.194360 0.834123 0.897586 0.240133
N8    N     N_3   0.701392 0.183001 0.127066 -0.482791
H21   H     H_    0.660084 0.084611 0.122359 0.261771
H22   H     H_    0.790979 0.180683 0.113158 0.247632
I5    I     I_    0.329225 0.910772 0.978576 -0.302102
I6    I     I_    0.667844 0.083581 0.017827 -0.334581

loop_
_geom_bond_atom_site_label_1
_geom_bond_atom_site_label_2
_geom_bond_distance
_ccdc_geom_bond_type
C41   C43   1.383107 A    
N7    H19   1.045813 S    
C13   C15   1.394468 A    
C37   N7    1.441434 S    
O3    C2    1.289189 A    
N1    C17   1.433584 S    
C8    O11   1.348538 S    
C35   I5    2.156237 S    
C12   I1    2.143282 S    
C5    N1    1.364195 A    
C11   I2    2.142825 S    
C19   C25   1.411171 A    
C31   C40   1.407219 A    
O1    C1    1.289562 A    
C32   C39   1.408563 A    
C42   H8    1.083320 S    
N1    C7    1.367535 A    
C10   C12   1.410236 A    
C1    C46   1.448917 S    
N6    H18   1.045713 S    
Cu1   N3    2.008940 S    
C40   H6    1.078696 S    
C42   C45   1.400992 A    
C14   C28   1.409522 A    
O7    Cu1   1.946329 S    
C4    C28   1.470296 S    
C19   C21   1.410552 A    
C44   C46   1.400860 A    
N5    H15   1.045741 S    
C14   C16   1.394999 A    
C31   C33   1.420983 A    
N8    H22   1.045625 S    
C32   C34   1.421734 A    
O3    Cu1   1.963894 S    
C6    N2    1.363735 A    
C29   C35   1.422066 A    
N7    H20   1.042581 S    
Cu1   Cu2   2.673266 S    
C15   H1    1.083594 S    
C16   H2    1.083564 S    
O2    C2    1.289562 A    
C5    C21   1.399665 A    
O5    C3    1.293670 A    
C29   C32   1.420329 A    
C41   H7    1.083321 S    
C35   C37   1.410024 A    
C2    C45   1.448933 S    
C36   C38   1.410812 A    
C39   H5    1.078831 S    
C48   C49   1.415416 A    
O8    Cu2   1.946329 S    
C11   C27   1.416760 A    
N6    H17   1.045675 S    
C29   C33   1.413899 A    
C43   C45   1.400868 A    
C19   C34   1.418409 A    
C9    C17   1.405935 A    
C30   C36   1.426464 A    
C10   C18   1.405999 A    
C13   C27   1.409707 A    
C25   C38   1.413076 A    
C7    C25   1.415787 A    
C30   C34   1.415804 A    
O6    C4    1.293441 A    
C26   C37   1.417975 A    
C8    C26   1.417765 A    
N8    H21   1.044853 S    
C20   C33   1.418922 A    
C23   C39   1.387182 A    
C24   C40   1.387173 A    
C30   C31   1.420426 A    
N5    H16   1.045777 S    
N2    C8    1.367724 A    
C14   N6    1.433502 S    
C47   C50   1.415406 A    
C20   C26   1.413659 A    
O1    Cu1   1.964240 S    
Cu2   N4    2.008941 S    
C48   N3    1.366610 A    
C23   H3    1.083355 S    
C10   I3    2.136009 S    
C47   N4    1.366606 A    
C12   C28   1.416755 A    
N2    C18   1.433993 S    
C38   N8    1.435704 S    
O6    Cu2   1.946653 S    
C21   C23   1.396718 A    
C50   H14   1.081759 S    
O4    C1    1.289187 A    
C50   N3    1.366611 A    
C49   N4    1.366613 A    
C5    O9    1.349823 S    
C22   C24   1.397059 A    
C7    O12   1.348961 S    
C15   C17   1.394427 A    
C6    C22   1.398789 A    
C16   C18   1.394815 A    
C44   H10   1.083289 S    
C43   H9    1.083288 S    
C13   N5    1.433575 S    
C36   I6    2.158258 S    
C3    C27   1.470370 S    
C20   C22   1.410633 A    
C9    C11   1.410663 A    
O4    Cu2   1.963894 S    
O2    Cu2   1.964240 S    
O7    C4    1.294047 A    
C24   H4    1.083354 S    
O8    C3    1.293885 A    
O5    Cu1   1.946653 S    
C41   C46   1.400990 A    
C6    O10   1.349880 S    
C48   H12   1.081747 S    
C47   H11   1.081708 S    
C9    I4    2.135571 S    
C49   H13   1.081757 S    
C42   C44   1.383109 A    
