data_mof_unit_12213.cif
_audit_creation_date              2012-12-11T15:42:37-0500
_audit_creation_method            fapswitch 2.2
_symmetry_space_group_name_H-M    P1
_symmetry_Int_Tables_number       1
_space_group_crystal_system       triclinic
_cell_length_a                    6.933029
_cell_length_b                    14.554346
_cell_length_c                    16.195954
_cell_angle_alpha                 90.432208
_cell_angle_beta                  90.051942
_cell_angle_gamma                 90.097186
_cell_volume                      1634.2145832

loop_
_atom_site_label
_atom_site_type_symbol
_atom_type_description
_atom_site_fract_x
_atom_site_fract_y
_atom_site_fract_z
_atom_type_partial_charge
O1    O     O_R   0.505810 0.583360 0.413880 -0.542348
O2    O     O_R   0.175870 0.595480 0.585520 -0.544713
O3    O     O_R   0.005540 0.416640 0.586120 -0.542446
C1    C     C_R   0.345033 0.617641 0.614650 0.681044
O4    O     O_R   0.176100 0.594390 0.414490 -0.545274
O5    O     O_R   0.005770 0.415540 0.413870 -0.545763
C2    C     C_R   0.345210 0.616467 0.385729 0.682904
O6    O     O_R   0.505580 0.584460 0.586130 -0.543033
O7    O     O_3   0.339190 0.441320 0.500000 -0.358818
V1    V     V_3+5 0.064350 0.510890 0.500000 1.404347
O8    O     O_R   0.676050 0.404520 0.414480 -0.515711
C3    C     C_R   0.844706 0.381264 0.386316 0.718258
O9    O     O_R   0.675830 0.405610 0.585510 -0.538660
C4    C     C_R   0.845060 0.383644 0.613700 0.745339
V2    V     V_3+5 0.564340 0.489110 0.500000 1.438084
O10   O     O_3   0.839370 0.558680 0.500000 -0.377614
C5    C     C_2   0.720511 0.208799 0.785951 -0.129692
C6    C     C_2   0.885755 0.181784 0.822545 -0.311675
H1    H     H_    0.584503 0.180033 0.806788 0.137098
H2    H     H_    0.023453 0.209854 0.803815 0.127694
C7    C     C_2   0.708115 0.277256 0.718014 -0.133541
C8    C     C_2   0.861621 0.315407 0.680474 -0.306802
H3    H     H_    0.564030 0.296204 0.698096 0.135498
H4    H     H_    0.006858 0.297123 0.698504 0.129333
C9    C     C_R   0.033016 0.242620 0.203548 -0.166698
H5    H     H_    0.162387 0.241263 0.166125 0.128065
C10   C     C_R   0.019658 0.306850 0.268104 -0.218927
H6    H     H_    0.138691 0.353919 0.278059 0.133080
C11   C     C_R   0.854375 0.311472 0.318448 -0.040008
C12   C     C_R   0.701295 0.249287 0.302531 0.199568
C13   C     C_R   0.714449 0.186359 0.236524 -0.205325
H7    H     H_    0.595529 0.139410 0.225485 0.122725
C14   C     C_R   0.879726 0.182242 0.186519 -0.065966
C15   C     C_R   0.188399 0.723525 0.718838 -0.155841
H8    H     H_    0.047577 0.705351 0.694750 0.115996
C16   C     C_R   0.199647 0.785736 0.785188 -0.150762
H9    H     H_    0.066935 0.813808 0.809832 0.118410
C17   C     C_R   0.379266 0.811496 0.819029 -0.047892
C18   C     C_R   0.547304 0.773220 0.784483 -0.155430
H10   H     H_    0.688126 0.791400 0.808567 0.116307
C19   C     C_R   0.536055 0.711007 0.718136 -0.150794
H11   H     H_    0.668767 0.682938 0.693489 0.117615
C20   C     C_R   0.356437 0.685251 0.684292 -0.046575
C21   C     C_R   0.188496 0.723193 0.283755 -0.157188
H12   H     H_    0.047690 0.704813 0.307379 0.115963
C22   C     C_R   0.199756 0.786316 0.219021 -0.150874
H13   H     H_    0.067046 0.814737 0.194982 0.118547
C23   C     C_R   0.379392 0.812430 0.185941 -0.047329
C24   C     C_R   0.547448 0.773620 0.219550 -0.157275
H14   H     H_    0.688249 0.792007 0.195925 0.116429
C25   C     C_R   0.536188 0.710494 0.284287 -0.151267
H15   H     H_    0.668890 0.682071 0.308331 0.117529
C26   C     C_R   0.356546 0.684375 0.317359 -0.046822
O11   O     O_R   0.230120 0.912300 0.917180 -0.540758
O12   O     O_R   0.559740 0.902430 0.088770 -0.544035
O13   O     O_R   0.729930 0.081310 0.089370 -0.540285
C27   C     C_R   0.390667 0.880326 0.117561 0.685341
O14   O     O_R   0.559840 0.901330 0.917750 -0.543416
O15   O     O_R   0.730030 0.080210 0.917120 -0.536902
C28   C     C_R   0.390672 0.879131 0.888650 0.686781
O16   O     O_R   0.230020 0.913400 0.089430 -0.540546
O17   O     O_3   0.396460 0.055470 0.003290 -0.368364
V3    V     V_3+5 0.671360 0.985960 0.003250 1.400664
O18   O     O_R   0.059740 0.091300 0.917690 -0.544846
C29   C     C_R   0.891022 0.113228 0.889462 0.746080
O19   O     O_R   0.059640 0.092400 0.088720 -0.544012
C30   C     C_R   0.890840 0.114490 0.117596 0.696578
V4    V     V_3+5 0.171350 0.007820 0.003190 1.400641
O20   O     O_3   0.896380 0.938200 0.003220 -0.372279
N1    N     N_3   0.534059 0.247709 0.354351 -0.653855
H16   H     H_    0.413037 0.257812 0.317091 0.224394
H17   H     H_    0.522891 0.182225 0.380038 0.220046

loop_
_geom_bond_atom_site_label_1
_geom_bond_atom_site_label_2
_ccdc_geom_bond_type
O19   V4    S    
C3    C11   S    
C10   C11   A    
C19   H11   S    
C1    O6    A    
C23   C27   S    
C18   C19   A    
O11   C28   A    
C6    C29   S    
O17   V3    S    
O18   V4    S    
C16   H9    S    
O5    C3    A    
C12   C13   A    
O11   V4    S    
O14   C28   A    
V2    O10   S    
C15   H8    S    
O8    V2    S    
C21   C26   A    
V3    O20   S    
V4    O20   S    
C24   C25   A    
O12   V3    S    
C13   C14   A    
N1    H16   S    
O1    V2    S    
O7    V1    S    
C6    H2    S    
O19   C30   A    
O9    C4    A    
C19   C20   A    
C12   N1    S    
C21   C22   A    
C7    H3    S    
C22   C23   A    
C25   H15   S    
C18   H10   S    
O4    C2    A    
C9    H5    S    
C5    C7    S    
C25   C26   A    
O2    C1    A    
C11   C12   A    
C13   H7    S    
C5    C6    D    
O13   V3    S    
O3    C4    A    
C17   C28   S    
C23   C24   A    
O6    V2    S    
O9    V2    S    
C8    H4    S    
C2    C26   S    
O2    V1    S    
C21   H12   S    
C14   C30   S    
O14   V3    S    
C22   H13   S    
O1    C2    A    
C15   C20   A    
O5    V1    S    
O8    C3    A    
C27   O16   A    
C1    C20   S    
C9    C10   A    
O13   C30   A    
O15   V3    S    
O17   V4    S    
O18   C29   A    
C4    C8    S    
O12   C27   A    
O7    V2    S    
O4    V1    S    
O3    V1    S    
V1    O10   S    
O15   C29   A    
O16   V4    S    
C17   C18   A    
C16   C17   A    
C5    H1    S    
C15   C16   A    
C24   H14   S    
C10   H6    S    
N1    H17   S    
C7    C8    D    
C9    C14   A    
