data_mof_unit_7339.cif
_audit_creation_date              2012-12-11T16:26:14-0500
_audit_creation_method            fapswitch 2.2
_symmetry_space_group_name_H-M    P1
_symmetry_Int_Tables_number       1
_space_group_crystal_system       triclinic
_cell_length_a                    14.03938
_cell_length_b                    14.038096
_cell_length_c                    31.364071
_cell_angle_alpha                 89.991405
_cell_angle_beta                  90.026345
_cell_angle_gamma                 120.010315
_cell_volume                      5352.71350477

loop_
_atom_site_label
_atom_site_type_symbol
_atom_type_description
_atom_site_fract_x
_atom_site_fract_y
_atom_site_fract_z
_atom_type_partial_charge
C1    C     C_R   0.564579 0.446278 0.809396 0.545840
C2    C     C_R   0.881579 0.435358 0.690524 0.550890
C3    C     C_R   0.553814 0.118385 0.809446 0.554585
C4    C     C_R   0.564507 0.446307 0.690592 0.544580
C5    C     C_R   0.881682 0.435430 0.809437 0.546099
C6    C     C_R   0.553677 0.118125 0.690622 0.546855
C7    C     C_R   0.446321 0.564440 0.309378 0.544203
C8    C     C_R   0.435312 0.881531 0.190510 0.539963
C9    C     C_R   0.118444 0.553755 0.309486 0.539743
C10   C     C_R   0.446184 0.564654 0.190541 0.544884
C11   C     C_R   0.435493 0.881802 0.309403 0.543855
C12   C     C_R   0.118262 0.553694 0.190588 0.549463
C13   C     C_1   0.003813 0.543759 0.018954 0.004259
C14   C     C_1   0.541498 0.998863 0.480890 0.006770
C15   C     C_1   0.457975 0.460858 0.018892 0.006905
C16   C     C_1   0.000951 0.545484 0.480871 0.006540
C17   C     C_1   0.543860 0.001917 0.019306 0.003173
C18   C     C_1   0.457650 0.458209 0.480791 0.006280
C19   C     C_1   0.542305 0.000525 0.519204 0.006337
C20   C     C_1   0.002136 0.542990 0.980670 0.003714
C21   C     C_1   0.458441 0.457373 0.519105 0.007075
C22   C     C_1   0.544567 0.003545 0.981035 0.004455
C23   C     C_1   0.999302 0.544669 0.519177 0.007753
C24   C     C_1   0.458929 0.459795 0.980642 0.003955
C25   C     C_R   0.951536 0.484112 0.848262 -0.027853
C26   C     C_R   0.532572 0.047953 0.651886 -0.030190
C27   C     C_R   0.516081 0.467404 0.848214 -0.027683
C28   C     C_R   0.951159 0.483962 0.651631 -0.023110
C29   C     C_R   0.533204 0.049185 0.848397 -0.022176
C30   C     C_R   0.515689 0.467462 0.651791 -0.030855
C31   C     C_R   0.484284 0.951798 0.348198 -0.033418
C32   C     C_R   0.048785 0.532614 0.151677 -0.024037
C33   C     C_R   0.467467 0.515390 0.348112 -0.031977
C34   C     C_R   0.483755 0.951112 0.151606 -0.034313
C35   C     C_R   0.048984 0.532739 0.348414 -0.046227
C36   C     C_R   0.466937 0.516526 0.151524 -0.025660
C37   C     C_R   0.969128 0.586096 0.864588 -0.066073
C38   C     C_R   0.617486 0.031438 0.635454 -0.066077
C39   C     C_R   0.414847 0.382415 0.864788 -0.077851
C40   C     C_R   0.969944 0.586733 0.635781 -0.058436
C41   C     C_R   0.618445 0.033122 0.864827 -0.083298
C42   C     C_R   0.414082 0.382727 0.635398 -0.058597
C43   C     C_R   0.585936 0.968832 0.364581 -0.065244
C44   C     C_R   0.032036 0.617337 0.135253 -0.080698
C45   C     C_R   0.382635 0.413863 0.364528 -0.067640
C46   C     C_R   0.586245 0.969545 0.135514 -0.067039
C47   C     C_R   0.030011 0.616618 0.364226 -0.055740
C48   C     C_R   0.381599 0.415671 0.134819 -0.063042
C49   C     C_R   0.987344 0.608432 0.908603 -0.021165
C50   C     C_R   0.622227 0.014531 0.591351 -0.018363
C51   C     C_R   0.393562 0.378088 0.908868 -0.038416
C52   C     C_R   0.987122 0.609673 0.591761 -0.013476
C53   C     C_R   0.624057 0.017542 0.908960 -0.040829
C54   C     C_R   0.392354 0.377814 0.591291 -0.017868
C55   C     C_R   0.607630 0.985552 0.408693 -0.019301
C56   C     C_R   0.016923 0.623073 0.091075 -0.038917
C57   C     C_R   0.377858 0.392194 0.408632 -0.018522
C58   C     C_R   0.609036 0.987847 0.091534 -0.021638
C59   C     C_R   0.012894 0.622460 0.408246 -0.010875
C60   C     C_R   0.376626 0.395138 0.090657 -0.015680
C61   C     C_R   0.997962 0.533555 0.935024 -0.040230
C62   C     C_R   0.536826 0.004182 0.564907 -0.044371
C63   C     C_R   0.467952 0.464560 0.935032 -0.042298
C64   C     C_R   0.995628 0.534395 0.564828 -0.043813
C65   C     C_R   0.538599 0.006759 0.935399 -0.047358
C66   C     C_R   0.467593 0.462965 0.564807 -0.044179
C67   C     C_R   0.532327 0.995290 0.435187 -0.044678
C68   C     C_R   0.006967 0.537907 0.064611 -0.047326
C69   C     C_R   0.463176 0.467341 0.435089 -0.043985
C70   C     C_R   0.534112 0.997831 0.064921 -0.046002
C71   C     C_R   0.004616 0.538827 0.435223 -0.040093
C72   C     C_R   0.463010 0.469655 0.064513 -0.035132
C73   C     C_R   0.004835 0.446400 0.917057 -0.119101
C74   C     C_R   0.442138 0.995659 0.582980 -0.093917
C75   C     C_R   0.554019 0.559050 0.916854 -0.121006
C76   C     C_R   0.001586 0.446187 0.582291 -0.100423
C77   C     C_R   0.443616 0.997884 0.917450 -0.102966
C78   C     C_R   0.554066 0.557576 0.582832 -0.095339
C79   C     C_R   0.445803 0.003324 0.417168 -0.096023
C80   C     C_R   0.998361 0.443066 0.082587 -0.102167
C81   C     C_R   0.557836 0.553622 0.417031 -0.094593
C82   C     C_R   0.446208 0.003711 0.082618 -0.092782
C83   C     C_R   0.998887 0.444735 0.417813 -0.097870
C84   C     C_R   0.557830 0.555282 0.082726 -0.119975
C85   C     C_R   0.986410 0.423445 0.873574 0.196354
C86   C     C_R   0.436863 0.012194 0.626626 0.248239
C87   C     C_R   0.576564 0.563322 0.873358 0.191459
C88   C     C_R   0.984236 0.422725 0.625793 0.242224
C89   C     C_R   0.438023 0.014555 0.873847 0.237674
C90   C     C_R   0.575988 0.562992 0.626473 0.242391
C91   C     C_R   0.423900 0.986869 0.373527 0.241697
C92   C     C_R   0.014638 0.437503 0.126226 0.239376
C93   C     C_R   0.563133 0.575455 0.373385 0.243866
C94   C     C_R   0.422567 0.984923 0.126023 0.237266
C95   C     C_R   0.016241 0.438559 0.374323 0.196334
C96   C     C_R   0.562579 0.577283 0.126295 0.192763
Cr1   Cr    Cr6+3 0.504240 0.249200 0.750000 1.142403
Cr2   Cr    Cr6+3 0.744960 0.495760 0.750000 1.154281
Cr3   Cr    Cr6+3 0.750800 0.255040 0.750000 1.143582
Cr4   Cr    Cr6+3 0.249200 0.504240 0.250000 1.148123
Cr5   Cr    Cr6+3 0.495760 0.744960 0.250000 1.153806
Cr6   Cr    Cr6+3 0.255040 0.750800 0.250000 1.155027
H1    H     H_    0.980242 0.373388 0.062331 0.172041
H2    H     H_    0.394438 0.021832 0.437357 0.170412
H3    H     H_    0.628003 0.606554 0.062654 0.172002
H4    H     H_    0.982195 0.376084 0.438440 0.171622
H5    H     H_    0.394316 0.021018 0.062210 0.179153
H6    H     H_    0.627943 0.604790 0.437179 0.170111
H7    H     H_    0.371975 0.976575 0.562844 0.170223
H8    H     H_    0.023177 0.394882 0.937241 0.172629
H9    H     H_    0.605382 0.627513 0.562648 0.170238
H10   H     H_    0.373907 0.979443 0.937723 0.171446
H11   H     H_    0.018482 0.394327 0.561704 0.170929
H12   H     H_    0.605201 0.629351 0.936903 0.172408
O1    O     O_R   0.480350 0.140770 0.796330 -0.419859
O2    O     O_R   0.660420 0.519650 0.703670 -0.416346
O3    O     O_R   0.859230 0.339580 0.796330 -0.421795
O4    O     O_R   0.480350 0.140770 0.703670 -0.416946
O5    O     O_R   0.660420 0.519650 0.796330 -0.420494
O6    O     O_R   0.859230 0.339580 0.703670 -0.419995
O7    O     O_R   0.140770 0.480350 0.296330 -0.413949
O8    O     O_R   0.519650 0.660420 0.203670 -0.420587
O9    O     O_R   0.339580 0.859230 0.296330 -0.415973
O10   O     O_R   0.140770 0.480350 0.203670 -0.418506
O11   O     O_R   0.519650 0.660420 0.296330 -0.415535
O12   O     O_R   0.339580 0.859230 0.203670 -0.417523
O13   O     O_R   0.514930 0.348530 0.793250 -0.507360
O14   O     O_R   0.833600 0.485070 0.706750 -0.505750
O15   O     O_R   0.651470 0.166400 0.793250 -0.508633
O16   O     O_R   0.514930 0.348530 0.706750 -0.504722
O17   O     O_R   0.833600 0.485070 0.793250 -0.506685
O18   O     O_R   0.651470 0.166400 0.706750 -0.508985
O19   O     O_R   0.348530 0.514930 0.293250 -0.507404
O20   O     O_R   0.485070 0.833600 0.206750 -0.507782
O21   O     O_R   0.166400 0.651470 0.293250 -0.502928
O22   O     O_R   0.348530 0.514930 0.206750 -0.506082
O23   O     O_R   0.485070 0.833600 0.293250 -0.504779
O24   O     O_R   0.166400 0.651470 0.206750 -0.506983
O25   O     O_3   0.666667 0.333333 0.750000 -0.293657
O26   O     O_3   0.333333 0.666667 0.250000 -0.294694
C97   C     C_1   0.977155 0.670745 0.835877 0.317703
N1    N     N_1   0.984870 0.738566 0.812773 -0.152642
C98   C     C_1   0.693577 0.022551 0.664187 0.329665
N2    N     N_1   0.753278 0.014175 0.687307 -0.142611
C99   C     C_1   0.329831 0.305430 0.836272 0.307677
N3    N     N_1   0.261698 0.245095 0.813311 -0.132600
C100  C     C_1   0.980584 0.671410 0.665060 0.323817
N4    N     N_1   0.990393 0.739111 0.688675 -0.176380
C101  C     C_1   0.694365 0.023922 0.836131 0.308948
N5    N     N_1   0.753872 0.015231 0.813036 -0.115472
C102  C     C_1   0.329058 0.307291 0.664238 0.318445
N6    N     N_1   0.261072 0.248342 0.687531 -0.197448
C103  C     C_1   0.671078 0.978862 0.335719 0.309264
N7    N     N_1   0.739179 0.988288 0.312414 -0.166667
C104  C     C_1   0.021001 0.692002 0.164041 0.310568
N8    N     N_1   0.010867 0.750528 0.187201 -0.116028
C105  C     C_1   0.306695 0.328835 0.335773 0.327359
N9    N     N_1   0.247106 0.260721 0.312638 -0.130798
C106  C     C_1   0.670751 0.977896 0.164394 0.317617
N10   N     N_1   0.738443 0.985812 0.187621 -0.156238
C107  C     C_1   0.019188 0.690499 0.334916 0.317956
N11   N     N_1   0.009248 0.748279 0.311277 -0.163864
C108  C     C_1   0.304892 0.330377 0.163283 0.300096
N12   N     N_1   0.244837 0.262133 0.186253 -0.154632
C109  C     C_1   0.014624 0.716840 0.072914 0.274329
N13   N     N_1   0.012955 0.791783 0.058389 -0.162739
C110  C     C_1   0.704994 0.990352 0.426730 0.280151
N14   N     N_1   0.782682 0.994076 0.441150 -0.183792
C111  C     C_1   0.282070 0.300542 0.072094 0.258433
N15   N     N_1   0.206492 0.225237 0.057193 -0.191522
C112  C     C_1   0.006359 0.714589 0.425716 0.279513
N16   N     N_1   0.001218 0.788195 0.439678 -0.195447
C113  C     C_1   0.706926 0.993456 0.073678 0.283865
N17   N     N_1   0.785014 0.997819 0.059403 -0.162386
C114  C     C_1   0.285232 0.294938 0.426700 0.283464
N18   N     N_1   0.211240 0.217313 0.441132 -0.179041
C115  C     C_1   0.714899 0.010053 0.573273 0.284002
N19   N     N_1   0.788927 0.006538 0.558834 -0.180324
C116  C     C_1   0.992427 0.705903 0.926669 0.281651
N20   N     N_1   0.996382 0.783666 0.941110 -0.159917
C117  C     C_1   0.295016 0.285199 0.573250 0.279823
N21   N     N_1   0.217344 0.211197 0.558829 -0.186041
C118  C     C_1   0.718053 0.015657 0.927126 0.275182
N22   N     N_1   0.793155 0.014295 0.941654 -0.151600
C119  C     C_1   0.993510 0.708248 0.574248 0.280608
N23   N     N_1   0.998539 0.786925 0.560253 -0.196594
C120  C     C_1   0.297977 0.284297 0.927286 0.274618
N24   N     N_1   0.221756 0.209355 0.942014 -0.151428
S1    S     S_3+6 0.980750 0.307625 0.147463 0.051879
O27   O     O_2   0.889990 0.218351 0.121508 -0.276989
O28   O     O_2   0.080088 0.294251 0.145206 -0.256878
O29   O     O_3   0.938458 0.296617 0.198328 -0.476644
H13   H     H_    0.928686 0.225368 0.208374 0.398027
S2    S     S_3+6 0.329800 0.023397 0.352255 0.053328
O30   O     O_2   0.337917 0.118679 0.377177 -0.297069
O31   O     O_2   0.354367 0.056212 0.306189 -0.200870
O32   O     O_3   0.201937 0.916021 0.357114 -0.510577
H14   H     H_    0.153120 0.947868 0.354789 0.391286
S3    S     S_3+6 0.692197 0.674178 0.147529 0.069540
O33   O     O_2   0.703693 0.786206 0.146194 -0.215771
O34   O     O_2   0.704048 0.646011 0.192749 -0.211173
O35   O     O_3   0.792957 0.676475 0.117835 -0.493010
H15   H     H_    0.783219 0.601850 0.120803 0.330610
S4    S     S_3+6 0.986107 0.308892 0.353956 0.055940
O36   O     O_2   0.087985 0.299965 0.356155 -0.227520
O37   O     O_2   0.898335 0.218517 0.380530 -0.278985
O38   O     O_3   0.942290 0.293166 0.303151 -0.451099
H16   H     H_    0.875853 0.300720 0.304151 0.344153
S5    S     S_3+6 0.321806 0.012902 0.146486 0.057462
O39   O     O_2   0.212428 0.908940 0.145720 -0.266129
O40   O     O_2   0.349618 0.055913 0.191344 -0.201738
O41   O     O_3   0.314811 0.107351 0.115770 -0.528964
H17   H     H_    0.244843 0.103497 0.123949 0.392327
S6    S     S_3+6 0.693890 0.668703 0.352030 0.052687
O42   O     O_2   0.780399 0.658327 0.376475 -0.301379
O43   O     O_2   0.701159 0.645058 0.305769 -0.198184
O44   O     O_3   0.716512 0.797161 0.357674 -0.507878
H18   H     H_    0.797286 0.845090 0.355231 0.392488
S7    S     S_3+6 0.306065 0.974371 0.648000 0.049364
O45   O     O_2   0.219703 0.877164 0.623644 -0.297114
O46   O     O_2   0.298985 0.943763 0.694292 -0.215735
O47   O     O_3   0.282993 0.079876 0.642221 -0.510197
H19   H     H_    0.202216 0.046807 0.644768 0.389539
S8    S     S_3+6 0.018299 0.325867 0.852504 0.065432
O48   O     O_2   0.917717 0.213984 0.854452 -0.214642
O49   O     O_2   0.057025 0.352696 0.807102 -0.230328
O50   O     O_3   0.117556 0.324246 0.881935 -0.490824
H20   H     H_    0.182453 0.398714 0.878552 0.328476
S9    S     S_3+6 0.670027 0.693655 0.647752 0.055489
O51   O     O_2   0.661743 0.780795 0.622870 -0.295467
O52   O     O_2   0.645535 0.701784 0.693834 -0.196763
O53   O     O_3   0.797934 0.714350 0.642831 -0.512549
H21   H     H_    0.846688 0.795038 0.645180 0.390040
S10   S     S_3+6 0.308214 0.981349 0.852703 0.053554
O54   O     O_2   0.218707 0.891209 0.878778 -0.277375
O55   O     O_2   0.295773 0.081275 0.854835 -0.251823
O56   O     O_3   0.296574 0.938480 0.801887 -0.466805
H22   H     H_    0.225720 0.929638 0.791801 0.395560
S11   S     S_3+6 0.014800 0.323677 0.646310 0.051070
O57   O     O_2   0.913177 0.212558 0.644134 -0.269811
O58   O     O_2   0.103248 0.322223 0.619811 -0.275283
O59   O     O_3   0.058814 0.353450 0.697060 -0.462417
H23   H     H_    0.064934 0.289708 0.706955 0.394746
S12   S     S_3+6 0.673772 0.692737 0.852092 0.069068
O60   O     O_2   0.785748 0.704220 0.853868 -0.213108
O61   O     O_2   0.646323 0.704185 0.806718 -0.212046
O62   O     O_3   0.675637 0.793803 0.881461 -0.492289
H24   H     H_    0.601082 0.784070 0.878209 0.328438

loop_
_geom_bond_atom_site_label_1
_geom_bond_atom_site_label_2
_ccdc_geom_bond_type
C68   C80   A    
C96   S3    S    
S2    O31   D    
C112  N16   T    
C105  N9    T    
C82   C94   A    
C21   C66   S    
C77   H10   S    
C18   C21   T    
C33   C45   A    
C38   C98   S    
C39   C51   A    
C108  N12   T    
C45   C105  S    
C55   C110  S    
C30   C90   A    
C35   C47   A    
S8    O48   D    
C74   H7    S    
C29   C89   A    
C99   N3    T    
C87   S12   S    
C4    C30   S    
C73   H8    S    
C48   C108  S    
C32   C92   A    
C117  N21   T    
Cr4   O19   S    
C15   C72   S    
C45   C57   A    
C109  N13   T    
C31   C43   A    
Cr3   O18   S    
C60   C111  S    
C40   C52   A    
C10   O22   A    
Cr1   O16   S    
C7    O19   A    
S9    O53   S    
C53   C118  S    
Cr6   O24   S    
C75   C87   A    
S6    O43   D    
S2    O32   S    
C41   C101  S    
C60   C72   A    
C19   C62   S    
C98   N2    T    
Cr1   O4    S    
S5    O41   S    
C81   C93   A    
S12   O60   D    
S1    O28   D    
Cr4   O7    S    
C84   C96   A    
C20   C61   S    
C3    C29   S    
O50   H20   S    
C44   C56   A    
Cr6   O21   S    
Cr4   O26   S    
C100  N4    T    
C25   C37   A    
Cr3   O6    S    
C57   C114  S    
Cr2   O2    S    
S11   O57   D    
C27   C39   A    
Cr2   O17   S    
C28   C88   A    
S3    O35   S    
Cr5   O11   S    
C102  N6    T    
C90   S9    S    
C78   H9    S    
C34   C46   A    
Cr1   O1    S    
C53   C65   A    
C76   C88   A    
C38   C50   A    
C79   C91   A    
C40   C100  S    
Cr1   O13   S    
C29   C41   A    
C18   C69   S    
Cr2   O14   S    
S2    O30   D    
C81   H6    S    
C11   C31   S    
S3    O33   D    
C103  N7    T    
C113  N17   T    
O56   H22   S    
C46   C58   A    
Cr5   O8    S    
S4    O36   D    
C7    C33   S    
Cr3   O25   S    
S1    O27   D    
C16   C71   S    
S10   O55   D    
C59   C112  S    
Cr5   O26   S    
C48   C60   A    
C71   C83   A    
C32   C44   A    
C66   C78   A    
C11   O9    A    
C49   C61   A    
O35   H15   S    
Cr3   O15   S    
C80   H1    S    
C8    O20   A    
O38   H16   S    
C111  N15   T    
C1    O13   A    
Cr2   O5    S    
C50   C115  S    
C51   C63   A    
C6    O18   A    
C52   C64   A    
C110  N14   T    
C91   S2    S    
Cr5   O23   S    
S6    O42   D    
C58   C70   A    
C4    O16   A    
C26   C86   A    
C61   C73   A    
O44   H18   S    
Cr5   O20   S    
C88   S11   S    
C7    O11   A    
C5    O3    A    
Cr4   O10   S    
S10   O56   S    
C89   S10   S    
C80   C92   A    
S1    O29   S    
C118  N22   T    
C3    O1    A    
C22   C65   S    
C1    O5    A    
S9    O51   D    
Cr3   O3    S    
C65   C77   A    
C37   C49   A    
C36   C96   A    
C9    O7    A    
C106  N10   T    
C12   O10   A    
S4    O38   S    
C14   C67   S    
C62   C74   A    
C83   C95   A    
C39   C99   S    
C25   C85   A    
S5    O39   D    
C64   C76   A    
C54   C117  S    
C67   C79   A    
S11   O58   D    
C75   H12   S    
Cr6   O26   S    
C82   H5    S    
C74   C86   A    
C27   C87   A    
C42   C102  S    
C41   C53   A    
C72   C84   A    
C37   C97   S    
C69   C81   A    
C5    C25   S    
C9    O21   A    
C43   C55   A    
C23   C64   S    
S4    O37   D    
C24   C63   S    
C31   C91   A    
C50   C62   A    
C12   O24   A    
C79   H2    S    
C58   C113  S    
C84   H3    S    
C52   C119  S    
Cr6   O9    S    
S8    O50   S    
S7    O45   D    
C56   C109  S    
C92   S1    S    
C9    C35   S    
C73   C85   A    
C8    O12   A    
C15   C24   T    
C2    O6    A    
C13   C20   T    
O59   H23   S    
C93   S6    S    
C3    O15   A    
C44   C104  S    
C14   C19   T    
C4    O2    A    
C26   C38   A    
C34   C94   A    
C10   O8    A    
S6    O44   S    
S8    O49   D    
C55   C67   A    
O62   H24   S    
S12   O62   S    
C54   C66   A    
C35   C95   A    
C16   C23   T    
C17   C22   T    
C83   H4    S    
Cr2   O25   S    
Cr6   O12   S    
C56   C68   A    
O29   H13   S    
C76   H11   S    
C95   S4    S    
C120  N24   T    
S9    O52   D    
C114  N18   T    
C107  N11   T    
C101  N5    T    
C42   C54   A    
S7    O47   S    
C119  N23   T    
C6    C26   S    
C63   C75   A    
C78   C90   A    
C46   C106  S    
O53   H21   S    
S5    O40   D    
S12   O61   D    
C36   C48   A    
S11   O59   S    
O32   H14   S    
C86   S7    S    
C11   O23   A    
O47   H19   S    
C70   C82   A    
C85   S8    S    
S3    O34   D    
C51   C120  S    
C77   C89   A    
C47   C59   A    
C116  N20   T    
C47   C107  S    
C5    O17   A    
C59   C71   A    
O41   H17   S    
C43   C103  S    
C94   S5    S    
C115  N19   T    
S10   O54   D    
C8    C34   S    
C104  N8    T    
C1    C27   S    
C28   C40   A    
C30   C42   A    
C2    C28   S    
C10   C36   S    
C57   C69   A    
C33   C93   A    
C97   N1    T    
C17   C70   S    
Cr1   O25   S    
S7    O46   D    
C12   C32   S    
Cr4   O22   S    
C6    O4    A    
C49   C116  S    
C13   C68   S    
C2    O14   A    
