data_mof_unit_17681.cif
_audit_creation_date              2012-12-11T17:39:33-0500
_audit_creation_method            fapswitch 2.2
_symmetry_space_group_name_H-M    P1
_symmetry_Int_Tables_number       1
_space_group_crystal_system       triclinic
_cell_length_a                    15.162723
_cell_length_b                    15.130007
_cell_length_c                    14.990774
_cell_angle_alpha                 108.540678
_cell_angle_beta                  111.163899
_cell_angle_gamma                 109.000205
_cell_volume                      2636.65090761

loop_
_atom_site_label
_atom_site_type_symbol
_atom_type_description
_atom_site_fract_x
_atom_site_fract_y
_atom_site_fract_z
_atom_type_partial_charge
C1    C     C_R   0.912896 0.911513 0.713507 -0.149650
C2    C     C_R   0.911072 0.689121 0.470002 -0.106940
C3    C     C_R   0.708904 0.784821 0.191176 -0.146931
C4    C     C_R   0.088703 0.313164 0.556253 -0.105316
C5    C     C_R   0.286886 0.975786 0.568375 -0.135704
C6    C     C_R   0.658337 0.685844 0.181921 0.129224
C7    C     C_R   0.336282 0.018137 0.519490 0.107488
C8    C     C_R   0.004041 0.679130 0.500460 0.081378
C9    C     C_R   0.997777 0.960068 0.172902 0.101802
C10   C     C_R   0.407671 0.592552 0.249150 -0.140951
C11   C     C_R   0.416655 0.694205 0.283037 -0.123447
C12   C     C_R   0.994595 0.320151 0.538704 0.049609
C13   C     C_R   0.449208 0.758974 0.392431 0.135733
C14   C     C_R   0.474043 0.721652 0.467399 -0.205716
C15   C     C_R   0.464919 0.620067 0.433500 -0.088923
C16   C     C_R   0.294508 0.208465 0.805712 -0.151679
C17   C     C_R   0.431647 0.555475 0.324346 -0.075529
C18   C     C_R   0.400193 0.895449 0.465487 -0.273086
C19   C     C_R   0.415700 0.999956 0.500490 0.093291
C20   C     C_R   0.495665 0.079286 0.499951 0.125753
C21   C     C_R   0.559602 0.052200 0.464991 -0.247986
C22   C     C_R   0.547896 0.949940 0.435233 0.055070
C23   C     C_R   0.358022 0.299718 0.810435 0.153835
C24   C     C_R   0.465673 0.869154 0.430886 0.018221
C25   C     C_R   0.512018 0.234873 0.468903 -0.487934
C26   C     C_R   0.542209 0.343946 0.506773 0.620742
C27   C     C_R   0.583109 0.410973 0.617721 -0.173417
C28   C     C_R   0.697740 0.995284 0.401116 -0.174408
C29   C     C_R   0.593458 0.370234 0.690192 -0.420745
C30   C     C_R   0.560876 0.260574 0.652432 0.590737
C31   C     C_R   0.520532 0.192743 0.540948 -0.002764
C32   C     C_R   0.767887 0.125694 0.182723 -0.102462
C33   C     C_R   0.844295 0.231856 0.265422 -0.140262
C34   C     C_R   0.638055 0.940918 0.434647 0.071042
C35   C     C_R   0.818845 0.288403 0.337091 0.168854
C36   C     C_R   0.714413 0.239568 0.321870 -0.173952
C37   C     C_R   0.638088 0.133395 0.238543 -0.175982
C38   C     C_R   0.665000 0.076119 0.169495 -0.115060
C39   C     C_R   0.916856 0.485115 0.420586 0.122299
C40   C     C_R   0.300683 0.298878 0.713614 -0.124679
C41   C     C_R   0.006321 0.586222 0.505770 -0.004338
C42   C     C_R   0.086872 0.597912 0.601204 0.079270
C43   C     C_R   0.068071 0.510780 0.617876 -0.184362
C44   C     C_R   0.982093 0.409517 0.533432 0.043747
C45   C     C_R   0.710519 0.692850 0.282252 -0.122707
C46   C     C_R   0.904650 0.395554 0.433456 -0.053187
C47   C     C_R   0.265474 0.654790 0.613588 0.550271
C48   C     C_R   0.373439 0.733111 0.659835 -0.325532
C49   C     C_R   0.417407 0.835650 0.744862 -0.253217
C50   C     C_R   0.357788 0.859087 0.792220 0.255915
C51   C     C_R   0.251198 0.779709 0.750565 -0.302835
C52   C     C_R   0.699301 0.910769 0.498678 -0.099707
C53   C     C_R   0.203061 0.679243 0.657530 -0.017403
C54   C     C_2   0.527870 0.461914 0.899130 -0.164035
C55   C     C_2   0.468041 0.376581 0.900415 -0.184582
C56   C     C_R   0.286606 0.068712 0.477951 -0.140540
C57   C     C_2   0.604761 0.562187 0.001954 -0.103585
C58   C     C_2   0.580363 0.587790 0.080561 -0.206558
C59   C     C_R   0.402220 0.146736 0.086324 -0.308701
C60   C     C_R   0.307211 0.052370 0.048233 0.528397
C61   C     C_R   0.211822 0.056951 0.032678 0.024954
C62   C     C_R   0.212906 0.155058 0.055933 -0.230230
C63   C     C_R   0.307136 0.247406 0.092024 -0.095753
C64   C     C_R   0.908273 0.217908 0.480048 -0.109322
C65   C     C_R   0.401782 0.243335 0.107448 -0.173115
C66   C     C_R   0.100271 0.940853 0.077850 0.135158
C67   C     C_R   0.093022 0.778995 0.549447 -0.146525
C68   C     C_R   0.998198 0.911950 0.069989 -0.093904
C69   C     C_R   0.903460 0.850409 0.962586 -0.103759
C70   C     C_R   0.917541 0.830697 0.872843 0.465244
C71   C     C_R   0.014654 0.906778 0.890506 -0.153080
C72   C     C_R   0.110586 0.961154 0.996170 0.007426
C73   C     C_R   0.709761 0.717872 0.887850 -0.098345
C74   C     C_R   0.603883 0.695168 0.862189 -0.154287
C75   C     C_R   0.580777 0.778289 0.890223 -0.086976
C76   C     C_R   0.093985 0.995993 0.798915 -0.104671
C77   C     C_R   0.660817 0.883857 0.934694 -0.151905
C78   C     C_R   0.908918 0.938142 0.187016 -0.160220
C79   C     C_R   0.765718 0.906917 0.956558 -0.177418
C80   C     C_R   0.792221 0.824656 0.938666 0.201428
C81   C     C_R   0.007624 0.940249 0.806771 0.087627
C82   C     C_3   0.737564 0.433144 0.270858 -0.950591
C83   C     C_3   0.405951 0.042637 0.846738 -0.924567
C84   C     C_3   0.182179 0.869010 0.185347 -0.856096
C85   C     C_R   0.089588 0.039661 0.276257 -0.103140
H1    H     H_    0.829219 0.860027 0.686355 0.154260
H2    H     H_    0.382882 0.542866 0.164880 0.105321
H3    H     H_    0.399220 0.722811 0.224591 0.111555
H4    H     H_    0.171006 0.378293 0.596496 0.123195
H5    H     H_    0.506333 0.774308 0.553083 0.123836
H6    H     H_    0.485489 0.592266 0.492230 0.139514
H7    H     H_    0.335060 0.833669 0.461703 0.146318
H8    H     H_    0.625460 0.115029 0.470591 0.138341
H9    H     H_    0.481959 0.182533 0.383395 0.152224
H10   H     H_    0.608196 0.495439 0.648280 0.167990
H11   H     H_    0.628958 0.424744 0.776284 0.153624
H12   H     H_    0.309324 0.115109 0.440542 0.108034
H13   H     H_    0.606739 0.992940 0.107062 0.095435
H14   H     H_    0.317866 0.180821 0.863760 0.119633
H15   H     H_    0.790110 0.081646 0.131151 0.111159
H16   H     H_    0.924791 0.268469 0.276919 0.121364
H17   H     H_    0.694126 0.282048 0.377373 0.130458
H18   H     H_    0.559336 0.094484 0.229861 0.116145
H19   H     H_    0.130991 0.518676 0.689436 0.124292
H20   H     H_    0.423497 0.714160 0.630342 0.143668
H21   H     H_    0.499020 0.896588 0.775497 0.158222
H22   H     H_    0.670434 0.021905 0.343098 0.120533
H23   H     H_    0.176916 0.800955 0.582506 0.121400
H24   H     H_    0.203996 0.798243 0.785544 0.184812
H25   H     H_    0.508918 0.462990 0.822918 0.124460
H26   H     H_    0.492854 0.372478 0.976115 0.134278
H27   H     H_    0.678303 0.617994 0.011081 0.134720
H28   H     H_    0.507394 0.533739 0.073771 0.132983
H29   H     H_    0.474835 0.315037 0.135489 0.137500
H30   H     H_    0.476105 0.145322 0.097728 0.146403
H31   H     H_    0.140162 0.159522 0.045100 0.139986
H32   H     H_    0.306638 0.322115 0.107873 0.114228
H33   H     H_    0.331097 0.352629 0.685388 0.091559
H34   H     H_    0.825798 0.879556 0.126729 0.121883
H35   H     H_    0.727318 0.652718 0.867854 0.121052
H36   H     H_    0.539193 0.613479 0.820606 0.113904
H37   H     H_    0.500059 0.760230 0.875292 0.126467
H38   H     H_    0.641338 0.947642 0.951512 0.108753
H39   H     H_    0.827206 0.989000 0.990310 0.112987
H40   H     H_    0.676643 0.864451 0.536372 0.107302
H41   H     H_    0.824929 0.194257 0.456576 0.117366
H42   H     H_    0.176745 0.013251 0.843342 0.120529
H43   H     H_    0.686892 0.632055 0.305156 0.101066
H44   H     H_    0.504634 0.330063 0.362860 0.311980
H45   H     H_    0.171783 0.084948 0.296515 0.110638
H46   H     H_    0.598788 0.276708 0.797355 0.318385
H47   H     H_    0.873001 0.441886 0.258173 0.181326
H48   H     H_    0.713797 0.481453 0.235320 0.250988
H49   H     H_    0.716148 0.438695 0.335223 0.257887
H50   H     H_    0.690110 0.348343 0.203540 0.259099
H51   H     H_    0.273020 0.550727 0.504103 0.311195
H52   H     H_    0.481342 0.988303 0.942612 0.153832
H53   H     H_    0.444359 0.122129 0.919489 0.248189
H54   H     H_    0.321192 0.019434 0.789202 0.249560
H55   H     H_    0.454831 0.050781 0.806636 0.262959
H56   H     H_    0.829792 0.630775 0.442625 0.125484
H57   H     H_    0.380413 0.968277 0.049808 0.306389
H58   H     H_    0.268558 0.009361 0.188601 0.184790
H59   H     H_    0.255322 0.893645 0.262188 0.240824
H60   H     H_    0.175893 0.807665 0.114779 0.260593
H61   H     H_    0.109308 0.833552 0.191370 0.252393
H62   H     H_    0.861609 0.729585 0.722591 0.314528
H63   H     H_    0.679452 0.808070 0.130296 0.110379
H64   H     H_    0.312769 0.938417 0.614947 0.117500
H65   H     H_    0.425734 0.477340 0.298525 0.129685
N1    N     N_R   0.941940 0.944580 0.650780 -0.047009
N2    N     N_R   0.204460 0.150250 0.707090 -0.042739
N3    N     N_R   0.794270 0.003240 0.446420 -0.039171
N4    N     N_R   0.204920 0.207570 0.650770 -0.045186
N5    N     N_R   0.793810 0.945920 0.502740 -0.043082
N6    N     N_R   0.943620 0.152590 0.446420 -0.042356
N7    N     N_R   0.055110 0.000900 0.707100 -0.048449
N8    N     N_R   0.795080 0.792430 0.349230 -0.040439
N9    N     N_2   0.853414 0.472959 0.315390 -0.101887
N10   N     N_2   0.404852 0.963233 0.880731 -0.104639
N11   N     N_2   0.192217 0.961706 0.172027 -0.116025
N12   N     N_R   0.206190 0.054080 0.497260 -0.038397
N13   N     N_R   0.056380 0.847410 0.553580 -0.045575
N14   N     N_R   0.944890 0.999100 0.292900 -0.043010
N15   N     N_R   0.058060 0.055420 0.349220 -0.047866
N16   N     N_R   0.943200 0.791100 0.497260 -0.046425
N17   N     N_R   0.795540 0.849750 0.292910 -0.042037
N18   N     N_R   0.205730 0.996760 0.553580 -0.042056
N19   N     N_R   0.056800 0.208900 0.502740 -0.049056
Ni1   Ni    Ni4+2 0.869690 0.869690 0.500000 0.217045
Ni2   Ni    Ni4+2 0.130310 0.130310 0.500000 0.217656
Ni3   Ni    Ni4+2 0.129250 0.998840 0.629170 0.210360
Ni4   Ni    Ni4+2 0.870750 0.001160 0.370830 0.220587
O1    O     O_3   0.534293 0.387458 0.438048 -0.787025
O2    O     O_3   0.570991 0.219029 0.723032 -0.771242
O3    O     O_3   0.218722 0.554304 0.525026 -0.778810
O4    O     O_3   0.305460 0.955849 0.026613 -0.779332
O5    O     O_3   0.831229 0.749092 0.769510 -0.777001

loop_
_geom_bond_atom_site_label_1
_geom_bond_atom_site_label_2
_ccdc_geom_bond_type
C25   C31   A    
C66   C68   A    
C63   C65   A    
C41   C42   A    
C78   N14   A    
C6    C45   A    
C56   N12   A    
C27   C29   A    
C75   H37   S    
C65   H29   S    
C6    C58   S    
C27   H10   S    
C17   H65   S    
H62   O5    S    
C38   H13   S    
C3    C6    A    
C54   C57   S    
C83   H54   S    
C3    N17   A    
C39   C41   A    
C84   H60   S    
C52   N5    A    
C26   C27   A    
C37   C38   A    
N1    Ni1   S    
C33   H16   S    
C56   H12   S    
C36   C37   A    
C40   H33   S    
N7    Ni3   S    
C30   C31   A    
N2    Ni3   S    
C67   H23   S    
C57   H27   S    
C26   O1    S    
C28   H22   S    
C1    C81   A    
C23   C40   A    
N3    Ni4   S    
N6    N19   A    
C5    H64   S    
C54   H25   S    
C36   H17   S    
C18   C19   A    
C73   C74   A    
C5    N18   A    
C82   H50   S    
C43   H19   S    
C14   H5    S    
C9    C85   A    
C66   C72   A    
C83   N10   S    
C35   C36   A    
C68   C69   A    
C58   H28   S    
C70   C71   A    
C32   C38   A    
C4    C12   A    
C29   C30   A    
C2    N16   A    
C47   O3    S    
C47   C53   A    
C55   H26   S    
C28   C34   A    
C3    H63   S    
C51   H24   S    
C73   H35   S    
C13   C14   A    
N19   Ni2   S    
C40   N4    A    
C61   C62   A    
C7    C56   A    
C83   H55   S    
C44   C46   A    
N8    N17   A    
C77   C79   A    
C22   C34   S    
C76   N7    A    
H47   N9    S    
C4    N19   A    
N12   Ni2   S    
C47   C48   A    
N14   Ni4   S    
N13   N16   A    
C8    C41   S    
C74   C75   A    
C37   H18   S    
N8    Ni1   S    
H51   O3    S    
C50   N10   S    
C25   C26   A    
N6    Ni4   S    
C32   H15   S    
C13   C24   S    
C60   C61   A    
C51   C53   A    
C82   H49   S    
C43   C44   A    
C59   C60   A    
C62   H31   S    
C62   C63   A    
C77   H38   S    
C85   H45   S    
C48   H20   S    
N18   Ni3   S    
C11   H3    S    
C50   C51   A    
C10   H2    S    
C16   N2    A    
N13   Ni3   S    
C75   C77   A    
N15   Ni2   S    
C39   C46   A    
N12   N18   A    
C61   C72   S    
C59   H30   S    
C48   C49   A    
N2    N4    A    
N16   Ni1   S    
C16   C23   A    
C64   H41   S    
C28   N3    A    
C18   C24   A    
H44   O1    S    
N3    N5    A    
C42   C43   A    
C10   C17   A    
N1    N7    A    
C30   O2    S    
C5    C7    A    
C4    H4    S    
C1    H1    S    
C15   C17   A    
C12   C64   A    
C54   C55   D    
N14   N15   A    
H52   N10   S    
C39   N9    S    
C34   C52   A    
C2    C8    A    
C45   N8    A    
C76   C81   A    
C29   H11   S    
C52   H40   S    
C16   H14   S    
C23   C55   S    
C49   H21   S    
C84   H61   S    
C79   H39   S    
C64   N6    A    
C7    C19   S    
N17   Ni4   S    
C18   H7    S    
C32   C33   A    
C19   C20   A    
C78   H34   S    
C60   O4    S    
C9    C68   S    
C85   N15   A    
C71   C72   A    
C42   C53   S    
C70   O5    S    
C59   C65   A    
C82   N9    S    
C11   C13   A    
N5    Ni1   S    
C57   C58   D    
C21   H8    S    
C82   H48   S    
C63   H32   S    
C2    H56   S    
H46   O2    S    
C33   C35   A    
C73   C80   A    
N4    Ni2   S    
C1    N1    A    
C22   C24   A    
C9    C78   A    
C69   C70   A    
C10   C11   A    
C15   H6    S    
C79   C80   A    
H57   O4    S    
C67   N13   A    
C25   H9    S    
C74   H36   S    
C20   C21   A    
C66   N11   S    
C8    C67   A    
C12   C44   S    
C49   C50   A    
C76   H42   S    
C84   H59   S    
C14   C15   A    
C69   C80   S    
C45   H43   S    
C21   C22   A    
C35   C46   S    
H58   N11   S    
C83   H53   S    
C84   N11   S    
C71   C81   S    
C20   C31   S    
