data_mof_unit_19191.cif
_audit_creation_date              2012-10-26T18:43:31-0400
_audit_creation_method            fapswitch 2.2
_symmetry_space_group_name_H-M    P1
_symmetry_Int_Tables_number       1
_space_group_crystal_system       triclinic
_cell_length_a                    10.801599
_cell_length_b                    10.834619
_cell_length_c                    9.590932
_cell_angle_alpha                 90.382461
_cell_angle_beta                  91.00475
_cell_angle_gamma                 91.962235
_cell_volume                      1121.57798194

loop_
_atom_site_label
_atom_site_type_symbol
_atom_type_description
_atom_site_fract_x
_atom_site_fract_y
_atom_site_fract_z
_atom_type_partial_charge
C1    C     C_R   0.500635 0.262498 0.499665 0.564808
C2    C     C_R   0.479713 0.936452 0.622943 0.025918
C3    C     C_3   0.555306 0.933341 0.754619 -0.269566
C4    C     C_R   0.259884 0.500461 0.498945 0.547542
C5    C     C_3   0.555155 0.073236 0.754878 -0.256636
C6    C     C_R   0.557445 0.594038 0.075602 0.141307
C7    C     C_R   0.431781 0.414108 0.071852 0.069671
C8    C     C_R   0.428790 0.416541 0.922998 0.062557
C9    C     C_R   0.557747 0.593816 0.928708 0.133301
C10   C     C_3   0.691355 0.631107 0.926957 -0.261424
C11   C     C_3   0.691265 0.630703 0.084802 -0.274524
C12   C     C_3   0.877976 0.501836 0.501999 0.015557
C13   C     C_R   0.500134 0.737464 0.500174 0.545060
C14   C     C_R   0.739907 0.503105 0.501118 0.543995
C15   C     C_3   0.074557 0.514434 0.649676 -0.241591
C16   C     C_3   0.934053 0.535978 0.649602 -0.122038
C17   C     C_3   0.073540 0.612666 0.413540 -0.242226
C18   C     C_3   0.064432 0.378005 0.431270 -0.114326
C19   C     C_3   0.121633 0.500879 0.497203 0.001708
C20   C     C_1   0.847099 0.302674 0.355592 0.211652
C21   C     C_1   0.366097 0.314643 0.140894 0.260448
C22   C     C_1   0.347685 0.330082 0.847063 0.247210
C23   C     C_3   0.931182 0.597663 0.395060 -0.234042
C24   C     C_1   0.911541 0.665601 0.688976 0.178967
C25   C     C_1   0.083659 0.374165 0.278292 0.240824
C26   C     C_3   0.923171 0.369188 0.464685 -0.135899
C27   C     C_R   0.479898 0.063776 0.622691 0.042985
C28   C     C_R   0.494926 0.128875 0.498551 0.016725
C29   C     C_R   0.498784 0.063023 0.372134 -0.129916
C30   C     C_R   0.496769 0.934640 0.372239 -0.154706
C31   C     C_R   0.493592 0.870507 0.499106 0.006213
Cu1   Cu    Cu3+1 0.499990 0.499980 0.640670 0.960853
Cu2   Cu    Cu3+1 0.500010 0.500020 0.359330 0.977814
H1    H     H_    0.909291 0.565164 0.287226 0.137470
H2    H     H_    0.648705 0.896338 0.738301 0.157211
H3    H     H_    0.502353 0.111720 0.842534 0.154521
H4    H     H_    0.648467 0.117246 0.739789 0.144263
H5    H     H_    0.093263 0.428512 0.708259 0.145807
H6    H     H_    0.706275 0.724875 0.883573 0.150013
H7    H     H_    0.707426 0.723823 0.132385 0.126813
H8    H     H_    0.097956 0.700313 0.470304 0.137257
H9    H     H_    0.888495 0.688990 0.407531 0.131992
H10   H     H_    0.110326 0.297167 0.477758 0.116374
H11   H     H_    0.912609 0.310813 0.559147 0.095612
H12   H     H_    0.509045 0.110036 0.273659 0.163484
H13   H     H_    0.748856 0.558107 0.882904 0.155916
H14   H     H_    0.748128 0.556672 0.129057 0.161531
H15   H     H_    0.892071 0.475169 0.730215 0.115132
H16   H     H_    0.126349 0.591008 0.705882 0.152728
H17   H     H_    0.116928 0.619910 0.309472 0.147001
H18   H     H_    0.503679 0.886396 0.273530 0.139230
H19   H     H_    0.502822 0.891263 0.842012 0.144233
N1    N     N_R   0.500800 0.500930 0.147930 -0.250383
N2    N     N_R   0.500800 0.500890 0.852020 -0.254967
N3    N     N_1   0.787849 0.250725 0.270738 -0.287174
N4    N     N_1   0.313603 0.233007 0.193482 -0.297356
N5    N     N_1   0.281891 0.260589 0.787621 -0.308538
N6    N     N_1   0.895273 0.767434 0.718468 -0.329936
N7    N     N_1   0.094535 0.373092 0.158469 -0.287996
O1    O     O_R   0.500000 0.319640 0.618810 -0.498818
O2    O     O_R   0.500010 0.319680 0.381230 -0.491012
O3    O     O_R   0.317690 0.499960 0.618790 -0.503703
O4    O     O_R   0.317700 0.500000 0.381210 -0.494692
O5    O     O_R   0.499990 0.680320 0.618770 -0.498570
O6    O     O_R   0.500000 0.680360 0.381190 -0.514168
O7    O     O_R   0.682300 0.500000 0.618790 -0.515552
O8    O     O_R   0.682310 0.500040 0.381210 -0.501944

loop_
_geom_bond_atom_site_label_1
_geom_bond_atom_site_label_2
_ccdc_geom_bond_type
C17   H17   S    
C10   H13   S    
C21   N4    T    
C8    C22   S    
C14   O8    A    
C15   H5    S    
C2    C27   A    
C5    H4    S    
C1    C28   S    
C29   C30   A    
C25   N7    T    
C9    C10   S    
Cu1   O7    S    
C11   H14   S    
C4    O4    A    
C3    H2    S    
Cu2   O4    S    
C23   H1    S    
Cu1   Cu2   S    
C16   H15   S    
C6    C9    A    
C2    C3    S    
C14   O7    A    
Cu2   O6    S    
C7    C8    A    
C16   C24   S    
C13   O6    A    
C18   H10   S    
C12   C26   S    
C15   C19   S    
C23   H9    S    
C12   C23   S    
Cu2   O8    S    
C17   C23   S    
C13   O5    A    
C20   C26   S    
C22   N5    T    
C20   N3    T    
C12   C16   S    
C7    C21   S    
C24   N6    T    
C28   C29   A    
C17   C19   S    
C30   H18   S    
C12   C14   S    
C15   H16   S    
Cu2   N1    S    
C30   C31   A    
C3    H19   S    
C17   H8    S    
C10   C11   S    
Cu1   O1    S    
C6    N1    A    
C26   H11   S    
C11   H7    S    
C5    H3    S    
C4    O3    A    
C27   C28   A    
C1    O2    A    
Cu1   O5    S    
Cu2   O2    S    
C18   C19   S    
C1    O1    A    
Cu1   N2    S    
C6    C11   S    
C18   C25   S    
C7    N1    A    
C10   H6    S    
C8    N2    A    
C9    N2    A    
Cu1   O3    S    
C5    C27   S    
C4    C19   S    
C13   C31   S    
C15   C16   S    
C29   H12   S    
C2    C31   A    
C3    C5    S    
C18   C26   S    
