data_mof_unit_67973.cif
_audit_creation_date              2012-12-10T20:52:09-0500
_audit_creation_method            fapswitch 2.2
_symmetry_space_group_name_H-M    P1
_symmetry_Int_Tables_number       1
_space_group_crystal_system       triclinic
_cell_length_a                    10.745879
_cell_length_b                    8.917239
_cell_length_c                    8.169221
_cell_angle_alpha                 88.22427
_cell_angle_beta                  92.396063
_cell_angle_gamma                 90.804362
_cell_volume                      781.680292683

loop_
_atom_site_label
_atom_site_type_symbol
_atom_type_description
_atom_site_fract_x
_atom_site_fract_y
_atom_site_fract_z
_atom_type_partial_charge
C1    C     C_R   0.501208 0.218259 0.501656 0.961973
C2    C     C_R   0.501241 0.781780 0.498502 0.943810
C3    C     C_R   0.873555 0.503134 0.508257 -0.067054
C4    C     C_R   0.127573 0.498916 0.491500 -0.066041
C5    C     C_R   0.943929 0.428412 0.633946 0.036156
C6    C     C_R   0.057795 0.579553 0.369424 -0.005917
C7    C     C_1   0.502893 0.065258 0.502520 -0.134430
C8    C     C_1   0.502908 0.934834 0.497951 -0.140714
C9    C     C_R   0.259747 0.501256 0.496658 0.878037
C10   C     C_R   0.740626 0.500415 0.503271 0.904505
C11   C     C_R   0.177524 0.903554 0.095217 -0.015783
C12   C     C_R   0.802512 0.183485 0.974175 -0.037673
C13   C     C_R   0.124673 0.825744 0.230928 -0.205608
C14   C     C_R   0.865256 0.222007 0.828606 -0.109099
C15   C     C_R   0.113168 0.666848 0.231825 0.042284
C16   C     C_R   0.889905 0.375300 0.788996 0.020309
C17   C     C_R   0.148685 0.588949 0.095940 -0.079106
C18   C     C_R   0.858365 0.485842 0.896332 -0.128257
C19   C     C_R   0.200669 0.665376 0.964424 -0.207317
C20   C     C_R   0.793623 0.448132 0.034091 -0.141694
C21   C     C_R   0.216962 0.820393 0.964329 -0.085646
C22   C     C_R   0.767688 0.298556 0.075602 -0.090957
C23   C     C_R   0.930517 0.579514 0.379592 -0.163557
C24   C     C_R   0.070822 0.423570 0.621767 -0.184545
H1    H     H_    0.256477 0.875810 0.858253 0.191042
H2    H     H_    0.715465 0.272589 0.183468 0.194919
H3    H     H_    0.136534 0.468271 0.092356 0.173240
H4    H     H_    0.876600 0.603346 0.866935 0.164935
H5    H     H_    0.227300 0.603943 0.861410 0.179488
H6    H     H_    0.758327 0.537894 0.102132 0.166639
H7    H     H_    0.875987 0.645331 0.290093 0.180964
H8    H     H_    0.125860 0.365769 0.718062 0.161884
N1    N     N_1   0.500020 0.500030 0.073640 -0.052979
N2    N     N_1   0.499980 0.499970 0.926360 -0.045503
O1    O     O_R   0.499990 0.285340 0.636850 -0.596836
O2    O     O_R   0.500010 0.714660 0.363150 -0.608802
O3    O     O_R   0.500010 0.285350 0.363100 -0.621632
O4    O     O_R   0.499990 0.714650 0.636900 -0.612391
O5    O     O_R   0.316750 0.500000 0.636870 -0.657084
O6    O     O_R   0.683250 0.500000 0.363130 -0.657501
O7    O     O_R   0.316770 0.500020 0.363120 -0.607640
O8    O     O_R   0.683230 0.499980 0.636880 -0.614050
Zn1   Zn    Zn3+2 0.499990 0.499990 0.682780 0.990684
Zn2   Zn    Zn3+2 0.500010 0.500010 0.317220 0.987045
C25   C     C_2   0.188013 0.070416 0.080890 0.899322
O9    O     O_2   0.119728 0.150074 0.155669 -0.609648
O10   O     O_R   0.274451 0.136900 0.976678 -0.798486
H9    H     H_    0.272317 0.250587 0.975513 0.334502
C26   C     C_2   0.762511 0.027194 0.017466 0.944982
O11   O     O_2   0.753446 0.988198 0.161411 -0.580408
O12   O     O_R   0.729901 0.926281 0.894626 -0.794354
H10   H     H_    0.703230 0.824352 0.940356 0.339003
C27   C     C_2   0.077779 0.908648 0.368885 0.986695
O13   O     O_2   0.966980 0.902364 0.394489 -0.526419
O14   O     O_R   0.156917 0.996191 0.467990 -0.763516
H11   H     H_    0.246588 0.992500 0.435472 0.281903
C28   C     C_2   0.906027 0.104479 0.720528 1.010002
O15   O     O_2   0.885446 0.117646 0.572713 -0.542953
O16   O     O_R   0.967476 0.978596 0.788583 -0.791963
H12   H     H_    0.987301 0.902209 0.704797 0.371240

loop_
_geom_bond_atom_site_label_1
_geom_bond_atom_site_label_2
_ccdc_geom_bond_type
O14   H11   S    
C24   H8    S    
C10   O8    A    
O1    Zn1   S    
C2    O4    A    
O6    Zn2   S    
C3    C23   A    
O10   H9    S    
O2    Zn2   S    
C1    O3    A    
O3    Zn2   S    
C27   O14   S    
N1    N2    T    
C4    C9    S    
O16   H12   S    
C3    C10   S    
C20   H6    S    
C25   O9    D    
C11   C13   A    
C28   O15   D    
C5    C24   A    
C1    C7    S    
C6    C23   A    
C10   O6    A    
C19   C21   A    
C12   C14   A    
C12   C26   S    
C13   C27   S    
C17   H3    S    
C13   C15   A    
C4    C24   A    
O7    Zn2   S    
C14   C16   A    
C11   C25   S    
C4    C6    A    
C28   O16   S    
O8    Zn1   S    
N2    Zn1   S    
O12   H10   S    
C19   H5    S    
C12   C22   A    
C7    C8    T    
C18   H4    S    
C1    O1    A    
C18   C20   A    
C16   C18   A    
C26   O11   D    
C22   H2    S    
C25   O10   S    
C2    O2    A    
C15   C17   A    
C14   C28   S    
C21   H1    S    
C5    C16   S    
O5    Zn1   S    
C17   C19   A    
C6    C15   S    
C27   O13   D    
N1    Zn2   S    
C9    O7    A    
C11   C21   A    
C9    O5    A    
C2    C8    S    
O4    Zn1   S    
C26   O12   S    
C20   C22   A    
C3    C5    A    
C23   H7    S    
