data_mof_unit_12649.cif
_audit_creation_date              2012-12-10T17:12:27-0500
_audit_creation_method            fapswitch 2.2
_symmetry_space_group_name_H-M    P1
_symmetry_Int_Tables_number       1
_space_group_crystal_system       triclinic
_cell_length_a                    11.693109
_cell_length_b                    12.964803
_cell_length_c                    11.704099
_cell_angle_alpha                 99.126052
_cell_angle_beta                  93.757819
_cell_angle_gamma                 90.064978
_cell_volume                      1747.98195751

loop_
_atom_site_label
_atom_site_type_symbol
_atom_type_description
_atom_site_fract_x
_atom_site_fract_y
_atom_site_fract_z
_atom_type_partial_charge
C1    C     C_R   0.499138 0.299922 0.479483 0.801196
C2    C     C_R   0.449164 0.478650 0.968687 -0.002120
C3    C     C_R   0.283989 0.500183 0.500290 0.823464
C4    C     C_R   0.716014 0.499990 0.499719 0.817712
C5    C     C_1   0.162384 0.500601 0.500668 -0.201263
C6    C     C_1   0.837620 0.499923 0.499307 -0.198662
C7    C     C_1   0.059885 0.500544 0.500307 -0.016523
C8    C     C_1   0.940116 0.500097 0.499641 -0.016073
C9    C     C_R   0.492405 0.811889 0.528799 -0.045545
C10   C     C_R   0.510386 0.188158 0.470111 -0.047145
C11   C     C_R   0.639755 0.043384 0.450464 -0.223987
C12   C     C_R   0.501394 0.700064 0.520406 0.794055
C13   C     C_R   0.364764 0.957919 0.551363 -0.224466
C14   C     C_R   0.617142 0.146923 0.444562 -0.226408
C15   C     C_R   0.388136 0.855192 0.560599 -0.227428
C16   C     C_R   0.421893 0.125786 0.499639 0.022116
C17   C     C_R   0.579130 0.872232 0.492017 0.027256
C18   C     C_R   0.446611 0.021012 0.511964 0.124807
C19   C     C_R   0.556358 0.978619 0.485143 0.125440
C20   C     C_3   0.694382 0.823194 0.461822 -0.428772
C21   C     C_3   0.784478 0.849899 0.563691 -0.351754
C22   C     C_3   0.902625 0.810915 0.530096 -0.849252
C23   C     C_R   0.362369 0.437470 0.029386 -0.011759
C24   C     C_3   0.301254 0.169572 0.509065 -0.419880
C25   C     C_3   0.275716 0.210572 0.634940 -0.347579
C26   C     C_3   0.151347 0.245125 0.642094 -0.862442
C27   C     C_3   0.249216 0.396483 0.965538 -0.442507
C28   C     C_3   0.153882 0.372767 0.042693 -0.356413
C29   C     C_3   0.041033 0.343734 0.971606 -0.841900
C30   C     C_3   0.749725 0.604416 0.035808 -0.435612
C31   C     C_3   0.843512 0.634932 0.960755 -0.359622
C32   C     C_3   0.954757 0.665909 0.033985 -0.831751
C33   C     C_R   0.637025 0.563346 0.971042 -0.012970
C34   C     C_R   0.382701 0.437185 0.150020 0.077416
C35   C     C_R   0.617327 0.562858 0.850164 0.077800
C36   C     C_R   0.561308 0.523284 0.153596 0.002464
C37   C     C_R   0.438187 0.477494 0.846627 -0.004262
C38   C     C_R   0.550262 0.522038 0.031527 -0.004059
Cu1   Cu    Cu3+1 0.508350 0.507730 0.615930 0.932752
Cu2   Cu    Cu3+1 0.491650 0.492270 0.384070 0.931517
H1    H     H_    0.322045 0.807511 0.588004 0.144949
H2    H     H_    0.931601 0.850099 0.459089 0.249946
H3    H     H_    0.965314 0.828877 0.606186 0.242036
H4    H     H_    0.789938 0.935651 0.592972 0.224012
H5    H     H_    0.759154 0.812661 0.637688 0.219012
H6    H     H_    0.688292 0.736942 0.439775 0.197477
H7    H     H_    0.723173 0.847902 0.381692 0.193241
H8    H     H_    0.131989 0.304126 0.584740 0.263435
H9    H     H_    0.092479 0.176969 0.615825 0.253520
H10   H     H_    0.136276 0.280664 0.732192 0.244665
H11   H     H_    0.291857 0.149647 0.690651 0.217133
H12   H     H_    0.684698 0.196240 0.422613 0.143438
H13   H     H_    0.332727 0.278202 0.669586 0.233680
H14   H     H_    0.289136 0.234116 0.457376 0.182696
H15   H     H_    0.236959 0.109429 0.468373 0.196464
H16   H     H_    0.014044 0.406964 0.922114 0.257103
H17   H     H_    0.050190 0.269808 0.910680 0.252500
H18   H     H_    0.973188 0.332238 0.030636 0.243705
H19   H     H_    0.179192 0.306307 0.087958 0.214339
H20   H     H_    0.139341 0.442823 0.108106 0.220587
H21   H     H_    0.215514 0.456661 0.914612 0.209613
H22   H     H_    0.266788 0.324472 0.904353 0.201485
H23   H     H_    0.724618 0.016697 0.430481 0.153728
H24   H     H_    0.940410 0.733609 0.102361 0.252028
H25   H     H_    0.987495 0.599337 0.075319 0.256432
H26   H     H_    0.020545 0.688136 0.977804 0.242376
H27   H     H_    0.861435 0.567701 0.892922 0.220101
H28   H     H_    0.814825 0.702331 0.918553 0.214265
H29   H     H_    0.731119 0.673614 0.100804 0.198732
H30   H     H_    0.785377 0.542247 0.082812 0.207608
H31   H     H_    0.281426 0.986215 0.575132 0.154330
H32   H     H_    0.364243 0.442046 0.795378 0.126960
H33   H     H_    0.634766 0.559576 0.205198 0.128285
H34   H     H_    0.679835 0.595709 0.802162 0.129026
H35   H     H_    0.320671 0.403895 0.198146 0.128921
H36   H     H_    0.900081 0.725154 0.501075 0.261138
N1    N     N_R   0.520920 0.519350 0.790130 -0.192119
N2    N     N_R   0.479080 0.480650 0.209870 -0.192052
O1    O     O_R   0.505930 0.354460 0.582000 -0.578275
O2    O     O_R   0.494070 0.645540 0.418000 -0.579233
O3    O     O_R   0.491820 0.341410 0.386200 -0.582676
O4    O     O_R   0.508180 0.658590 0.613800 -0.579399
O5    O     O_R   0.344250 0.506540 0.597900 -0.581105
O6    O     O_R   0.655750 0.493460 0.402100 -0.586609
O7    O     O_R   0.330140 0.493480 0.402100 -0.589197
O8    O     O_R   0.669860 0.506520 0.597900 -0.586142

loop_
_geom_bond_atom_site_label_1
_geom_bond_atom_site_label_2
_ccdc_geom_bond_type
C35   H34   S    
C3    O7    A    
Cu2   O6    S    
C22   H36   S    
C7    C8    S    
C24   H15   S    
C31   H27   S    
C11   C19   A    
C13   C18   A    
Cu1   N1    S    
C28   C29   S    
C25   H13   S    
C11   H23   S    
C26   H10   S    
C30   C31   S    
C11   C14   A    
C4    O8    A    
C24   H14   S    
C17   C20   S    
C18   C19   A    
C27   H21   S    
C17   C19   A    
C14   H12   S    
C22   H3    S    
Cu2   O2    S    
C23   C27   S    
C26   H8    S    
C34   H35   S    
C16   C24   S    
C21   C22   S    
C30   H30   S    
C21   H5    S    
C28   H20   S    
C31   H28   S    
C24   C25   S    
C15   H1    S    
C4    C6    S    
C10   C14   A    
C26   H9    S    
Cu1   Cu2   S    
C5    C7    T    
C6    C8    T    
C13   H31   S    
C25   C26   S    
C37   N1    A    
C35   N1    A    
Cu1   O1    S    
Cu2   O7    S    
C25   H11   S    
C27   H22   S    
C21   H4    S    
C2    C38   A    
C31   C32   S    
C4    O6    A    
C23   C34   A    
C12   O4    A    
C29   H18   S    
C32   H24   S    
C9    C17   A    
C29   H17   S    
C13   C15   A    
C3    O5    A    
C1    O1    A    
Cu2   N2    S    
C2    C23   A    
C30   H29   S    
C32   H26   S    
C28   H19   S    
C30   C33   S    
Cu2   O3    S    
C1    C10   S    
Cu1   O4    S    
C3    C5    S    
C29   H16   S    
C33   C38   A    
C36   C38   A    
C9    C15   A    
Cu1   O5    S    
C10   C16   A    
C34   N2    A    
C2    C37   A    
C22   H2    S    
C12   O2    A    
C33   C35   A    
C9    C12   S    
C20   H7    S    
C36   H33   S    
C20   C21   S    
C16   C18   A    
C37   H32   S    
C27   C28   S    
C36   N2    A    
Cu1   O8    S    
C1    O3    A    
C20   H6    S    
C32   H25   S    
