data_mof_unit_22505.cif
_audit_creation_date              2012-12-11T17:05:35-0500
_audit_creation_method            fapswitch 2.2
_symmetry_space_group_name_H-M    P1
_symmetry_Int_Tables_number       1
_space_group_crystal_system       triclinic
_cell_length_a                    6.964916
_cell_length_b                    14.511671
_cell_length_c                    16.022446
_cell_angle_alpha                 90.253212
_cell_angle_beta                  89.969336
_cell_angle_gamma                 89.975465
_cell_volume                      1619.41359093

loop_
_atom_site_label
_atom_site_type_symbol
_atom_type_description
_atom_site_fract_x
_atom_site_fract_y
_atom_site_fract_z
_atom_type_partial_charge
O1    O     O_R   0.494380 0.415640 0.412830 -0.536195
O2    O     O_R   0.823960 0.405540 0.586560 -0.546574
O3    O     O_R   0.994270 0.584360 0.587170 -0.539810
C1    C     C_R   0.655207 0.383583 0.615248 0.729781
O4    O     O_R   0.824090 0.404620 0.413450 -0.547954
O5    O     O_R   0.994400 0.583430 0.412820 -0.541417
C2    C     C_R   0.655396 0.382416 0.384564 0.687992
O6    O     O_R   0.494250 0.416570 0.587180 -0.527057
O7    O     O_3   0.660800 0.558670 0.500000 -0.368308
V1    V     V_3+5 0.935650 0.489120 0.500000 1.395791
O8    O     O_R   0.324110 0.594460 0.413440 -0.540593
C3    C     C_R   0.155089 0.616212 0.384431 0.691053
O9    O     O_R   0.323980 0.595380 0.586550 -0.532192
C4    C     C_R   0.155502 0.615598 0.617011 0.693934
V2    V     V_3+5 0.435660 0.510880 0.500000 1.421608
O10   O     O_3   0.160640 0.441330 0.500000 -0.370508
C5    C     C_3   0.990405 0.656035 0.754035 -0.282005
H1    H     H_    0.847036 0.654333 0.723493 0.167884
H2    H     H_    0.017950 0.585460 0.777859 0.172698
C6    C     C_3   0.983745 0.725534 0.827959 -0.310344
H3    H     H_    0.022941 0.689757 0.886820 0.152757
H4    H     H_    0.834109 0.751264 0.835369 0.155507
H5    H     H_    0.951483 0.776918 0.621207 0.145353
H6    H     H_    0.922081 0.878895 0.730218 0.138383
C7    C     C_3   0.090121 0.780866 0.655554 -0.375391
C8    C     C_3   0.342713 0.693395 0.735221 0.019775
C9    C     C_3   0.145772 0.684170 0.689048 0.066483
H7    H     H_    0.454096 0.716047 0.689873 0.112076
C10   C     C_3   0.123437 0.807297 0.812834 0.078938
C11   C     C_3   0.071601 0.851896 0.727982 -0.329727
C12   C     C_3   0.330021 0.766851 0.805561 -0.316330
H8    H     H_    0.372951 0.736706 0.866433 0.166385
H9    H     H_    0.434177 0.822983 0.791831 0.125539
H10   H     H_    0.200689 0.804863 0.610447 0.127620
H11   H     H_    0.168078 0.911472 0.715845 0.125800
C13   C     C_R   0.272641 0.815863 0.239808 0.093830
C14   C     C_R   0.118338 0.815859 0.183691 -0.109935
C15   C     C_R   0.966783 0.754120 0.199588 -0.171808
H12   H     H_    0.844331 0.751677 0.158291 0.136151
C16   C     C_R   0.977918 0.690317 0.265491 -0.168560
H13   H     H_    0.863092 0.640941 0.273114 0.130215
C17   C     C_R   0.141277 0.686056 0.317324 -0.108596
C18   C     C_R   0.284107 0.752468 0.304781 0.095571
C19   C     C_3   0.494648 0.739956 0.292833 -0.405586
C20   C     C_3   0.482281 0.809409 0.222366 -0.397615
H14   H     H_    0.530688 0.669191 0.271126 0.172665
H15   H     H_    0.578731 0.765234 0.347247 0.170010
H16   H     H_    0.511948 0.779163 0.159811 0.175764
H17   H     H_    0.558457 0.875025 0.236192 0.161317
C21   C     C_R   0.490765 0.252540 0.688390 0.089352
C22   C     C_R   0.646988 0.312706 0.681295 -0.094295
C23   C     C_R   0.799487 0.301461 0.737991 -0.153115
H18   H     H_    0.922451 0.346657 0.735104 0.138519
C24   C     C_R   0.788307 0.236351 0.802785 -0.161768
H19   H     H_    0.903955 0.232559 0.847612 0.139321
C25   C     C_R   0.623674 0.181147 0.813065 -0.101577
C26   C     C_R   0.479236 0.188433 0.752734 0.086334
C27   C     C_3   0.269736 0.204786 0.764134 -0.408165
C28   C     C_3   0.282234 0.274328 0.693773 -0.386389
H20   H     H_    0.237108 0.236732 0.825703 0.191014
H21   H     H_    0.182781 0.143023 0.747954 0.161347
H22   H     H_    0.256173 0.346519 0.714394 0.195809
H23   H     H_    0.203031 0.252667 0.636762 0.164715
C29   C     C_R   0.488164 0.253288 0.308134 -0.001620
C30   C     C_R   0.647180 0.311506 0.317632 -0.073540
C31   C     C_R   0.799941 0.300145 0.260922 -0.165575
H24   H     H_    0.923659 0.344747 0.264820 0.145245
C32   C     C_R   0.787918 0.236117 0.194686 -0.155367
H25   H     H_    0.902961 0.232373 0.149726 0.200171
C33   C     C_R   0.622762 0.181908 0.182766 -0.061224
C34   C     C_R   0.475877 0.190457 0.241934 -0.015139
C35   C     C_3   0.269895 0.212689 0.227792 0.500718
C36   C     C_3   0.282109 0.279192 0.300882 -0.424671
H26   H     H_    0.172586 0.153073 0.237787 0.018234
H27   H     H_    0.197359 0.256596 0.355918 0.120245
H28   H     H_    0.262581 0.352645 0.283222 0.196146
O11   O     O_R   0.771490 0.080820 0.910070 -0.542528
O12   O     O_R   0.441590 0.092730 0.083780 -0.514391
O13   O     O_R   0.271350 0.913900 0.084390 -0.540664
C37   C     C_R   0.610499 0.115195 0.112471 0.714390
O14   O     O_R   0.441780 0.091820 0.910670 -0.535147
O15   O     O_R   0.271540 0.912980 0.910040 -0.544256
C38   C     C_R   0.610842 0.114233 0.882343 0.701870
O16   O     O_R   0.771300 0.081740 0.084420 -0.545891
O17   O     O_3   0.604960 0.938700 0.997240 -0.379060
V3    V     V_3+5 0.330090 0.008230 0.997220 1.452743
O18   O     O_R   0.941820 0.901930 0.910640 -0.545866
C39   C     C_R   0.111174 0.878479 0.882721 0.654409
O19   O     O_R   0.941630 0.902840 0.083750 -0.545549
C40   C     C_R   0.110401 0.880965 0.112637 0.687182
V4    V     V_3+5 0.830090 0.986410 0.997190 1.399010
O20   O     O_3   0.105080 0.055990 0.997200 -0.354121
F1    F     F_    0.244178 0.257922 0.152640 -0.677727
I1    I     I_    0.446920 0.564070 0.784855 -0.513504

loop_
_geom_bond_atom_site_label_1
_geom_bond_atom_site_label_2
_ccdc_geom_bond_type
C8    I1    S    
C31   C32   A    
O18   C39   A    
O18   V4    S    
C37   O16   A    
O17   V4    S    
O17   V3    S    
C19   C20   S    
C8    C9    S    
C10   C11   S    
C14   C40   S    
C21   C28   S    
C13   C14   A    
O5    C3    A    
C15   H12   S    
O12   C37   A    
O11   C38   A    
C27   H20   S    
V2    O10   S    
C5    C6    S    
C25   C26   A    
C29   C34   A    
O13   C40   A    
C3    C17   S    
O8    V2    S    
C23   C24   A    
C32   H25   S    
C10   C39   S    
C29   C36   S    
C12   H9    S    
C33   C34   A    
O1    V2    S    
O16   V4    S    
C4    C9    S    
O19   V4    S    
O7    V1    S    
O14   V3    S    
C19   H15   S    
C1    O6    A    
C7    H10   S    
O12   V3    S    
C27   H21   S    
C16   C17   A    
C31   H24   S    
C8    C12   S    
O9    C4    A    
C36   H27   S    
O14   C38   A    
C19   H14   S    
C21   C22   A    
C6    C10   S    
C24   C25   A    
C1    C22   S    
C33   C37   S    
C22   C23   A    
C5    C9    S    
C35   H26   S    
V4    O20   S    
O4    C2    A    
C27   C28   S    
O15   V3    S    
O2    C1    A    
C18   C19   S    
C14   C15   A    
C2    C30   S    
C12   H8    S    
C20   H17   S    
C5    H1    S    
C13   C20   S    
O3    C4    A    
C35   F1    S    
C11   H11   S    
C16   H13   S    
C6    H4    S    
O6    V2    S    
O9    V2    S    
C36   H28   S    
C17   C18   A    
O2    V1    S    
C23   H18   S    
C25   C38   S    
C20   H16   S    
C7    C11   S    
C24   H19   S    
O11   V4    S    
C28   H22   S    
O1    C2    A    
C21   C26   A    
C8    H7    S    
C35   C36   S    
O5    V1    S    
O8    C3    A    
C7    C9    S    
C28   H23   S    
C29   C30   A    
O7    V2    S    
O4    V1    S    
C10   C12   S    
O3    V1    S    
V3    O20   S    
C15   C16   A    
C26   C27   S    
O15   C39   A    
C5    H2    S    
H5    C7    S    
H6    C11   S    
C34   C35   S    
C6    H3    S    
C32   C33   A    
C30   C31   A    
C13   C18   A    
V1    O10   S    
O19   C40   A    
O13   V3    S    
