data_mof_unit_60578.cif
_audit_creation_date              2012-12-10T19:48:30-0500
_audit_creation_method            fapswitch 2.2
_symmetry_space_group_name_H-M    P1
_symmetry_Int_Tables_number       1
_space_group_crystal_system       triclinic
_cell_length_a                    10.901478
_cell_length_b                    10.682463
_cell_length_c                    9.534425
_cell_angle_alpha                 89.305231
_cell_angle_beta                  89.391937
_cell_angle_gamma                 91.057432
_cell_volume                      1109.99207259

loop_
_atom_site_label
_atom_site_type_symbol
_atom_type_description
_atom_site_fract_x
_atom_site_fract_y
_atom_site_fract_z
_atom_type_partial_charge
C1    C     C_R   0.505962 0.260251 0.501175 0.887557
C2    C     C_R   0.493694 0.739921 0.498994 0.864047
C3    C     C_R   0.871730 0.514237 0.494484 -0.194781
C4    C     C_R   0.127061 0.513063 0.501201 -0.192704
C5    C     C_R   0.932912 0.554679 0.615057 -0.063799
C6    C     C_R   0.066631 0.530980 0.372496 -0.059902
C7    C     C_3   0.506134 0.036208 0.633648 0.463314
C8    C     C_3   0.492967 0.964679 0.367234 0.444003
C9    C     C_3   0.598063 0.950788 0.559528 -0.366387
C10   C     C_3   0.400404 0.050121 0.441535 -0.376790
C11   C     C_3   0.490161 0.877045 0.496384 -0.236602
C12   C     C_3   0.508693 0.123496 0.504607 -0.236511
C13   C     C_3   0.398521 0.961607 0.571468 0.263340
C14   C     C_3   0.600448 0.039234 0.430080 0.272779
C15   C     C_3   0.572428 0.585780 0.048618 0.316783
C16   C     C_3   0.428240 0.413698 0.952360 0.323124
C17   C     C_3   0.464374 0.605205 0.950724 0.460720
C18   C     C_3   0.536232 0.394987 0.049795 0.459516
C19   C     C_3   0.609238 0.480649 0.948007 -0.246134
C20   C     C_3   0.391314 0.519005 0.052266 -0.240587
C21   C     C_R   0.262136 0.503300 0.500918 0.836384
C22   C     C_R   0.737474 0.503118 0.498453 0.847635
C23   C     C_R   0.167928 0.860903 0.267090 -0.072828
C24   C     C_R   0.883000 0.815564 0.874500 -0.089763
C25   C     C_R   0.144334 0.752723 0.346882 -0.177843
C26   C     C_R   0.884773 0.694473 0.819483 -0.094657
C27   C     C_R   0.106478 0.640471 0.282913 0.110775
C28   C     C_R   0.899781 0.677756 0.674568 0.119562
C29   C     C_R   0.095527 0.639872 0.136687 -0.129869
C30   C     C_R   0.907263 0.784304 0.586105 -0.179737
C31   C     C_R   0.125587 0.746994 0.056431 -0.113051
C32   C     C_R   0.908504 0.904481 0.642086 -0.107647
C33   C     C_R   0.160126 0.857859 0.121627 0.012092
C34   C     C_R   0.895651 0.920157 0.786276 -0.039019
C35   C     C_R   0.941736 0.497550 0.370269 0.257667
C36   C     C_R   0.056365 0.523429 0.625745 0.266712
Cu1   Cu    Cu3+1 0.500030 0.499990 0.643150 1.075519
Cu2   Cu    Cu3+1 0.499970 0.500010 0.356850 1.077752
H1    H     H_    0.180364 0.941333 0.059495 0.202494
H2    H     H_    0.896603 0.013268 0.829814 0.185996
H3    H     H_    0.701099 0.462924 0.901948 0.204202
H4    H     H_    0.299892 0.531160 0.099586 0.202839
H5    H     H_    0.190616 0.947396 0.318293 0.159540
H6    H     H_    0.877925 0.829083 0.986397 0.198786
H7    H     H_    0.150416 0.758044 0.459529 0.167618
H8    H     H_    0.880630 0.614513 0.890256 0.179582
H9    H     H_    0.067549 0.555530 0.084809 0.216076
H10   H     H_    0.917964 0.774437 0.473899 0.162690
H11   H     H_    0.121034 0.745293 0.943460 0.218864
H12   H     H_    0.919120 0.985482 0.573587 0.191529
H13   H     H_    0.675585 0.905587 0.611754 0.212080
H14   H     H_    0.320839 0.096795 0.393417 0.198980
N1    N     N_3   0.500090 0.499970 0.858290 -0.259739
N2    N     N_3   0.499910 0.500030 0.141710 -0.256805
O1    O     O_R   0.500060 0.316850 0.620870 -0.539460
O2    O     O_R   0.499940 0.683150 0.379130 -0.536722
O3    O     O_R   0.500000 0.316860 0.379090 -0.526765
O4    O     O_R   0.500000 0.683140 0.620910 -0.529288
O5    O     O_R   0.319670 0.500010 0.620890 -0.511195
O6    O     O_R   0.680330 0.499990 0.379110 -0.513876
O7    O     O_R   0.319620 0.500010 0.379110 -0.592675
O8    O     O_R   0.680380 0.499990 0.620890 -0.595095
Cl1   Cl    Cl    0.413384 0.752945 0.892231 -0.432793
Cl2   Cl    Cl    0.589151 0.247795 0.108441 -0.373632
Br1   Br    Br    0.685348 0.706750 0.126519 -0.390156
Br2   Br    Br    0.319739 0.280815 0.889056 -0.279180
Br3   Br    Br    0.877060 0.422493 0.203013 -0.407537
Br4   Br    Br    0.120917 0.508958 0.809792 -0.500457
Cl3   Cl    Cl    0.530594 0.072018 0.812638 -0.376987
Cl4   Cl    Cl    0.475599 0.927471 0.187467 -0.396362
Br5   Br    Br    0.246048 0.919694 0.668467 -0.454150
Br6   Br    Br    0.755235 0.086660 0.341238 -0.369071

loop_
_geom_bond_atom_site_label_1
_geom_bond_atom_site_label_2
_ccdc_geom_bond_type
C4    C36   A    
C17   N1    S    
C27   C29   A    
C9    H13   S    
C10   H14   S    
Cu1   O8    S    
C15   C19   S    
C33   H1    S    
C29   H9    S    
C34   H2    S    
C30   H10   S    
C24   C26   A    
C21   O5    A    
C22   O6    A    
C5    C28   S    
C5    C36   A    
C17   C20   S    
C23   H5    S    
C6    C35   A    
C15   C17   S    
C18   C19   S    
C16   N1    S    
C23   C33   A    
C31   C33   A    
C35   Br3   S    
C21   O7    A    
Cu1   O4    S    
Cu2   O7    S    
Cu1   N1    S    
C19   N1    S    
C1    C12   S    
C14   Br6   S    
C31   H11   S    
C2    C11   S    
C7    C12   S    
C15   N2    S    
C20   N2    S    
C26   H8    S    
C13   Br5   S    
C24   C34   A    
C32   C34   A    
C9    C14   S    
Cu1   Cu2   S    
C1    O3    A    
C22   O8    A    
Cu2   O3    S    
C6    C27   S    
Cu2   N2    S    
C3    C35   A    
C16   C20   S    
C36   Br4   S    
C16   C18   S    
C9    C11   S    
C32   H12   S    
Cu1   O5    S    
C10   C12   S    
Cu2   O6    S    
C4    C6    A    
C12   C14   S    
C24   H6    S    
C16   Br2   S    
C25   H7    S    
C7    C9    S    
C8    C14   S    
C8    Cl4   S    
C3    C5    A    
C10   C13   S    
C7    Cl3   S    
C20   H4    S    
C2    O4    A    
C25   C27   A    
C26   C28   A    
C28   C30   A    
C1    O1    A    
C29   C31   A    
C2    O2    A    
C17   Cl1   S    
C30   C32   A    
C4    C21   S    
C11   C13   S    
C18   Cl2   S    
C8    C11   S    
C23   C25   A    
C18   N2    S    
Cu1   O1    S    
C7    C13   S    
Cu2   O2    S    
C8    C10   S    
C3    C22   S    
C19   H3    S    
C15   Br1   S    
