data_mof_unit_7317.cif
_audit_creation_date              2012-12-10T17:19:57-0500
_audit_creation_method            fapswitch 2.2
_symmetry_space_group_name_H-M    P1
_symmetry_Int_Tables_number       1
_space_group_crystal_system       triclinic
_cell_length_a                    9.607429
_cell_length_b                    10.843442
_cell_length_c                    15.399149
_cell_angle_alpha                 88.447433
_cell_angle_beta                  73.899328
_cell_angle_gamma                 90.674305
_cell_volume                      1540.44485475

loop_
_atom_site_label
_atom_site_type_symbol
_atom_type_description
_atom_site_fract_x
_atom_site_fract_y
_atom_site_fract_z
_atom_type_partial_charge
C1    C     C_R   0.003074 0.262990 0.492648 0.798330
C2    C     C_R   0.668132 0.551641 0.902273 0.087108
C3    C     C_R   0.765806 0.597534 0.948137 0.160073
C4    C     C_R   0.516379 0.551407 0.944781 0.028753
C5    C     C_R   0.469588 0.563293 0.040322 0.036554
C6    C     C_R   0.570535 0.606256 0.084969 -0.216933
C7    C     C_R   0.715038 0.627725 0.038512 -0.236720
C8    C     C_R   0.409093 0.547520 0.896163 0.065121
C9    C     C_R   0.265040 0.520151 0.944066 -0.275108
C10   C     C_R   0.221355 0.512598 0.038278 0.139908
C11   C     C_R   0.322583 0.536209 0.087515 0.089855
C12   C     C_R   0.917847 0.501136 0.672411 0.801385
C13   C     C_R   0.075314 0.486950 0.083937 -0.202339
C14   C     C_R   0.028584 0.484388 0.178107 -0.196284
C15   C     C_R   0.274022 0.527874 0.182561 -0.253886
C16   C     C_R   0.277189 0.120100 0.436198 -0.158193
C17   C     C_R   0.401495 0.063575 0.446155 -0.175911
C18   C     C_R   0.388700 0.955255 0.498281 -0.176200
C19   C     C_R   0.253574 0.895607 0.531286 0.010810
C20   C     C_R   0.130882 0.941443 0.506831 0.042509
C21   C     C_R   0.138814 0.064790 0.474733 0.084815
C22   C     C_R   0.007723 0.128729 0.484845 -0.111156
C23   C     C_R   0.998759 0.737526 0.506433 0.783884
C24   C     C_R   0.876825 0.062282 0.501194 -0.211156
C25   C     C_R   0.875003 0.935030 0.510009 -0.217815
C26   C     C_R   0.000775 0.872516 0.512715 -0.110709
C27   C     C_R   0.699446 0.662885 0.380519 -0.155624
C28   C     C_R   0.654010 0.744691 0.323628 -0.223296
C29   C     C_R   0.510243 0.746542 0.324782 -0.222521
C30   C     C_R   0.411247 0.665868 0.382229 -0.154453
C31   C     C_R   0.452256 0.581193 0.441990 0.207167
C32   C     C_R   0.601913 0.580480 0.441585 0.199416
C33   C     C_R   0.548067 0.423557 0.555666 -0.082555
C34   C     C_R   0.082243 0.500314 0.327525 0.770902
C35   C     C_R   0.400309 0.423476 0.555561 -0.062411
C36   C     C_R   0.872043 0.520286 0.770309 -0.063533
C37   C     C_R   0.128073 0.503989 0.227998 -0.051588
C38   C     C_R   0.913865 0.609698 0.903424 -0.226366
C39   C     C_R   0.966380 0.572551 0.814535 -0.188670
C40   C     C_R   0.726490 0.501189 0.817401 -0.224945
Cu1   Cu    Cu3+1 0.140660 0.499990 0.500010 0.935746
Cu2   Cu    Cu3+1 0.859340 0.500010 0.499990 0.917365
H1    H     H_    0.788491 0.663006 0.074603 0.147866
H2    H     H_    0.996845 0.469508 0.046786 0.145708
H3    H     H_    0.775489 0.108421 0.506593 0.160419
H4    H     H_    0.290686 0.206218 0.397408 0.161842
H5    H     H_    0.506629 0.107911 0.418380 0.144523
H6    H     H_    0.483595 0.919341 0.514568 0.136621
H7    H     H_    0.773982 0.885775 0.515703 0.167227
H8    H     H_    0.581959 0.360811 0.601347 0.133860
H9    H     H_    0.812300 0.668458 0.373310 0.204953
H10   H     H_    0.731346 0.806908 0.278065 0.153553
H11   H     H_    0.348718 0.536989 0.222848 0.153379
H12   H     H_    0.474967 0.810416 0.280268 0.156997
H13   H     H_    0.304426 0.674509 0.376425 0.200516
H14   H     H_    0.324090 0.360626 0.601104 0.141251
H15   H     H_    0.915181 0.465524 0.211760 0.159666
H16   H     H_    0.184842 0.508483 0.907484 0.142142
H17   H     H_    0.988374 0.649287 0.936952 0.141062
H18   H     H_    0.080094 0.584775 0.780618 0.173432
H19   H     H_    0.661569 0.442059 0.788579 0.138627
H20   H     H_    0.539844 0.629446 0.155178 0.154483
N1    N     N_R   0.648320 0.501210 0.499140 -0.196172
N2    N     N_R   0.352470 0.501290 0.499110 -0.194855
O1    O     O_R   0.118810 0.319640 0.500010 -0.584601
O2    O     O_R   0.881240 0.319660 0.500000 -0.579059
O3    O     O_R   0.055570 0.499980 0.629840 -0.564755
O4    O     O_R   0.818000 0.500010 0.629830 -0.587253
O5    O     O_R   0.118760 0.680340 0.500000 -0.592712
O6    O     O_R   0.881190 0.680360 0.499990 -0.605232
O7    O     O_R   0.182000 0.499990 0.370170 -0.604792
O8    O     O_R   0.944430 0.500020 0.370160 -0.597476
C41   C     C_1   0.238602 0.806780 0.604620 0.259849
N3    N     N_1   0.226685 0.736085 0.663793 -0.325227
C42   C     C_3   0.435683 0.593704 0.797965 -0.382721
C43   C     C_3   0.494071 0.727876 0.783501 -0.311958
C44   C     C_3   0.574622 0.757259 0.684649 -0.805276
H21   H     H_    0.679745 0.709573 0.666594 0.276073
H22   H     H_    0.510568 0.727383 0.638860 0.261663
H23   H     H_    0.596348 0.858173 0.674557 0.223852
H24   H     H_    0.569669 0.746990 0.824668 0.222421
H25   H     H_    0.401755 0.791446 0.805291 0.217433
H26   H     H_    0.503468 0.531958 0.748726 0.198140
H27   H     H_    0.332679 0.592318 0.778610 0.193202

loop_
_geom_bond_atom_site_label_1
_geom_bond_atom_site_label_2
_ccdc_geom_bond_type
C8    C9    A    
C16   C21   A    
C34   C37   S    
Cu1   Cu2   S    
C23   O5    A    
C19   C20   A    
C4    C8    A    
Cu1   O3    S    
C44   H21   S    
C12   O4    A    
C24   H3    S    
C15   H11   S    
C28   C29   A    
C5    C11   A    
C3    C7    A    
C5    C6    A    
C42   H27   S    
C29   H12   S    
Cu2   O6    S    
C9    H16   S    
C41   N3    T    
C23   C26   S    
C15   C37   A    
C11   C15   A    
C3    C38   A    
C16   C17   A    
C1    O1    A    
C35   N2    A    
C7    H1    S    
C12   C36   S    
C9    C10   A    
Cu1   O7    S    
C27   C32   A    
C1    C22   S    
C21   C22   A    
Cu2   O4    S    
C23   O6    A    
C27   H9    S    
C17   C18   A    
C44   H22   S    
C38   C39   A    
C12   O3    A    
C36   C40   A    
C43   C44   S    
C43   H25   S    
C18   C19   A    
Cu1   O1    S    
C33   H8    S    
C8    C42   S    
C40   H19   S    
C2    C4    A    
C42   C43   S    
C29   C30   A    
C31   C32   A    
C19   C41   S    
C33   N1    A    
Cu2   O8    S    
C1    O2    A    
C24   C25   A    
C22   C24   A    
C16   H4    S    
C34   O8    A    
Cu1   O5    S    
C44   H23   S    
C14   H15   S    
C35   H14   S    
C31   N2    A    
C36   C39   A    
C17   H5    S    
C32   N1    A    
C4    C5    A    
C10   C13   A    
C18   H6    S    
C43   H24   S    
C6    C7    A    
C30   H13   S    
C6    H20   S    
C2    C3    A    
C25   C26   A    
C14   C37   A    
C28   H10   S    
C42   H26   S    
C30   C31   A    
C20   C26   A    
C39   H18   S    
Cu2   N1    S    
C33   C35   A    
C25   H7    S    
C10   C11   A    
C38   H17   S    
C2    C40   A    
C20   C21   A    
C27   C28   A    
Cu2   O2    S    
Cu1   N2    S    
C13   C14   A    
C34   O7    A    
C13   H2    S    
