data_mof_unit_16113.cif
_audit_creation_date              2012-12-10T19:45:48-0500
_audit_creation_method            fapswitch 2.2
_symmetry_space_group_name_H-M    P1
_symmetry_Int_Tables_number       1
_space_group_crystal_system       triclinic
_cell_length_a                    10.819233
_cell_length_b                    14.682518
_cell_length_c                    14.851994
_cell_angle_alpha                 64.859395
_cell_angle_beta                  103.921393
_cell_angle_gamma                 102.941425
_cell_volume                      2053.06245784

loop_
_atom_site_label
_atom_site_type_symbol
_atom_type_description
_atom_site_fract_x
_atom_site_fract_y
_atom_site_fract_z
_atom_type_partial_charge
C1    C     C_R   0.477536 0.119801 0.312534 0.832107
C2    C     C_R   0.522463 0.880198 0.687465 0.832107
C3    C     C_R   0.870747 0.001194 0.496426 -0.054688
C4    C     C_R   0.129253 0.998806 0.503574 -0.054687
C5    C     C_R   0.906159 0.965175 0.433172 0.039253
C6    C     C_R   0.093841 0.034825 0.566828 0.039253
C7    C     C_R   0.461900 0.187417 0.205344 -0.042496
C8    C     C_R   0.538097 0.812582 0.794656 -0.042499
C9    C     C_R   0.412906 0.215514 0.028694 -0.140019
C10   C     C_R   0.587087 0.784483 0.971307 -0.140018
C11   C     C_R   0.418096 0.149266 0.129625 -0.173232
C12   C     C_R   0.581902 0.850732 0.870375 -0.173232
C13   C     C_R   0.492637 0.292197 0.178686 -0.124588
C14   C     C_R   0.507356 0.707803 0.821313 -0.124585
C15   C     C_R   0.472243 0.360624 0.078033 0.104708
C16   C     C_R   0.527747 0.639374 0.921965 0.104707
C17   C     C_R   0.444189 0.320691 0.002738 0.112524
C18   C     C_R   0.555800 0.679306 0.997261 0.112524
C19   C     C_R   0.491661 0.467516 0.050518 -0.024145
C20   C     C_R   0.508325 0.532482 0.949480 -0.024145
C21   C     C_R   0.505724 0.487613 0.880572 0.251430
C22   C     C_R   0.494258 0.512385 0.119425 0.251428
C23   C     C_R   0.262837 0.999153 0.502019 0.824276
C24   C     C_R   0.737163 0.000847 0.497981 0.824276
C25   C     C_R   0.461224 0.384858 0.904600 -0.192612
C26   C     C_R   0.538760 0.615140 0.095398 -0.192616
C27   C     C_R   0.747942 0.302095 0.635804 0.153871
C28   C     C_R   0.252057 0.697903 0.364199 0.153872
C29   C     C_R   0.699429 0.212901 0.620166 0.045630
C30   C     C_R   0.300569 0.787098 0.379836 0.045630
C31   C     C_R   0.509406 0.280101 0.519285 0.034637
C32   C     C_R   0.490594 0.719900 0.480714 0.034642
C33   C     C_R   0.550132 0.371822 0.535083 -0.058174
C34   C     C_R   0.449868 0.628178 0.464918 -0.058171
C35   C     C_R   0.674750 0.383486 0.591002 0.072307
C36   C     C_R   0.325249 0.616513 0.409000 0.072306
C37   C     C_R   0.473632 0.452892 0.494883 0.096972
C38   C     C_R   0.526368 0.547108 0.505118 0.096976
C39   C     C_R   0.654320 0.557563 0.554201 -0.187213
C40   C     C_R   0.345680 0.442437 0.445801 -0.187214
C41   C     C_R   0.725162 0.476834 0.598592 -0.083259
C42   C     C_R   0.274837 0.523164 0.401410 -0.083258
C43   C     C_R   0.343594 0.032637 0.796231 -0.135506
C44   C     C_R   0.656406 0.967361 0.203768 -0.135507
C45   C     C_R   0.251411 0.997910 0.729552 0.279162
C46   C     C_R   0.748589 0.002089 0.270448 0.279163
C47   C     C_R   0.188418 0.068257 0.641032 0.062918
C48   C     C_R   0.811582 0.931742 0.358968 0.062918
C49   C     C_R   0.215863 0.172153 0.622680 -0.166465
C50   C     C_R   0.784137 0.827846 0.377321 -0.166465
C51   C     C_R   0.307771 0.206010 0.689829 -0.111119
C52   C     C_R   0.692229 0.793989 0.310171 -0.111119
C53   C     C_R   0.372513 0.136431 0.775943 -0.161723
C54   C     C_R   0.627488 0.863568 0.224058 -0.161722
C55   C     C_R   0.964615 0.036433 0.561749 -0.186156
C56   C     C_R   0.035385 0.963566 0.438251 -0.186155
Cu1   Cu    Cu3+1 0.466270 0.918260 0.475690 0.976117
Cu2   Cu    Cu3+1 0.533730 0.081740 0.524310 0.976117
H1    H     H_    0.444500 0.162882 0.827357 0.139082
H2    H     H_    0.555501 0.837116 0.172643 0.139080
H3    H     H_    0.387854 0.184458 0.971249 0.135757
H4    H     H_    0.612139 0.815539 0.028752 0.135756
H5    H     H_    0.821476 0.489444 0.637556 0.204866
H6    H     H_    0.178522 0.510555 0.362448 0.204868
H7    H     H_    0.578952 0.731653 0.528880 0.157313
H8    H     H_    0.421049 0.268348 0.471118 0.157314
H9    H     H_    0.243963 0.849048 0.347439 0.153673
H10   H     H_    0.756035 0.150951 0.652563 0.153672
H11   H     H_    0.702724 0.627606 0.560627 0.150660
H12   H     H_    0.297275 0.372393 0.439375 0.150661
H13   H     H_    0.392400 0.979099 0.864213 0.151296
H14   H     H_    0.607601 0.020899 0.135787 0.151296
H15   H     H_    0.166993 0.226890 0.555730 0.148734
H16   H     H_    0.833007 0.773109 0.444271 0.148734
H17   H     H_    0.329472 0.286295 0.674739 0.156778
H18   H     H_    0.670529 0.713704 0.325262 0.156777
H19   H     H_    0.937081 0.062760 0.611260 0.160067
H20   H     H_    0.062919 0.937239 0.388739 0.160067
H21   H     H_    0.454006 0.353083 0.849299 0.165857
H22   H     H_    0.545976 0.646914 0.150700 0.165856
H23   H     H_    0.459890 0.680337 0.763173 0.196326
H24   H     H_    0.540100 0.319665 0.236825 0.196322
H25   H     H_    0.606390 0.931651 0.851642 0.156910
H26   H     H_    0.393610 0.068347 0.148360 0.156911
N1    N     N_R   0.584450 0.204570 0.560790 -0.206083
N2    N     N_R   0.415550 0.795430 0.439210 -0.206084
O1    O     O_R   0.455540 0.022090 0.338120 -0.590441
O2    O     O_R   0.544460 0.977910 0.661880 -0.590440
O3    O     O_R   0.512510 0.160150 0.379180 -0.567355
O4    O     O_R   0.487490 0.839850 0.620820 -0.567353
O5    O     O_R   0.291160 0.930970 0.479480 -0.584686
O6    O     O_R   0.708840 0.069030 0.520520 -0.584685
O7    O     O_R   0.348130 0.069020 0.520540 -0.587837
O8    O     O_R   0.651870 0.930980 0.479460 -0.587837
Br1   Br    Br    0.592681 0.551441 0.765593 -0.560438
Br2   Br    Br    0.407291 0.448556 0.234399 -0.560430
Br3   Br    Br    0.915490 0.308206 0.716249 -0.509477
Br4   Br    Br    0.084505 0.691791 0.283758 -0.509478
Br5   Br    Br    0.210887 0.854302 0.763587 -0.515528
Br6   Br    Br    0.789112 0.145697 0.236413 -0.515525

loop_
_geom_bond_atom_site_label_1
_geom_bond_atom_site_label_2
_ccdc_geom_bond_type
C1    O1    A    
C31   H8    S    
C31   N1    A    
C23   O5    A    
C27   C29   A    
C5    C56   A    
C36   C42   A    
C19   C20   A    
C18   C26   A    
C6    C55   A    
C53   H1    S    
C39   C41   A    
C54   H2    S    
C15   C19   A    
C40   H12   S    
C9    H3    S    
Cu2   O7    S    
C51   H17   S    
C37   C40   A    
C50   H16   S    
C38   C39   A    
C55   H19   S    
C56   H20   S    
Cu1   N2    S    
C2    O4    A    
C21   C25   A    
C3    C55   A    
C43   C53   A    
C44   C46   A    
C49   C51   A    
C50   C52   A    
C31   C33   A    
Cu1   O1    S    
C2    O2    A    
C30   N2    A    
C29   N1    A    
C30   H9    S    
C8    C12   A    
C3    C5    A    
C40   C42   A    
C1    C7    S    
C4    C56   A    
C3    C24   S    
C10   H4    S    
C8    C14   A    
C24   O6    A    
C52   C54   A    
C45   C47   A    
C5    C48   S    
C46   C48   A    
C6    C47   S    
C19   C22   A    
C43   H13   S    
C4    C6    A    
Cu1   O4    S    
C4    C23   S    
C21   Br1   S    
C27   C35   A    
C13   H24   S    
C33   C37   A    
C23   O7    A    
C12   H25   S    
C51   C53   A    
C32   C34   A    
C7    C11   A    
C37   C38   A    
C24   O8    A    
C29   H10   S    
C9    C11   A    
C16   C20   A    
C32   N2    A    
C39   H11   S    
C43   C45   A    
C10   C12   A    
C9    C17   A    
Cu1   O8    S    
C13   C15   A    
C45   Br5   S    
C14   C16   A    
C41   H5    S    
Cu2   N1    S    
C42   H6    S    
C28   Br4   S    
C15   C17   A    
C46   Br6   S    
C27   Br3   S    
C1    O3    A    
Cu1   O5    S    
C34   C38   A    
C22   Br2   S    
C2    C8    S    
C52   H18   S    
Cu2   O2    S    
C11   H26   S    
C47   C49   A    
C17   C25   A    
C28   C30   A    
Cu1   Cu2   S    
C10   C18   A    
C48   C50   A    
C33   C35   A    
C34   C36   A    
C44   H14   S    
C49   H15   S    
C35   C41   A    
Cu2   O3    S    
C26   H22   S    
C25   H21   S    
C44   C54   A    
C7    C13   A    
C20   C21   A    
C28   C36   A    
C16   C18   A    
C22   C26   A    
C14   H23   S    
Cu2   O6    S    
C32   H7    S    
