data_mof_unit_53230.cif
_audit_creation_date              2012-10-26T18:25:40-0400
_audit_creation_method            fapswitch 2.2
_symmetry_space_group_name_H-M    P1
_symmetry_Int_Tables_number       1
_space_group_crystal_system       triclinic
_cell_length_a                    7.471015
_cell_length_b                    8.745448
_cell_length_c                    11.003681
_cell_angle_alpha                 88.874427
_cell_angle_beta                  72.510013
_cell_angle_gamma                 102.809584
_cell_volume                      665.76490924

loop_
_atom_site_label
_atom_site_type_symbol
_atom_type_description
_atom_site_fract_x
_atom_site_fract_y
_atom_site_fract_z
_atom_type_partial_charge
C1    C     C_R   0.450466 0.199832 0.510283 0.572672
C2    C     C_2   0.568797 0.964918 0.513829 0.223679
C3    C     C_3   0.145686 0.908772 0.683700 -0.110466
C4    C     C_3   0.759507 0.049424 0.636216 -0.098030
C5    C     C_R   0.545680 0.799165 0.501776 0.568043
C6    C     C_R   0.423016 0.492779 0.742545 0.524780
C7    C     C_R   0.577108 0.507860 0.257408 0.559303
C8    C     C_2   0.379947 0.489784 0.879954 -0.134976
C9    C     C_2   0.620592 0.512672 0.119848 -0.123434
C10   C     C_2   0.522221 0.504617 0.931124 -0.171106
C11   C     C_2   0.478874 0.500778 0.068458 -0.157555
C12   C     C_2   0.418528 0.031600 0.526250 0.223810
Cu1   Cu    Cu3+1 0.688910 0.517800 0.485820 0.992199
Cu2   Cu    Cu3+1 0.311090 0.482200 0.514180 0.975487
H1    H     H_    0.329689 0.487525 0.127806 0.165425
H2    H     H_    0.729065 0.927199 0.680782 0.107384
H3    H     H_    0.658041 0.113975 0.696839 0.075943
H4    H     H_    0.907687 0.109732 0.633502 0.172884
H5    H     H_    0.671602 0.519113 0.871687 0.150793
H6    H     H_    0.769519 0.525894 0.060141 0.096390
H7    H     H_    0.230848 0.475343 0.939740 0.103079
H8    H     H_    0.915579 0.382078 0.605473 0.231193
H9    H     H_    0.084198 0.621076 0.396392 0.253623
H10   H     H_    0.128923 0.017963 0.731565 0.089132
H11   H     H_    0.230002 0.845876 0.726333 0.102140
H12   H     H_    0.000032 0.829606 0.703163 0.148305
N1    N     N_2   0.027170 0.455360 0.535550 -0.248149
N2    N     N_2   0.972830 0.544640 0.464450 -0.237033
O1    O     O_R   0.622710 0.286400 0.490790 -0.476954
O2    O     O_3   0.750290 0.051564 0.509954 -0.540463
O3    O     O_R   0.377290 0.713600 0.509210 -0.484849
O4    O     O_R   0.303660 0.256330 0.514730 -0.478753
O5    O     O_R   0.696340 0.743670 0.485270 -0.470824
O6    O     O_R   0.600900 0.509520 0.671740 -0.524992
O7    O     O_R   0.399100 0.490480 0.328260 -0.503025
O8    O     O_R   0.281840 0.479450 0.695690 -0.524468
O9    O     O_R   0.718160 0.520550 0.304310 -0.501320
O10   O     O_3   0.230795 0.942900 0.549934 -0.549865

loop_
_geom_bond_atom_site_label_1
_geom_bond_atom_site_label_2
_ccdc_geom_bond_type
C4    H2    S    
Cu1   N2    S    
Cu1   O5    S    
Cu2   N1    S    
Cu2   O3    S    
C9    H6    S    
Cu1   O9    S    
C10   H5    S    
C2    O2    S    
C2    C12   D    
C1    O1    A    
C8    H7    S    
C7    O9    A    
C4    H4    S    
Cu1   O6    S    
H9    N2    S    
Cu2   O8    S    
C9    C11   D    
C3    H10   S    
C1    C12   S    
C11   H1    S    
C4    H3    S    
Cu1   O1    S    
C6    O8    A    
H8    N1    S    
C1    O4    A    
C12   O10   S    
C2    C5    S    
C10   C11   S    
C3    H11   S    
C8    C10   D    
N1    N2    D    
C7    C9    S    
C6    C8    S    
Cu1   Cu2   S    
C7    O7    A    
Cu2   O7    S    
C3    H12   S    
C4    O2    S    
C6    O6    A    
C3    O10   S    
Cu2   O4    S    
C5    O3    A    
C5    O5    A    
