data_mof_unit_30859.cif
_audit_creation_date              2013-03-05T16:02:23-0500
_audit_creation_method            fapswitch 2.2
_symmetry_space_group_name_H-M    P1
_symmetry_Int_Tables_number       1
_space_group_crystal_system       triclinic
_cell_length_a                    14.99277
_cell_length_b                    13.98929
_cell_length_c                    10.627991
_cell_angle_alpha                 90.13515
_cell_angle_beta                  89.918033
_cell_angle_gamma                 90.821274
_cell_volume                      2228.85841255

loop_
_atom_site_label
_atom_site_type_symbol
_atom_site_description
_atom_site_fract_x
_atom_site_fract_y
_atom_site_fract_z
_atom_type_partial_charge
O1    O     O_R   0.367860 0.580280 0.500020 -0.580155
O2    O     O_R   0.367860 0.419720 0.500020 -0.664642
C1    C     C_R   0.326095 0.499056 0.496063 0.921672
O3    O     O_R   0.500000 0.580270 0.314790 -0.596991
O4    O     O_R   0.500000 0.419730 0.314790 -0.644520
C2    C     C_R   0.493315 0.499798 0.258203 0.846103
Zn1   Zn    Zn3+2 0.500020 0.607200 0.499990 0.981621
Zn2   Zn    Zn3+2 0.500020 0.392800 0.499990 0.938485
O5    O     O_R   0.632160 0.580270 0.499960 -0.636625
O6    O     O_R   0.632160 0.419730 0.499960 -0.620616
O7    O     O_R   0.500030 0.580270 0.685200 -0.612016
O8    O     O_R   0.500030 0.419730 0.685200 -0.651031
C3    C     C_R   0.673416 0.500825 0.498748 0.891436
C4    C     C_R   0.492124 0.500058 0.741549 0.905795
C5    C     C_3   0.436110 0.591003 0.074431 -0.221016
C6    C     C_3   0.440110 0.404522 0.072241 -0.186567
H1    H     H_    0.473856 0.654973 0.109731 0.184833
H2    H     H_    0.488003 0.346196 0.092651 0.160936
C7    C     C_3   0.442028 0.595854 0.928612 -0.201904
C8    C     C_3   0.432116 0.409457 0.926409 -0.227245
H3    H     H_    0.491305 0.654036 0.906979 0.122475
H4    H     H_    0.467769 0.345360 0.890924 0.116395
H5    H     H_    0.616175 0.571409 0.099751 0.183856
H6    H     H_    0.622483 0.443874 0.109855 0.180220
H7    H     H_    0.623186 0.555504 0.887583 0.179415
H8    H     H_    0.613060 0.428025 0.897899 0.191730
C9    C     C_3   0.582428 0.503373 0.070846 -0.442847
C10   C     C_3   0.485510 0.499490 0.121948 -0.013411
C11   C     C_3   0.484237 0.500508 0.877728 0.065886
C12   C     C_3   0.581575 0.496202 0.927357 -0.472751
C13   C     C_R   0.812250 0.427360 0.433550 -0.241019
C14   C     C_R   0.768775 0.503891 0.487731 -0.075489
C15   C     C_R   0.815228 0.586452 0.523573 -0.248875
C16   C     C_R   0.907826 0.592996 0.510295 0.048398
C17   C     C_R   0.952535 0.512267 0.462254 0.035796
C18   C     C_R   0.903773 0.431165 0.419808 0.103124
C19   C     C_R   0.955985 0.677068 0.545262 0.122139
C20   C     C_R   0.050623 0.675066 0.546620 0.134559
C21   C     C_R   0.094346 0.590688 0.505003 0.039485
C22   C     C_R   0.045395 0.510761 0.459390 0.005075
C23   C     C_R   0.089108 0.427127 0.415408 0.032881
C24   C     C_R   0.038715 0.354886 0.351690 -0.014962
C25   C     C_R   0.946284 0.355612 0.360824 -0.196961
C26   C     C_R   0.186680 0.584010 0.508210 -0.143704
C27   C     C_R   0.229565 0.498499 0.481948 -0.126249
C28   C     C_R   0.180630 0.417304 0.441026 -0.110382
H9    H     H_    0.774692 0.365161 0.401054 0.147496
H10   H     H_    0.777712 0.643871 0.564729 0.171473
H11   H     H_    0.227014 0.644407 0.537042 0.187947
H12   H     H_    0.906841 0.298335 0.318703 0.179849
C29   C     C_R   0.563346 0.798898 0.432560 -0.054036
C30   C     C_R   0.563161 0.202766 0.432223 -0.044871
N1    N     N_R   0.500070 0.750030 0.500050 -0.099950
N2    N     N_R   0.500070 0.249970 0.500050 -0.110035
C31   C     C_R   0.436523 0.797179 0.567150 -0.042691
C32   C     C_R   0.436580 0.201099 0.567210 -0.049951
C33   C     C_R   0.434790 0.897850 0.568489 0.010640
C34   C     C_R   0.434789 0.100359 0.568472 0.019182
C35   C     C_R   0.499746 0.949341 0.499585 0.091704
C36   C     C_R   0.499722 0.050611 0.499538 0.084185
C37   C     C_R   0.564777 0.899612 0.430786 0.015754
C38   C     C_R   0.564661 0.102086 0.430582 0.017418
C39   C     C_R   0.370069 0.948006 0.636775 -0.214463
C40   C     C_R   0.370051 0.048441 0.636733 -0.160154
C41   C     C_R   0.629247 0.051920 0.362069 -0.192605
C42   C     C_R   0.629334 0.951513 0.362227 -0.200824
H13   H     H_    0.612571 0.759192 0.380165 0.128109
H14   H     H_    0.612240 0.243751 0.379510 0.128340
H15   H     H_    0.387268 0.756189 0.619518 0.145765
H16   H     H_    0.387400 0.240790 0.619620 0.138364
H17   H     H_    0.319558 0.909579 0.690257 0.147388
H18   H     H_    0.319505 0.085486 0.690152 0.168984
H19   H     H_    0.679724 0.090312 0.308509 0.146417
H20   H     H_    0.679880 0.914480 0.308795 0.143145
C43   C     C_3   0.104566 0.760948 0.596618 -0.440037
C44   C     C_3   0.142216 0.822089 0.489385 -0.815210
H21   H     H_    0.181569 0.882887 0.528928 0.259374
H22   H     H_    0.186354 0.779968 0.427156 0.276892
H23   H     H_    0.087091 0.851110 0.431962 0.264510
H24   H     H_    0.065224 0.807505 0.659049 0.225668
H25   H     H_    0.158631 0.737773 0.660296 0.209042
C45   C     C_2   0.221123 0.320858 0.441350 0.388439
H26   H     H_    0.279813 0.306080 0.385366 0.108476
O9    O     O_2   0.187925 0.256593 0.504197 -0.542772
C46   C     C_2   0.079654 0.284327 0.264892 0.482182
H27   H     H_    0.144898 0.298434 0.224263 0.084617
O10   O     O_2   0.040185 0.210616 0.235571 -0.549656
C47   C     C_2   0.342433 0.599587 0.127271 0.332560
H28   H     H_    0.288738 0.553902 0.093639 0.136540
O11   O     O_2   0.325965 0.659885 0.206927 -0.564070
C48   C     C_2   0.356160 0.372942 0.141386 0.484692
H29   H     H_    0.324605 0.418911 0.209904 0.002257
O12   O     O_2   0.324239 0.293368 0.122821 -0.575565
C49   C     C_2   0.357175 0.630996 0.865989 0.397433
H30   H     H_    0.328033 0.697056 0.899060 0.070454
O13   O     O_2   0.322176 0.589428 0.777539 -0.584330
C50   C     C_2   0.339087 0.398450 0.870858 0.552073
H31   H     H_    0.331107 0.362527 0.780892 0.060924
O14   O     O_2   0.273267 0.431261 0.921901 -0.555518
C51   C     C_3   0.906538 0.769239 0.575315 -0.407447
C52   C     C_3   0.880547 0.775195 0.714412 -0.853124
H32   H     H_    0.835665 0.714939 0.741393 0.254274
H33   H     H_    0.940408 0.773267 0.775494 0.259732
H34   H     H_    0.845282 0.843169 0.732190 0.255705
H35   H     H_    0.946240 0.833523 0.548818 0.220362
H36   H     H_    0.846328 0.775999 0.515548 0.196602

loop_
_geom_bond_atom_site_label_1
_geom_bond_atom_site_label_2
_geom_bond_distance
_ccdc_geom_bond_type
C26   H11   1.076154 S    
C6    C10   1.574542 S    
C52   H32   1.109005 S    
C16   C19   1.420220 A    
C23   C24   1.423748 A    
C3    C14   1.434344 S    
C17   C18   1.414203 A    
C29   C37   1.408952 A    
H6    C9    1.114465 S    
C50   H31   1.085100 S    
C46   H27   1.084398 S    
C5    C7    1.553767 S    
C51   H35   1.108011 S    
C19   C20   1.419656 A    
C7    H3    1.115491 S    
C44   H22   1.109337 S    
C20   C21   1.427432 A    
O7    C4    1.277101 A    
C33   C35   1.408512 A    
C34   C36   1.408464 A    
C42   H20   1.083421 S    
C41   H19   1.083414 S    
C36   C38   1.408518 A    
C16   C17   1.415423 A    
O5    C3    1.279670 A    
C28   C45   1.487427 S    
C37   C42   1.405427 A    
C2    C10   1.452994 S    
C8    C50   1.520994 S    
C23   C28   1.408019 A    
C44   H23   1.110214 S    
H5    C9    1.114230 S    
C43   H24   1.104633 S    
C30   H14   1.082723 S    
C6    C8    1.556470 S    
C8    C11   1.572940 S    
N1    C31   1.365722 A    
C35   C36   1.416713 A    
C52   H33   1.109092 S    
C13   H9    1.085612 S    
C9    C12   1.528120 S    
O3    Zn1   2.003161 S    
C50   O14   1.220278 D    
C30   N2    1.365334 A    
C33   C39   1.405581 A    
C20   C43   1.533041 S    
C46   O10   1.221506 D    
C34   C40   1.405767 A    
N2    C32   1.365534 A    
C35   C37   1.408621 A    
C44   H21   1.110293 S    
O3    C2    1.277808 A    
Zn2   N2    1.998104 S    
C48   H29   1.083133 S    
C43   H25   1.109203 S    
C27   C28   1.411491 A    
C1    C27   1.455122 S    
C29   N1    1.365143 A    
Zn1   O7    2.005011 S    
C43   C44   1.529040 S    
C11   C12   1.554487 S    
C48   O12   1.221114 D    
C13   C14   1.385162 A    
Zn2   O8    2.003264 S    
C15   C16   1.396965 A    
C24   C46   1.487785 S    
C29   H13   1.082773 S    
C49   O13   1.219535 D    
C31   H15   1.082634 S    
C7    C49   1.524784 S    
Zn2   O6    2.011332 S    
C22   C23   1.426677 A    
C47   O11   1.221142 D    
H8    C12   1.114248 S    
C52   H34   1.110293 S    
C32   H16   1.082287 S    
C31   C33   1.408966 A    
C24   C25   1.389231 A    
Zn1   N1    1.998078 S    
C4    C11   1.451971 S    
C7    C11   1.578565 S    
C21   C22   1.413778 A    
C26   C27   1.393649 A    
H7    C12   1.114539 S    
C5    H1    1.116401 S    
C38   C41   1.405498 A    
O1    Zn1   2.011606 S    
C51   H36   1.109811 S    
O2    Zn2   2.022211 S    
C8    H4    1.115151 S    
O6    C3    1.284399 A    
O4    Zn2   2.004908 S    
C25   H12   1.085181 S    
C21   C26   1.389301 A    
C45   O9    1.221140 D    
C14   C15   1.392749 A    
O2    C1    1.282908 A    
O8    C4    1.279024 A    
C41   C42   1.404647 A    
C30   C38   1.409010 A    
C5    C10   1.572827 S    
O4    C2    1.277851 A    
C51   C52   1.530669 S    
C32   C34   1.409239 A    
C17   C22   1.392977 A    
C40   H18   1.083436 S    
C49   H30   1.085390 S    
C39   C40   1.405022 A    
Zn1   O5    2.021942 S    
C47   H28   1.081345 S    
C6    C48   1.517353 S    
C6    H2    1.116453 S    
C45   H26   1.083583 S    
C9    C10   1.550787 S    
C15   H10   1.078671 S    
C13   C18   1.380004 A    
C18   C25   1.389744 A    
O1    C1    1.290129 A    
C39   H17   1.083549 S    
C19   C51   1.529381 S    
C5    C47   1.518099 S    
