data_mof_unit_65328.cif
_audit_creation_date              2012-12-10T19:50:10-0500
_audit_creation_method            fapswitch 2.2
_symmetry_space_group_name_H-M    P1
_symmetry_Int_Tables_number       1
_space_group_crystal_system       triclinic
_cell_length_a                    36.766789
_cell_length_b                    18.275112
_cell_length_c                    18.275948
_cell_angle_alpha                 89.99982
_cell_angle_beta                  119.805795
_cell_angle_gamma                 90.001519
_cell_volume                      10655.4761341

loop_
_atom_site_label
_atom_site_type_symbol
_atom_type_description
_atom_site_fract_x
_atom_site_fract_y
_atom_site_fract_z
_atom_type_partial_charge
C1    C     C_R   0.500015 0.000000 0.358796 0.933767
C2    C     C_1   0.336781 0.999995 0.336805 -0.120682
C3    C     C_1   0.163219 0.500005 0.663195 -0.120683
C4    C     C_1   0.836781 0.499995 0.336805 -0.120689
C5    C     C_1   0.625702 0.000003 0.625686 -0.179421
C6    C     C_1   0.374298 0.999996 0.374314 -0.179419
C7    C     C_1   0.125702 0.500004 0.625686 -0.179418
C8    C     C_1   0.874298 0.499997 0.374314 -0.179412
C9    C     C_1   0.500009 0.000001 0.282378 -0.193771
C10   C     C_1   0.499991 0.999999 0.717622 -0.193771
C11   C     C_1   0.000009 0.500001 0.282378 -0.193771
C12   C     C_R   0.499985 1.000000 0.641204 0.933767
C13   C     C_1   0.999991 0.499999 0.717622 -0.193771
C14   C     C_1   0.500002 0.000003 0.217634 -0.191362
C15   C     C_1   0.499998 0.999997 0.782366 -0.191362
C16   C     C_1   0.000002 0.500003 0.217634 -0.191362
C17   C     C_1   0.999998 0.499997 0.782366 -0.191362
C18   C     C_R   0.000000 0.141039 1.000000 0.933507
C19   C     C_R   1.000000 0.858961 0.000000 0.933506
C20   C     C_R   0.500000 0.641039 1.000000 0.933507
C21   C     C_R   0.500000 0.358961 0.000000 0.933506
C22   C     C_R   0.918781 0.000002 0.918756 0.910308
C23   C     C_R   0.000015 0.500000 0.358796 0.933768
C24   C     C_R   0.081219 0.999998 0.081244 0.910308
C25   C     C_R   0.418781 0.500002 0.918756 0.910307
C26   C     C_R   0.581219 0.499997 0.081244 0.910308
C27   C     C_R   0.499999 0.858706 0.999996 0.934435
C28   C     C_R   0.500000 0.141294 0.000004 0.934434
C29   C     C_R   0.999999 0.358706 0.999996 0.934434
C30   C     C_R   0.000001 0.641294 0.000004 0.934435
C31   C     C_R   0.500000 0.000003 0.141219 0.934793
C32   C     C_R   0.500000 0.999996 0.858781 0.934793
C33   C     C_R   0.000000 0.500004 0.141219 0.934793
C34   C     C_R   0.999985 0.500000 0.641204 0.933767
C35   C     C_R   1.000000 0.499996 0.858781 0.934793
C36   C     C_1   0.999999 0.217491 0.999998 -0.194231
C37   C     C_1   0.000001 0.782509 0.000002 -0.194228
C38   C     C_1   0.499999 0.717491 0.999998 -0.194228
C39   C     C_1   0.500001 0.282509 0.000002 -0.194230
C40   C     C_R   0.581219 0.000001 0.581211 0.910171
C41   C     C_R   0.418781 0.999999 0.418789 0.910171
C42   C     C_R   0.081219 0.500001 0.581211 0.910171
C43   C     C_R   0.918781 0.499999 0.418789 0.910170
C44   C     C_1   0.499998 0.782253 0.999996 -0.191107
C45   C     C_1   0.836780 0.000004 0.836743 -0.120642
C46   C     C_1   0.500001 0.217747 0.000004 -0.191109
C47   C     C_1   0.999998 0.282253 0.999996 -0.191109
C48   C     C_1   0.000001 0.717747 0.000004 -0.191107
C49   C     C_3   0.725733 0.070098 0.688080 -0.391505
C50   C     C_3   0.274267 0.932256 0.316006 -0.391649
C51   C     C_3   0.274270 0.069984 0.312107 -0.391506
C52   C     C_3   0.725730 0.932377 0.683811 -0.391643
C53   C     C_3   0.225733 0.567712 0.683943 -0.391651
C54   C     C_3   0.774267 0.430024 0.312128 -0.391524
C55   C     C_3   0.774270 0.567742 0.315978 -0.391648
C56   C     C_1   0.163219 0.999995 0.163256 -0.120645
C57   C     C_3   0.225730 0.429988 0.687946 -0.391504
C58   C     C_3   0.774265 0.932376 0.732342 -0.392866
C59   C     C_3   0.225735 0.069984 0.263577 -0.393005
C60   C     C_3   0.225732 0.932256 0.267472 -0.392888
C61   C     C_3   0.774268 0.070098 0.736613 -0.393018
C62   C     C_3   0.274265 0.429988 0.736476 -0.393009
C63   C     C_3   0.725735 0.567742 0.267447 -0.392890
C64   C     C_3   0.725731 0.430025 0.263595 -0.393029
C65   C     C_3   0.274268 0.567712 0.732477 -0.392888
C66   C     C_1   0.874297 0.000004 0.874264 -0.179650
C67   C     C_1   0.336781 0.500005 0.836744 -0.120646
C68   C     C_1   0.125703 0.999996 0.125736 -0.179648
C69   C     C_1   0.374297 0.500004 0.874264 -0.179647
C70   C     C_1   0.625703 0.499996 0.125736 -0.179641
C71   C     C_3   0.708923 0.000006 0.708893 0.354153
C72   C     C_3   0.291077 0.999993 0.291107 0.354142
C73   C     C_3   0.208922 0.500007 0.708893 0.354139
C74   C     C_3   0.791078 0.499994 0.291107 0.354110
C75   C     C_3   0.791077 0.000005 0.791041 0.354165
C76   C     C_3   0.208923 0.999995 0.208959 0.354154
C77   C     C_3   0.291077 0.500005 0.791041 0.354152
C78   C     C_1   0.663219 0.499995 0.163256 -0.120652
C79   C     C_3   0.708923 0.499995 0.208958 0.354120
C80   C     C_3   0.774269 0.997541 0.853744 -0.390910
C81   C     C_3   0.225731 0.997743 0.146252 -0.390911
C82   C     C_3   0.274269 0.502316 0.853745 -0.390913
C83   C     C_3   0.725731 0.502217 0.146259 -0.390920
C84   C     C_3   0.725735 0.997541 0.805212 -0.393650
C85   C     C_3   0.274266 0.997743 0.194784 -0.393660
C86   C     C_3   0.225734 0.502317 0.805214 -0.393659
C87   C     C_3   0.774266 0.502217 0.194790 -0.393680
C88   C     C_1   0.663219 0.000005 0.663195 -0.120680
H1    H     H_    0.785923 0.073098 0.690926 0.169032
H2    H     H_    0.285923 0.932659 0.385076 0.168179
H3    H     H_    0.285928 0.072835 0.381109 0.168209
H4    H     H_    0.714072 0.932930 0.614740 0.168171
H5    H     H_    0.214077 0.567265 0.614874 0.168179
H6    H     H_    0.785923 0.427198 0.381125 0.168221
H7    H     H_    0.785927 0.567362 0.385044 0.168185
H8    H     H_    0.214072 0.427093 0.618947 0.168210
H9    H     H_    0.714074 0.881217 0.698227 0.169143
H10   H     H_    0.285926 0.119508 0.294704 0.169116
H11   H     H_    0.285921 0.881167 0.301455 0.169151
H12   H     H_    0.214077 0.932658 0.313232 0.169085
H13   H     H_    0.714080 0.119546 0.705616 0.169117
H14   H     H_    0.214074 0.380487 0.705387 0.169117
H15   H     H_    0.785926 0.618816 0.301409 0.169155
H16   H     H_    0.785920 0.380495 0.294745 0.169130
H17   H     H_    0.214079 0.618820 0.698456 0.169151
H18   H     H_    0.785927 0.045697 0.896671 0.168705
H19   H     H_    0.214073 0.947820 0.106234 0.168642
H20   H     H_    0.214077 0.045985 0.103461 0.168705
H21   H     H_    0.785923 0.947538 0.893623 0.168636
H22   H     H_    0.285927 0.552261 0.893726 0.168641
H23   H     H_    0.214082 0.072832 0.309273 0.169033
H24   H     H_    0.714074 0.453971 0.103482 0.168713
H25   H     H_    0.714077 0.552130 0.106231 0.168652
H26   H     H_    0.285923 0.454098 0.896573 0.168706
H27   H     H_    0.785919 0.881214 0.770071 0.168056
H28   H     H_    0.214080 0.119511 0.222864 0.168073
H29   H     H_    0.214074 0.881167 0.229607 0.168065
H30   H     H_    0.785926 0.119547 0.777459 0.168075
H31   H     H_    0.285920 0.380483 0.777226 0.168074
H32   H     H_    0.714081 0.618819 0.229566 0.168071
H33   H     H_    0.714074 0.380494 0.222901 0.168088
H34   H     H_    0.785919 0.932929 0.686579 0.169081
H35   H     H_    0.285926 0.618820 0.770304 0.168066
H36   H     H_    0.714081 0.045699 0.824830 0.168446
H37   H     H_    0.285919 0.947818 0.178075 0.168517
H38   H     H_    0.285923 0.045982 0.175299 0.168450
H39   H     H_    0.714078 0.947539 0.821785 0.168512
H40   H     H_    0.214081 0.552263 0.821884 0.168519
H41   H     H_    0.785920 0.453970 0.175323 0.168466
H42   H     H_    0.785923 0.552128 0.178069 0.168525
H43   H     H_    0.214077 0.454101 0.824735 0.168449
H44   H     H_    0.285923 0.567267 0.686718 0.169087
H45   H     H_    0.714076 0.427200 0.309283 0.169046
H46   H     H_    0.714080 0.567362 0.313205 0.169091
H47   H     H_    0.285918 0.427097 0.690783 0.169034
H48   H     H_    0.714076 0.073100 0.619085 0.168211
O1    O     O_R   0.500010 0.060620 0.392670 -0.620154
O2    O     O_R   0.438570 0.939380 0.438570 -0.619243
O3    O     O_R   0.438570 0.060620 0.438570 -0.619246
O4    O     O_R   0.561430 0.939380 0.561430 -0.619242
O5    O     O_R   0.061430 0.560620 0.561430 -0.619243
O6    O     O_R   0.938570 0.439380 0.438570 -0.619246
O7    O     O_R   0.938570 0.560620 0.438570 -0.619242
O8    O     O_R   0.061430 0.439380 0.561430 -0.619246
O9    O     O_R   0.000000 0.107140 0.939380 -0.619810
O10   O     O_R   0.000000 0.892860 0.060620 -0.619809
O11   O     O_R   0.000000 0.107140 0.060620 -0.619808
O12   O     O_R   0.499990 0.939380 0.607330 -0.620151
O13   O     O_R   0.000000 0.892860 0.939380 -0.619806
O14   O     O_R   0.500000 0.607140 0.939380 -0.619808
O15   O     O_R   0.500000 0.392860 0.060620 -0.619811
O16   O     O_R   0.500000 0.607140 0.060620 -0.619806
O17   O     O_R   0.500000 0.392860 0.939380 -0.619807
O18   O     O_R   0.938580 0.000000 0.877970 -0.619030
O19   O     O_R   0.061420 0.000000 0.122030 -0.619029
O20   O     O_R   0.438580 0.500000 0.877970 -0.619030
O21   O     O_R   0.561420 0.500000 0.122030 -0.619030
O22   O     O_R   0.938570 0.000000 0.999140 -0.619109
O23   O     O_R   0.499990 0.060620 0.607330 -0.620152
O24   O     O_R   0.061430 0.000000 0.000860 -0.619109
O25   O     O_R   0.438570 0.500000 0.999140 -0.619110
O26   O     O_R   0.561430 0.500000 0.000860 -0.619109
O27   O     O_R   0.534690 0.892630 0.034650 -0.622029
O28   O     O_R   0.465310 0.107370 0.965350 -0.622029
O29   O     O_R   0.465310 0.892630 0.965350 -0.622031
O30   O     O_R   0.534690 0.107370 0.034650 -0.622031
O31   O     O_R   0.034690 0.392630 0.034650 -0.622030
O32   O     O_R   0.965310 0.607370 0.965350 -0.622029
O33   O     O_R   0.965310 0.392630 0.965350 -0.622031
O34   O     O_R   0.500010 0.939380 0.392670 -0.620149
O35   O     O_R   0.034690 0.607370 0.034650 -0.622031
O36   O     O_R   0.534680 0.000000 0.141990 -0.622115
O37   O     O_R   0.465320 0.000000 0.858010 -0.622115
O38   O     O_R   0.034680 0.500000 0.141990 -0.622115
O39   O     O_R   0.965320 0.500000 0.858010 -0.622115
O40   O     O_R   0.465320 1.000000 0.072630 -0.621990
O41   O     O_R   0.534680 1.000000 0.927370 -0.621990
O42   O     O_R   0.965320 0.500000 0.072630 -0.621990
O43   O     O_R   0.034680 0.500000 0.927370 -0.621990
O44   O     O_R   0.000010 0.560620 0.392670 -0.620151
O45   O     O_R   0.999990 0.439380 0.607330 -0.620154
O46   O     O_R   0.999990 0.560620 0.607330 -0.620149
O47   O     O_R   0.000010 0.439380 0.392670 -0.620152
O48   O     O_R   0.561430 0.060620 0.561430 -0.619246
Zn1   Zn    Zn3+2 0.500000 0.080950 0.500000 0.961192
Zn2   Zn    Zn3+2 0.453690 0.000000 0.953700 0.958433
Zn3   Zn    Zn3+2 0.046310 0.500000 0.046300 0.958433
Zn4   Zn    Zn3+2 0.953690 0.500000 0.953700 0.958433
Zn5   Zn    Zn3+2 0.500000 0.919050 0.500000 0.961200
Zn6   Zn    Zn3+2 0.000000 0.580950 0.500000 0.961200
Zn7   Zn    Zn3+2 1.000000 0.419050 0.500000 0.961192
Zn8   Zn    Zn3+2 0.000010 0.000000 0.919080 0.961070
Zn9   Zn    Zn3+2 0.999990 0.000000 0.080920 0.961070
Zn10  Zn    Zn3+2 0.500010 0.500000 0.919080 0.961070
Zn11  Zn    Zn3+2 0.499990 0.500000 0.080920 0.961070
Zn12  Zn    Zn3+2 0.546310 0.000000 0.046300 0.958433

loop_
_geom_bond_atom_site_label_1
_geom_bond_atom_site_label_2
_ccdc_geom_bond_type
C83   C87   S    
C81   H19   S    
O32   Zn4   S    
O41   Zn12  S    
C55   H15   S    
C50   C60   S    
C70   C78   T    
C83   H25   S    
C62   C77   S    
C43   O7    A    
C67   C77   S    
C8    C43   S    
C14   C31   S    
C4    C8    T    
C18   O9    A    
C72   C85   S    
C57   C62   S    
C63   C79   S    
C61   C75   S    
C38   C44   T    
C57   H14   S    
O34   Zn5   S    
C28   C46   S    
C50   H11   S    
C36   C47   T    
C56   C76   S    
C82   H22   S    
C87   H42   S    
C30   C48   S    
O30   Zn12  S    
O28   Zn2   S    
C10   C15   T    
C49   H13   S    
C16   C33   S    
C86   H43   S    
O43   Zn3   S    
C31   O36   A    
O15   Zn11  S    
C64   H33   S    
C80   H18   S    
C1    O34   A    
O48   Zn1   S    
O25   Zn11  S    
C26   O21   A    
C7    C42   S    
C57   C73   S    
C50   C72   S    
O14   Zn10  S    
C63   H32   S    
C19   C37   S    
C51   H3    S    
O39   Zn4   S    
C54   C74   S    
C55   C74   S    
C85   H37   S    
C27   C44   S    
C50   H2    S    
C22   C66   S    
O17   Zn10  S    
C41   O3    A    
C25   O25   A    
C59   H28   S    
C6    C41   S    
C55   C63   S    
C80   H21   S    
C59   H23   S    
C34   O46   A    
C74   C87   S    
C53   C65   S    
C75   C80   S    
C4    C74   S    
C24   O19   A    
C28   O30   A    
O42   Zn4   S    
C51   H10   S    
C65   H35   S    
C33   O42   A    
C81   H20   S    
C25   O20   A    
O4    Zn5   S    
C5    C88   T    
C85   H38   S    
C2    C6    T    
C2    C72   S    
C61   H1    S    
C58   C75   S    
O1    Zn1   S    
C31   O40   A    
C35   O43   A    
C52   C58   S    
O37   Zn2   S    
C58   H34   S    
O22   Zn9   S    
C65   C77   S    
C86   H40   S    
C80   C84   S    
C19   O10   A    
C63   H46   S    
C15   C32   S    
C17   C35   S    
C1    C9    S    
C82   H26   S    
C55   H7    S    
C18   O11   A    
C26   O26   A    
C78   C79   S    
C22   O22   A    
C30   O35   A    
C82   C86   S    
C53   H5    S    
C57   H8    S    
C20   O16   A    
C37   C48   T    
C62   H47   S    
O20   Zn10  S    
C9    C14   T    
C77   C82   S    
C23   O47   A    
C52   H9    S    
O19   Zn9   S    
O38   Zn3   S    
C20   C38   S    
C11   C16   T    
C21   C39   S    
O31   Zn3   S    
O26   Zn10  S    
C42   O5    A    
C62   H31   S    
C60   H29   S    
O10   Zn9   S    
C33   O38   A    
O24   Zn8   S    
C41   O2    A    
C10   C12   S    
C27   O29   A    
C39   C46   T    
C49   H48   S    
C29   C47   S    
C60   C76   S    
O9    Zn8   S    
C42   O8    A    
C58   H27   S    
C26   C70   S    
C64   C79   S    
C32   O41   A    
O36   Zn12  S    
O2    Zn5   S    
C25   C69   S    
C51   C72   S    
C65   H44   S    
C1    O1    A    
C28   O28   A    
C71   C84   S    
C22   O18   A    
C54   H16   S    
O12   Zn5   S    
O18   Zn8   S    
C64   H45   S    
O13   Zn8   S    
O16   Zn11  S    
C61   H30   S    
O21   Zn11  S    
C53   C73   S    
O5    Zn6   S    
O33   Zn4   S    
C60   H12   S    
O47   Zn7   S    
C76   C81   S    
C24   O24   A    
O40   Zn2   S    
O8    Zn7   S    
C13   C17   T    
C84   H36   S    
C23   O44   A    
C32   O37   A    
C3    C7    T    
O29   Zn2   S    
O35   Zn3   S    
C45   C75   S    
C27   O27   A    
C87   H41   S    
O23   Zn1   S    
C35   O39   A    
C13   C34   S    
C52   C71   S    
C56   C68   T    
C12   O12   A    
C79   C83   S    
C34   O45   A    
O45   Zn7   S    
C49   C61   S    
C29   O31   A    
C54   C64   S    
O27   Zn12  S    
C84   H39   S    
O6    Zn7   S    
C40   O4    A    
C11   C23   S    
C19   O13   A    
O7    Zn6   S    
C20   O14   A    
C29   O33   A    
O11   Zn9   S    
C21   O15   A    
C12   O23   A    
C3    C73   S    
C73   C86   S    
C54   H6    S    
C52   H4    S    
C24   C68   S    
C30   O32   A    
C71   C88   S    
C53   H17   S    
C51   C59   S    
C49   C71   S    
C5    C40   S    
C45   C66   T    
C21   O17   A    
C83   H24   S    
C43   O6    A    
O44   Zn6   S    
O46   Zn6   S    
C67   C69   T    
O3    Zn1   S    
C18   C36   S    
C59   C76   S    
C81   C85   S    
C40   O48   A    
