data_mof_unit_35887.cif
_audit_creation_date              2012-12-11T16:23:17-0500
_audit_creation_method            fapswitch 2.2
_symmetry_space_group_name_H-M    P1
_symmetry_Int_Tables_number       1
_space_group_crystal_system       triclinic
_cell_length_a                    19.876632
_cell_length_b                    7.220584
_cell_length_c                    19.806412
_cell_angle_alpha                 90.000186
_cell_angle_beta                  98.785112
_cell_angle_gamma                 90.002164
_cell_volume                      2809.28440066

loop_
_atom_site_label
_atom_site_type_symbol
_atom_type_description
_atom_site_fract_x
_atom_site_fract_y
_atom_site_fract_z
_atom_type_partial_charge
O1    O     O_R   0.188410 0.619490 0.310050 -0.538835
O2    O     O_R   0.811590 0.380510 0.689950 -0.533137
O3    O     O_R   0.311590 0.119490 0.189950 -0.538840
O4    O     O_R   0.688410 0.880510 0.810050 -0.533153
O5    O     O_R   0.327280 0.288800 0.321740 -0.528280
O6    O     O_R   0.672720 0.711200 0.678260 -0.527097
O7    O     O_R   0.172720 0.788800 0.178260 -0.528276
O8    O     O_R   0.827280 0.211200 0.821740 -0.527069
C1    C     C_R   0.350946 0.458120 0.339556 0.759116
C2    C     C_R   0.648371 0.541916 0.661604 0.763139
C3    C     C_R   0.149054 0.958113 0.160442 0.759095
C4    C     C_R   0.851630 0.041923 0.838395 0.763191
O9    O     O_R   0.189900 0.289710 0.318190 -0.538627
O10   O     O_R   0.810100 0.710290 0.681810 -0.528831
O11   O     O_R   0.310100 0.789710 0.181810 -0.538620
O12   O     O_R   0.689900 0.210290 0.818190 -0.528786
O13   O     O_R   0.173230 0.120350 0.186370 -0.526206
O14   O     O_R   0.826770 0.879650 0.813630 -0.530123
O15   O     O_R   0.326770 0.620350 0.313630 -0.526226
O16   O     O_R   0.673230 0.379650 0.686370 -0.530145
C5    C     C_R   0.170560 0.458737 0.335131 0.731021
C6    C     C_R   0.830736 0.541508 0.666737 0.715767
C7    C     C_R   0.329436 0.958740 0.164866 0.730952
C8    C     C_R   0.669260 0.041503 0.833259 0.715831
O17   O     O_3   0.244690 0.453290 0.206760 -0.374260
O18   O     O_3   0.755310 0.546710 0.793240 -0.370955
O19   O     O_3   0.255310 0.953290 0.293240 -0.374285
O20   O     O_3   0.744690 0.046710 0.706760 -0.371005
V1    V     V_3+5 0.250980 0.178070 0.258020 1.548323
V2    V     V_3+5 0.749020 0.821930 0.741980 1.577047
V3    V     V_3+5 0.249020 0.678070 0.241980 1.548328
V4    V     V_3+5 0.750980 0.321930 0.758020 1.577138
C9    C     C_R   0.462537 0.146152 0.062770 0.409447
C10   C     C_R   0.591059 0.929175 0.991790 0.467898
C11   C     C_R   0.037435 0.646131 0.437192 0.409487
C12   C     C_R   0.908910 0.429133 0.508194 0.467373
C13   C     C_R   0.413654 0.134737 0.106880 -0.199781
C14   C     C_R   0.637309 0.941035 0.944813 -0.199925
C15   C     C_R   0.086335 0.634731 0.393103 -0.199770
C16   C     C_R   0.862668 0.441001 0.555179 -0.200368
H1    H     H_    0.405575 0.253269 0.137844 0.181429
H2    H     H_    0.687935 0.883682 0.958119 0.162051
H3    H     H_    0.094426 0.753273 0.362147 0.181408
H4    H     H_    0.812042 0.383620 0.541891 0.161848
C17   C     C_R   0.376748 0.971060 0.113148 -0.110620
C18   C     C_R   0.619728 0.030008 0.881709 -0.088269
C19   C     C_R   0.123238 0.471052 0.386839 -0.110584
C20   C     C_R   0.880255 0.530029 0.618274 -0.088029
C21   C     C_R   0.385857 0.821920 0.069836 -0.051496
C22   C     C_R   0.553805 0.100699 0.864089 -0.097419
C23   C     C_R   0.114109 0.321898 0.430138 -0.051598
C24   C     C_R   0.946170 0.600817 0.635868 -0.097372
H5    H     H_    0.357119 0.695153 0.071854 0.153684
H6    H     H_    0.538820 0.166624 0.815002 0.162621
H7    H     H_    0.142840 0.195127 0.428122 0.153661
H8    H     H_    0.961155 0.666826 0.684941 0.162513
C25   C     C_R   0.432048 0.835212 0.023026 -0.032291
C26   C     C_R   0.506143 0.082599 0.908957 -0.075325
C27   C     C_R   0.067908 0.335191 0.476939 -0.032368
C28   C     C_R   0.993823 0.582709 0.590993 -0.075317
H9    H     H_    0.437523 0.719382 0.989672 0.189877
H10   H     H_    0.455300 0.137253 0.893935 0.164421
H11   H     H_    0.062424 0.219363 0.510290 0.189851
H12   H     H_    0.044661 0.637428 0.605996 0.164332
C29   C     C_R   0.472317 0.994282 0.020436 -0.024164
C30   C     C_R   0.524037 0.999483 0.973432 -0.009392
C31   C     C_R   0.027646 0.494268 0.479526 -0.024165
C32   C     C_R   0.975930 0.499498 0.526533 -0.009170
C33   C     C_R   0.087391 0.962872 0.106797 -0.225717
C34   C     C_R   0.914854 0.031116 0.889262 -0.213564
C35   C     C_R   0.412615 0.462915 0.393190 -0.225716
C36   C     C_R   0.585151 0.531079 0.610733 -0.213660
C37   C     C_R   0.038715 0.991648 0.914860 0.474553
C38   C     C_R   0.966610 0.889822 0.071715 0.457221
C39   C     C_R   0.461313 0.491085 0.585135 0.474550
C40   C     C_R   0.533447 0.390387 0.428199 0.457334
C41   C     C_R   0.978784 0.021036 0.867120 0.048282
C42   C     C_R   0.024724 0.897976 0.122532 0.068482
C43   C     C_R   0.521232 0.520602 0.632877 0.048323
C44   C     C_R   0.475316 0.398470 0.377399 0.068365
C45   C     C_R   0.910833 0.009765 0.959086 0.183416
C46   C     C_R   0.092314 0.011583 0.038469 0.183799
C47   C     C_R   0.589178 0.510060 0.540896 0.183354
C48   C     C_R   0.407678 0.511260 0.461548 0.183795
C49   C     C_R   0.969877 0.964064 0.006025 -0.140221
C50   C     C_R   0.034733 0.990304 0.986147 -0.134595
C51   C     C_R   0.530152 0.464277 0.493937 -0.140167
C52   C     C_R   0.465284 0.490065 0.513845 -0.134643
S1    S     S_3+6 0.514208 0.346208 0.065744 0.082144
O21   O     O_2   0.513540 0.422268 0.995071 -0.319290
O22   O     O_2   0.489306 0.492641 0.109765 -0.306843
O23   O     O_3   0.594486 0.289119 0.098495 -0.394457
H13   H     H_    0.591994 0.248023 0.145765 0.402505
S2    S     S_3+6 0.621999 0.832677 0.072896 0.163820
O24   O     O_2   0.568781 0.823493 0.119033 -0.255841
O25   O     O_2   0.648105 0.640784 0.063124 -0.232593
O26   O     O_3   0.686900 0.963378 0.110933 -0.422068
H14   H     H_    0.726483 0.925961 0.089330 0.396175
S3    S     S_3+6 0.985736 0.846128 0.434177 0.082138
O27   O     O_2   0.986411 0.922310 0.504834 -0.319305
O28   O     O_2   0.010598 0.992518 0.390109 -0.306780
O29   O     O_3   0.905462 0.788868 0.401466 -0.394642
H15   H     H_    0.907932 0.747905 0.354177 0.402554
S4    S     S_3+6 0.877975 0.332516 0.427103 0.164134
O30   O     O_2   0.931170 0.323558 0.380928 -0.255810
O31   O     O_2   0.851970 0.140519 0.436905 -0.232343
O32   O     O_3   0.812992 0.462938 0.389078 -0.421601
H16   H     H_    0.773581 0.426473 0.411106 0.395757
I1    I     I_    0.179983 0.168018 0.021282 -0.183638
I2    I     I_    0.821867 0.115802 0.994544 -0.179517
I3    I     I_    0.319914 0.667119 0.478831 -0.183877
I4    I     I_    0.678099 0.616661 0.505500 -0.179194
I5    I     I_    0.016218 0.831403 0.225893 -0.142810
I6    I     I_    0.983750 0.069169 0.761055 -0.244826
I7    I     I_    0.483824 0.332484 0.273990 -0.142797
I8    I     I_    0.516241 0.568419 0.738955 -0.244748
S5    S     S_3+6 0.110801 0.896243 0.883739 0.082520
O33   O     O_2   0.150466 0.049070 0.856519 -0.278371
O34   O     O_2   0.155906 0.792734 0.938998 -0.308092
O35   O     O_3   0.084543 0.745780 0.820301 -0.481546
H17   H     H_    0.126424 0.709027 0.802304 0.390061
S6    S     S_3+6 0.899137 0.737191 0.084793 0.085207
O36   O     O_2   0.855877 0.827956 0.131274 -0.270273
O37   O     O_2   0.855787 0.686126 0.018410 -0.318909
O38   O     O_3   0.932405 0.540944 0.121671 -0.472534
H18   H     H_    0.892619 0.464949 0.128880 0.406828
S7    S     S_3+6 0.389299 0.395131 0.616227 0.082428
O39   O     O_2   0.349531 0.547608 0.643518 -0.278300
O40   O     O_2   0.344262 0.291573 0.560927 -0.308204
O41   O     O_3   0.415670 0.244579 0.679601 -0.481670
H19   H     H_    0.373784 0.207014 0.697429 0.390067
S8    S     S_3+6 0.601012 0.238230 0.415002 0.085213
O42   O     O_2   0.644199 0.329538 0.368572 -0.270186
O43   O     O_2   0.644407 0.187025 0.481341 -0.318894
O44   O     O_3   0.567868 0.041998 0.377994 -0.472523
H20   H     H_    0.607681 0.966581 0.370518 0.407073

loop_
_geom_bond_atom_site_label_1
_geom_bond_atom_site_label_2
_ccdc_geom_bond_type
C26   H10   S    
C6    C20   S    
C51   C52   A    
O1    C5    A    
C7    C17   S    
O19   V1    S    
O13   V1    S    
O3    C7    A    
O15   V3    S    
C10   C30   A    
S4    O31   D    
O26   H14   S    
C9    C29   A    
O44   H20   S    
C49   C50   A    
O7    C3    A    
C22   H6    S    
O9    V1    S    
C14   H2    S    
C36   C43   A    
S5    O34   D    
O4    C8    A    
O1    V3    S    
C21   C25   A    
O2    V4    S    
O3    V1    S    
C34   C45   A    
S4    O30   D    
C33   C46   A    
C24   C28   A    
C27   C31   A    
C26   C30   A    
C2    O16   A    
S8    O42   D    
O2    C6    A    
O32   H16   S    
O14   V2    S    
C11   C31   A    
S1    O22   D    
C39   S7    S    
O11   C7    A    
O12   C8    A    
C43   I8    S    
C34   C41   A    
C33   C42   A    
S2    O24   D    
O10   V2    S    
C11   S3    S    
C35   C44   A    
C1    O15   A    
O5    V1    S    
C48   I3    S    
C37   S5    S    
C31   C32   S    
O8    V4    S    
C46   I1    S    
C40   C44   A    
C12   C16   A    
O7    V3    S    
S5    O35   S    
O18   V4    S    
C19   C23   A    
S2    O26   S    
C46   C50   A    
O11   V3    S    
C9    C13   A    
C22   C26   A    
C11   C15   A    
S7    O40   D    
O5    C1    A    
C9    S1    S    
S3    O27   D    
C44   I7    S    
C17   C21   A    
O8    C4    A    
C3    C33   S    
O9    C5    A    
S1    O23   S    
S2    O25   D    
C40   C51   A    
C38   S6    S    
C10   S2    S    
O38   H18   S    
C1    C35   S    
C42   I5    S    
C23   C27   A    
C13   C17   A    
S7    O39   D    
O35   H17   S    
C15   C19   A    
C35   C48   A    
O16   V4    S    
C16   C20   A    
C4    C34   S    
C3    O13   A    
O6    V2    S    
C10   C14   A    
O17   V3    S    
C48   C52   A    
C25   C29   A    
C47   C51   A    
O6    C2    A    
C15   H3    S    
C12   C32   A    
C25   H9    S    
O12   V4    S    
C18   C22   A    
C27   H11   S    
C28   H12   S    
C12   S4    S    
C8    C18   S    
O10   C6    A    
S6    O38   S    
O20   V2    S    
O41   H19   S    
S1    O21   D    
S7    O41   S    
S5    O33   D    
C40   S8    S    
C39   C43   A    
S8    O44   S    
C21   H5    S    
O23   H13   S    
C23   H7    S    
C38   C49   A    
C13   H1    S    
O29   H15   S    
O4    V2    S    
C37   C50   A    
C14   C18   A    
C36   C47   A    
C24   H8    S    
C39   C52   A    
C16   H4    S    
S3    O29   S    
C45   I2    S    
C28   C32   A    
S8    O43   D    
C29   C30   S    
C38   C42   A    
C4    O14   A    
C37   C41   A    
C47   I4    S    
S6    O36   D    
C20   C24   A    
S6    O37   D    
S3    O28   D    
S4    O32   S    
C45   C49   A    
C41   I6    S    
C5    C19   S    
C2    C36   S    
