data_mof_unit_56044.cif
_audit_creation_date              2012-12-10T20:28:39-0500
_audit_creation_method            fapswitch 2.2
_symmetry_space_group_name_H-M    P1
_symmetry_Int_Tables_number       1
_space_group_crystal_system       triclinic
_cell_length_a                    10.612058
_cell_length_b                    10.695592
_cell_length_c                    9.886221
_cell_angle_alpha                 89.294695
_cell_angle_beta                  90.091967
_cell_angle_gamma                 90.158624
_cell_volume                      1122.01755254

loop_
_atom_site_label
_atom_site_type_symbol
_atom_type_description
_atom_site_fract_x
_atom_site_fract_y
_atom_site_fract_z
_atom_type_partial_charge
C1    C     C_R   0.504359 0.260243 0.500124 0.859860
C2    C     C_R   0.065054 0.383253 0.540634 0.087778
C3    C     C_R   0.128620 0.492781 0.499789 -0.138132
C4    C     C_R   0.066745 0.600713 0.457955 -0.211035
C5    C     C_R   0.937288 0.603927 0.458073 0.187565
C6    C     C_R   0.871911 0.495953 0.500307 -0.103034
C7    C     C_R   0.425591 0.062523 0.583420 0.064210
C8    C     C_R   0.506644 0.127744 0.497163 -0.118344
C9    C     C_R   0.575686 0.063641 0.396622 0.169586
C10   C     C_R   0.570032 0.933934 0.396204 -0.224240
C11   C     C_R   0.499744 0.870732 0.494868 -0.136205
C12   C     C_R   0.260721 0.498184 0.499957 0.879138
C13   C     C_R   0.422807 0.934994 0.582650 0.111432
C14   C     C_3   0.410798 0.923783 0.732494 -0.447863
C15   C     C_3   0.413638 0.065153 0.733994 -0.501619
C16   C     C_R   0.393515 0.467902 0.071616 0.223723
C17   C     C_R   0.601101 0.542380 0.071443 -0.143200
C18   C     C_R   0.601104 0.542367 0.927705 -0.130982
C19   C     C_R   0.393767 0.468437 0.928916 0.182331
C20   C     C_3   0.327580 0.346259 0.922791 -0.523149
C21   C     C_3   0.327190 0.344032 0.076582 -0.077702
C22   C     C_R   0.501063 0.739368 0.499051 0.889068
C23   C     C_R   0.739337 0.499942 0.500071 0.884647
C24   C     C_R   0.129306 0.272425 0.577896 -0.247936
C25   C     C_R   0.062673 0.164866 0.615101 -0.156864
C26   C     C_R   0.931094 0.165561 0.616647 0.275715
C27   C     C_R   0.866884 0.275275 0.580659 -0.186129
C28   C     C_R   0.933403 0.384809 0.541374 0.003713
H1    H     H_    0.494659 0.880491 0.781633 0.216795
H2    H     H_    0.233264 0.354579 0.874273 0.220918
H3    H     H_    0.389609 0.274173 0.880126 0.193379
H4    H     H_    0.386060 0.267935 0.120944 0.182075
H5    H     H_    0.113710 0.080589 0.642077 0.145556
H6    H     H_    0.765095 0.273648 0.582299 0.137038
H7    H     H_    0.625348 0.881978 0.323954 0.164694
H8    H     H_    0.318386 0.883553 0.763500 0.198022
N1    N     N_R   0.499160 0.499140 0.142800 -0.123706
N2    N     N_R   0.499160 0.499180 0.857150 -0.107647
O1    O     O_R   0.500020 0.316790 0.614690 -0.625445
O2    O     O_R   0.500000 0.316760 0.385350 -0.616028
O3    O     O_R   0.316770 0.500020 0.614690 -0.612078
O4    O     O_R   0.316760 0.499980 0.385350 -0.614747
O5    O     O_R   0.500000 0.683240 0.614650 -0.616874
O6    O     O_R   0.499980 0.683210 0.385310 -0.618380
O7    O     O_R   0.683240 0.500020 0.614650 -0.627039
O8    O     O_R   0.683230 0.499980 0.385310 -0.622538
Zn1   Zn    Zn3+2 0.500010 0.500020 0.653130 0.937721
Zn2   Zn    Zn3+2 0.499990 0.499980 0.346870 0.936946
H9    H     H_    0.120223 0.682878 0.426985 0.144826
H10   H     H_    0.322092 0.105176 0.765875 0.199932
H11   H     H_    0.498998 0.103411 0.784375 0.212957
H12   H     H_    0.683609 0.574863 0.125006 0.154211
H13   H     H_    0.683625 0.574797 0.873556 0.156338
C29   C     C_3   0.194415 0.349562 0.136552 -0.818447
H14   H     H_    0.199329 0.341880 0.248238 0.258106
H15   H     H_    0.145729 0.437778 0.107411 0.243261
H16   H     H_    0.137959 0.269212 0.099924 0.237572
H17   H     H_    0.231035 0.267582 0.577054 0.151339
C30   C     C_3   0.860262 0.048866 0.655522 -0.943771
H18   H     H_    0.886265 0.019829 0.760058 0.241376
H19   H     H_    0.756690 0.063223 0.651471 0.246937
H20   H     H_    0.884780 0.972755 0.585048 0.248287
C31   C     C_3   0.870555 0.723005 0.416054 -0.928330
H21   H     H_    0.808836 0.754835 0.499380 0.232315
H22   H     H_    0.938019 0.799625 0.391837 0.236525
H23   H     H_    0.812340 0.706354 0.324630 0.244989
C32   C     C_3   0.661239 0.128951 0.295931 -0.850553
H24   H     H_    0.724097 0.195814 0.348297 0.238177
H25   H     H_    0.722180 0.061667 0.241963 0.223800
H26   H     H_    0.604321 0.179347 0.218523 0.249159

loop_
_geom_bond_atom_site_label_1
_geom_bond_atom_site_label_2
_ccdc_geom_bond_type
C7    C13   A    
C12   O4    A    
C9    C32   S    
C20   H2    S    
C12   O3    A    
C23   O7    A    
C19   N2    A    
C15   H11   S    
C1    C8    S    
C9    C10   A    
C4    H9    S    
C11   C22   S    
C19   C20   S    
C1    O2    A    
C18   N2    A    
N2    Zn1   S    
C16   N1    A    
C32   H26   S    
C31   H22   S    
C7    C15   S    
C17   C18   A    
O3    Zn1   S    
C31   H23   S    
C30   H18   S    
C23   O8    A    
O4    Zn2   S    
C13   C14   S    
C24   C25   A    
N1    Zn2   S    
C14   H8    S    
C11   C13   A    
C26   C27   A    
C16   C21   S    
C22   O6    A    
C16   C19   A    
C6    C23   S    
C17   H12   S    
O1    Zn1   S    
C2    C3    A    
O8    Zn2   S    
O7    Zn1   S    
C27   H6    S    
C2    C24   A    
C5    C6    A    
C21   H4    S    
C29   H15   S    
C30   H19   S    
C10   C11   A    
C1    O1    A    
C14   H1    S    
C31   H21   S    
C10   H7    S    
O6    Zn2   S    
C7    C8    A    
C20   C21   S    
C5    C31   S    
C24   H17   S    
C21   C29   S    
C26   C30   S    
C15   H10   S    
C27   C28   A    
O2    Zn2   S    
C17   N1    A    
C29   H14   S    
C4    C5    A    
C30   H20   S    
C2    C28   A    
C3    C12   S    
C18   H13   S    
C25   C26   A    
C14   C15   S    
O5    Zn1   S    
C20   H3    S    
C22   O5    A    
C6    C28   A    
C3    C4    A    
C32   H24   S    
C25   H5    S    
C8    C9    A    
C32   H25   S    
C29   H16   S    
