data_mof_unit_54365.cif
_audit_creation_date              2012-12-11T14:08:39-0500
_audit_creation_method            fapswitch 2.2
_symmetry_space_group_name_H-M    P1
_symmetry_Int_Tables_number       1
_space_group_crystal_system       triclinic
_cell_length_a                    28.178372
_cell_length_b                    7.197716
_cell_length_c                    17.200789
_cell_angle_alpha                 90.00765
_cell_angle_beta                  101.838115
_cell_angle_gamma                 89.964411
_cell_volume                      3414.46207774

loop_
_atom_site_label
_atom_site_type_symbol
_atom_type_description
_atom_site_fract_x
_atom_site_fract_y
_atom_site_fract_z
_atom_type_partial_charge
O1    O     O_R   0.000700 0.436510 0.857920 -0.532950
O2    O     O_R   0.999300 0.563490 0.142080 -0.532836
O3    O     O_R   0.999300 0.936510 0.642080 -0.532877
O4    O     O_R   0.000700 0.063490 0.357920 -0.532927
O5    O     O_R   0.930080 0.766380 0.721890 -0.542166
O6    O     O_R   0.069920 0.233620 0.278110 -0.542016
O7    O     O_R   0.069920 0.266380 0.778110 -0.542179
O8    O     O_R   0.930080 0.733620 0.221890 -0.542020
C1    C     C_R   0.910597 0.597663 0.709092 0.702681
C2    C     C_R   0.089404 0.402412 0.290947 0.702229
C3    C     C_R   0.089404 0.097407 0.790980 0.703316
C4    C     C_R   0.910594 0.902363 0.209273 0.701448
O9    O     O_R   0.996180 0.766230 0.862310 -0.544387
O10   O     O_R   0.003820 0.233770 0.137690 -0.544187
O11   O     O_R   0.003820 0.266230 0.637690 -0.544246
O12   O     O_R   0.996180 0.733770 0.362310 -0.544367
O13   O     O_R   0.065870 0.936460 0.783500 -0.538390
O14   O     O_R   0.934130 0.063540 0.216500 -0.538122
O15   O     O_R   0.934130 0.436460 0.716500 -0.537952
O16   O     O_R   0.065870 0.563540 0.283500 -0.538433
C5    C     C_R   0.998486 0.596450 0.894480 0.758961
C6    C     C_R   0.001516 0.403551 0.105521 0.759594
C7    C     C_R   0.001514 0.096438 0.605524 0.759609
C8    C     C_R   0.998484 0.903562 0.394475 0.758898
O17   O     O_3   0.022790 0.603020 0.723980 -0.377100
O18   O     O_3   0.977210 0.396980 0.276020 -0.377101
O19   O     O_3   0.977210 0.103020 0.776020 -0.376992
O20   O     O_3   0.022790 0.896980 0.223980 -0.377112
V1    V     V_3+5 0.995770 0.877900 0.754830 1.424341
V2    V     V_3+5 0.004230 0.122100 0.245170 1.424287
V3    V     V_3+5 0.004230 0.377900 0.745170 1.424513
V4    V     V_3+5 0.995770 0.622100 0.254830 1.423973
C9    C     C_2   0.001700 0.082602 0.519575 -0.326442
C10   C     C_2   0.998296 0.917398 0.480423 -0.326459
C11   C     C_2   0.998301 0.582616 0.980432 -0.326393
C12   C     C_2   0.001704 0.417385 0.019570 -0.326557
H1    H     H_    0.004483 0.211372 0.487900 0.153545
H2    H     H_    0.995513 0.788628 0.512098 0.153487
H3    H     H_    0.995519 0.711401 0.012120 0.153537
H4    H     H_    0.004486 0.288601 0.987882 0.153461
C13   C     C_R   0.682155 0.883345 0.034514 0.636385
C14   C     C_R   0.317181 0.076754 0.970095 0.627457
C15   C     C_R   0.317487 0.412645 0.469515 0.635556
C16   C     C_R   0.682188 0.609025 0.533665 0.624666
O21   O     O_2   0.710595 0.817361 0.986464 -0.505881
O22   O     O_2   0.288665 0.128558 0.020517 -0.508494
O23   O     O_2   0.288899 0.364505 0.520327 -0.503650
O24   O     O_2   0.710260 0.681858 0.486513 -0.510548
N1    N     N_R   0.702630 0.937742 0.109980 -0.543743
N2    N     N_R   0.296908 0.041601 0.892427 -0.543895
N3    N     N_R   0.297171 0.447544 0.391827 -0.544183
N4    N     N_R   0.702936 0.550874 0.608459 -0.542368
C17   C     C_R   0.674954 0.007079 0.160040 0.637686
C18   C     C_R   0.324539 0.982491 0.840392 0.637216
C19   C     C_R   0.324978 0.500521 0.339095 0.639448
C20   C     C_R   0.675760 0.472145 0.657187 0.639175
C21   C     C_R   0.777160 0.763301 0.174674 0.001082
C22   C     C_R   0.223820 0.228219 0.830925 -0.008955
C23   C     C_R   0.223314 0.267089 0.329229 0.005225
C24   C     C_R   0.776484 0.732207 0.672249 -0.012432
C25   C     C_R   0.828140 0.758642 0.197703 -0.235944
C26   C     C_R   0.172813 0.238085 0.806952 -0.228407
C27   C     C_R   0.172382 0.259899 0.305347 -0.234960
C28   C     C_R   0.827557 0.739851 0.695454 -0.228606
C29   C     C_R   0.833658 0.071287 0.148841 -0.157392
C30   C     C_R   0.165196 0.921711 0.850234 -0.162127
C31   C     C_R   0.165693 0.574765 0.351110 -0.158983
C32   C     C_R   0.834379 0.425962 0.648677 -0.158550
C33   C     C_R   0.783231 0.077319 0.124604 -0.096346
C34   C     C_R   0.215441 0.910207 0.874919 -0.054062
C35   C     C_R   0.216033 0.583467 0.375860 -0.092322
C36   C     C_R   0.784070 0.416916 0.624279 -0.053977
C37   C     C_R   0.754581 0.924988 0.136681 0.317085
C38   C     C_R   0.245142 0.061189 0.865758 0.319632
C39   C     C_R   0.245257 0.431582 0.365485 0.316334
C40   C     C_R   0.754736 0.567773 0.635496 0.318663
C41   C     C_R   0.602049 0.964426 0.056954 -0.045970
C42   C     C_R   0.397445 0.011442 0.944441 -0.042725
C43   C     C_R   0.397880 0.472513 0.443286 -0.044292
C44   C     C_R   0.602484 0.520293 0.555422 -0.042560
C45   C     C_R   0.631747 0.894844 0.006807 -0.051276
C46   C     C_R   0.367452 0.060053 0.997649 -0.050538
C47   C     C_R   0.367882 0.425727 0.496705 -0.049562
C48   C     C_R   0.631902 0.593812 0.505673 -0.051648
C49   C     C_R   0.610672 0.836826 0.930010 -0.075755
C50   C     C_R   0.388026 0.089756 0.077620 -0.073042
C51   C     C_R   0.388582 0.394527 0.576561 -0.072735
C52   C     C_R   0.610657 0.652666 0.429085 -0.077655
C53   C     C_R   0.623725 0.022750 0.134978 -0.083439
C54   C     C_R   0.376005 0.973605 0.863963 -0.104332
C55   C     C_R   0.376438 0.509488 0.362712 -0.081606
C56   C     C_R   0.624412 0.459315 0.632960 -0.103745
C57   C     C_R   0.856799 0.911188 0.184993 -0.070721
C58   C     C_R   0.143139 0.085971 0.816315 -0.073714
C59   C     C_R   0.143158 0.412469 0.316040 -0.070759
C60   C     C_R   0.856841 0.587830 0.684115 -0.075223
H5    H     H_    0.854553 0.191402 0.138171 0.138606
H6    H     H_    0.143592 0.801847 0.858656 0.136147
H7    H     H_    0.144391 0.694944 0.360402 0.138519
H8    H     H_    0.855723 0.306412 0.638741 0.136404
H9    H     H_    0.766182 0.201489 0.096087 0.140575
H10   H     H_    0.231554 0.782675 0.901558 0.136279
H11   H     H_    0.232565 0.709523 0.403283 0.141995
H12   H     H_    0.767609 0.291438 0.596168 0.137252
H13   H     H_    0.632716 0.781605 0.890713 0.211707
H14   H     H_    0.365469 0.117198 0.120234 0.212580
H15   H     H_    0.366096 0.367180 0.619282 0.209614
H16   H     H_    0.632519 0.710191 0.390038 0.216348
C61   C     C_R   0.478793 0.941607 0.920232 0.027270
C62   C     C_R   0.520873 0.042497 0.079361 0.031316
C63   C     C_R   0.521480 0.439493 0.577771 0.029720
C64   C     C_R   0.479198 0.541323 0.418892 0.027846
C65   C     C_R   0.469494 0.042929 0.052850 0.030730
C66   C     C_R   0.529827 0.921667 0.949361 0.029943
C67   C     C_R   0.530151 0.562637 0.448052 0.028176
C68   C     C_R   0.470056 0.439414 0.551461 0.032574
C69   C     C_R   0.448736 0.998768 0.972460 0.071536
C70   C     C_R   0.550767 0.976173 0.028540 0.071453
C71   C     C_R   0.551229 0.507364 0.527060 0.070806
C72   C     C_R   0.449201 0.484183 0.471163 0.072317
C73   C     C_R   0.456845 0.908859 0.839949 -0.216928
C74   C     C_R   0.543397 0.109567 0.155046 -0.217182
C75   C     C_R   0.544168 0.372202 0.653352 -0.212112
C76   C     C_R   0.457278 0.573289 0.338574 -0.219201
C77   C     C_R   0.406782 0.925450 0.811274 -0.021007
C78   C     C_R   0.593475 0.098787 0.183510 -0.002461
C79   C     C_R   0.594282 0.383562 0.681752 -0.017216
C80   C     C_R   0.407235 0.556969 0.309954 -0.010166
O25   O     O_2   0.301888 0.929221 0.767084 -0.483547
O26   O     O_2   0.697256 0.059729 0.233577 -0.511922
O27   O     O_2   0.698738 0.405615 0.728172 -0.486377
O28   O     O_2   0.302502 0.546472 0.264773 -0.509779
C81   C     C_R   0.560913 0.848239 0.902013 -0.132779
C82   C     C_R   0.437860 0.082285 0.104756 -0.120729
C83   C     C_R   0.438474 0.400077 0.603446 -0.123048
C84   C     C_R   0.560976 0.638820 0.400946 -0.136073
H17   H     H_    0.156098 0.365010 0.780628 0.169446
H18   H     H_    0.845737 0.635477 0.226271 0.174577
H19   H     H_    0.844671 0.864489 0.723366 0.171703
H20   H     H_    0.155315 0.134589 0.278044 0.172792
H21   H     H_    0.478212 0.877730 0.796351 0.137121
H22   H     H_    0.522735 0.175324 0.193677 0.123781
H23   H     H_    0.523555 0.307219 0.692205 0.128295
H24   H     H_    0.478670 0.603887 0.294949 0.135648
H25   H     H_    0.548031 0.794593 0.843043 0.140350
H26   H     H_    0.450293 0.102042 0.167732 0.140823
H27   H     H_    0.450993 0.379156 0.666330 0.138068
H28   H     H_    0.547886 0.693503 0.342197 0.142961
C85   C     C_2   0.253464 0.393365 0.818728 0.803325
O29   O     O_2   0.234855 0.520652 0.775948 -0.540121
O30   O     O_R   0.302359 0.405858 0.855980 -0.659832
H29   H     H_    0.318060 0.525370 0.842832 0.308111
C86   C     C_2   0.749111 0.598639 0.192331 0.796691
O31   O     O_2   0.705627 0.585463 0.165092 -0.540444
O32   O     O_R   0.772807 0.457119 0.241093 -0.666197
H30   H     H_    0.750052 0.354407 0.250251 0.342350
C87   C     C_2   0.747275 0.896301 0.687860 0.810455
O33   O     O_2   0.767588 0.031766 0.722684 -0.543756
O34   O     O_R   0.696779 0.897742 0.663700 -0.653541
H31   H     H_    0.681596 0.017385 0.678023 0.321265
C88   C     C_2   0.252071 0.101494 0.314919 0.788951
O35   O     O_2   0.294678 0.085589 0.347709 -0.549734
O36   O     O_R   0.230029 0.961689 0.263477 -0.662178
H32   H     H_    0.253161 0.857283 0.257691 0.338838
C89   C     C_2   0.389314 0.897891 0.724723 0.842169
O37   O     O_2   0.400454 0.756933 0.693038 -0.566880
O38   O     O_R   0.362319 0.036584 0.678814 -0.635085
H33   H     H_    0.353093 0.001909 0.620520 0.317769
C90   C     C_2   0.611841 0.171432 0.264541 0.850711
O39   O     O_2   0.608598 0.337364 0.277765 -0.552317
O40   O     O_R   0.630788 0.049315 0.326271 -0.642036
H34   H     H_    0.641326 0.115199 0.379102 0.307888
C91   C     C_2   0.612587 0.317976 0.764015 0.838429
O41   O     O_2   0.606279 0.156375 0.781314 -0.563180
O42   O     O_R   0.634828 0.442906 0.822440 -0.634993
H35   H     H_    0.644910 0.382317 0.876535 0.313520
C92   C     C_2   0.389770 0.587184 0.223601 0.841132
O43   O     O_2   0.400169 0.730789 0.193051 -0.566472
O44   O     O_R   0.363664 0.448359 0.176572 -0.636531
H36   H     H_    0.354362 0.485139 0.118522 0.314788

loop_
_geom_bond_atom_site_label_1
_geom_bond_atom_site_label_2
_ccdc_geom_bond_type
O17   V3    S    
C47   C51   A    
O40   H34   S    
N1    C17   A    
O1    C5    A    
C87   O33   D    
O19   V1    S    
O13   V1    S    
C27   H20   S    
O3    C7    A    
C11   C12   D    
C14   C46   A    
C44   C48   A    
O4    V2    S    
O15   V3    S    
C62   C70   A    
C88   O35   D    
C61   C69   A    
C68   C83   A    
C91   O41   D    
C42   C54   A    
O7    C3    A    
C41   C53   A    
C32   C60   A    
O2    V4    S    
N3    C39   S    
C18   C54   A    
N2    C38   S    
C14   O22   S    
C52   H16   S    
C25   C57   A    
C25   H18   S    
C31   C35   A    
C67   C84   A    
C27   C59   A    
O1    V3    S    
C15   C47   A    
C63   C71   A    
C90   O39   D    
C21   C37   A    
O3    V1    S    
C34   C38   A    
C19   C55   A    
C73   C77   A    
C22   C26   A    
C1    O15   A    
C77   C89   S    
O36   H32   S    
C2    O16   A    
C92   O44   S    
O2    C6    A    
O30   H29   S    
C33   C37   A    
C63   C68   A    
O14   V2    S    
C86   O32   S    
C43   C55   A    
C79   C91   S    
C22   C85   S    
C31   H7    S    
C30   C58   A    
C16   N4    A    
O11   C7    A    
C44   C71   A    
O12   C8    A    
C31   C59   A    
C90   O40   S    
C50   H14   S    
O10   V2    S    
C49   H13   S    
C13   N1    A    
C88   O36   S    
C50   C82   A    
O5    V1    S    
C53   C78   A    
C91   O42   S    
C82   H26   S    
O7    V3    S    
C55   C80   A    
C63   C75   A    
O8    V4    S    
C51   C83   A    
C12   H4    S    
C42   C69   A    
C24   C87   S    
C52   C84   A    
C41   C70   A    
O38   H33   S    
C64   C72   A    
O18   V4    S    
C36   H12   S    
C7    C9    S    
C46   C50   A    
C21   C86   S    
O11   V3    S    
C24   C40   A    
C8    C10   S    
C68   C72   A    
C32   C36   A    
C74   C78   A    
C11   H3    S    
C32   H8    S    
O5    C1    A    
C23   C88   S    
C73   H21   S    
C54   C77   A    
C42   C46   A    
C75   C79   A    
O34   H31   S    
C1    C60   S    
C41   C45   A    
O8    C4    A    
C13   C45   A    
C43   C72   A    
C9    C10   D    
O9    C5    A    
C36   C40   A    
C66   C70   A    
C21   C25   A    
C44   C56   A    
C62   C65   A    
C28   C60   A    
C84   H28   S    
C61   C66   A    
C14   N2    A    
C65   C69   A    
C3    C58   S    
O6    V2    S    
C92   O43   D    
C67   C71   A    
C65   C82   A    
C26   C58   A    
C17   C53   A    
O10   C6    A    
N1    C37   S    
C4    C57   S    
C81   H25   S    
C74   H22   S    
C4    O14   A    
C56   C79   A    
C23   C39   A    
C22   C38   A    
O16   V4    S    
O9    V1    S    
C18   O25   S    
C35   H11   S    
C3    O13   A    
C10   H2    S    
C23   C27   A    
C48   C52   A    
C61   C73   A    
C16   C48   A    
O6    C2    A    
C87   O34   S    
C34   H10   S    
C64   C76   A    
C5    C11   S    
C33   H9    S    
O12   V4    S    
C6    C12   S    
C83   H27   S    
C76   C80   A    
N4    C40   S    
C24   C28   A    
C30   H6    S    
C85   O30   S    
C29   H5    S    
N2    C18   A    
O42   H35   S    
C85   O29   D    
C62   C74   A    
C35   C39   A    
C15   N3    A    
C30   C34   A    
C2    C59   S    
O4    C8    A    
C29   C33   A    
O20   V2    S    
C29   C57   A    
C66   C81   A    
N3    C19   A    
C26   H17   S    
C9    H1    S    
C20   O27   S    
O44   H36   S    
C43   C47   A    
N4    C20   A    
C89   O37   D    
C20   C56   A    
C51   H15   S    
C89   O38   S    
C19   O28   S    
C80   C92   S    
C75   H23   S    
O32   H30   S    
C78   C90   S    
C13   O21   S    
C76   H24   S    
C17   O26   S    
C86   O31   D    
C15   O23   S    
C64   C67   A    
C45   C49   A    
C16   O24   S    
C49   C81   A    
C28   H19   S    
