data_mof_unit_29378.cif
_audit_creation_date              2012-12-10T17:48:55-0500
_audit_creation_method            fapswitch 2.2
_symmetry_space_group_name_H-M    P1
_symmetry_Int_Tables_number       1
_space_group_crystal_system       triclinic
_cell_length_a                    10.728137
_cell_length_b                    14.723609
_cell_length_c                    14.83089
_cell_angle_alpha                 64.134188
_cell_angle_beta                  104.994184
_cell_angle_gamma                 103.000415
_cell_volume                      2019.17831555

loop_
_atom_site_label
_atom_site_type_symbol
_atom_type_description
_atom_site_fract_x
_atom_site_fract_y
_atom_site_fract_z
_atom_type_partial_charge
C1    C     C_R   0.476456 0.120215 0.312023 0.825316
C2    C     C_R   0.433124 0.363112 0.077718 -0.000500
C3    C     C_R   0.361567 0.324867 0.004203 0.113775
C4    C     C_R   0.259818 0.001158 0.497893 0.747471
C5    C     C_R   0.445911 0.469036 0.052566 -0.039426
C6    C     C_R   0.419086 0.537187 0.949164 0.081083
C7    C     C_R   0.353463 0.496781 0.876072 -0.142169
C8    C     C_R   0.321280 0.392248 0.904269 -0.176669
C9    C     C_R   0.475831 0.507859 0.128347 -0.214408
C10   C     C_R   0.500582 0.611863 0.103968 0.393064
C11   C     C_R   0.504611 0.679858 0.001611 -0.044064
C12   C     C_3   0.878565 0.000107 0.500042 0.057740
C13   C     C_R   0.460192 0.642888 0.923304 0.041370
C14   C     C_R   0.558053 0.782339 0.976607 -0.182990
C15   C     C_R   0.571414 0.847824 0.876854 0.422838
C16   C     C_R   0.520940 0.879986 0.688427 0.822116
C17   C     C_R   0.466362 0.711442 0.822194 -0.269082
C18   C     C_R   0.746389 0.299186 0.641118 -0.238979
C19   C     C_R   0.696930 0.209473 0.627661 0.077300
C20   C     C_R   0.515312 0.284917 0.508265 0.079996
C21   C     C_R   0.559071 0.378462 0.519548 -0.099250
C22   C     C_R   0.679672 0.384912 0.586062 0.116470
C23   C     C_3   0.959688 0.964168 0.611246 -0.136112
C24   C     C_R   0.488825 0.465184 0.467627 0.086219
C25   C     C_R   0.536901 0.553491 0.489083 0.057063
C26   C     C_R   0.665137 0.561172 0.542810 -0.287831
C27   C     C_R   0.734808 0.477528 0.594079 0.421455
C28   C     C_R   0.740085 0.999911 0.500064 0.782644
C29   C     C_R   0.374438 0.468421 0.393578 -0.166452
C30   C     C_R   0.309899 0.554794 0.343948 -0.138567
C31   C     C_R   0.350155 0.637468 0.372260 0.155260
C32   C     C_R   0.458981 0.634934 0.450264 -0.043311
C33   C     C_R   0.281033 0.721699 0.325161 -0.310842
C34   C     C_3   0.936965 0.107775 0.431478 -0.344031
C35   C     C_R   0.317785 0.801449 0.357551 0.053613
C36   C     C_R   0.481201 0.711522 0.489536 0.112078
C37   C     C_3   0.031618 0.926511 0.452297 -0.384370
C38   C     C_3   0.889168 0.925558 0.454213 -0.389919
C39   C     C_3   0.103631 0.965546 0.608859 -0.412254
C40   C     C_3   0.081742 0.108910 0.433759 -0.372331
C41   C     C_3   0.121934 0.000616 0.497929 0.138022
C42   C     C_2   0.951210 0.023935 0.670206 0.839025
C43   C     C_2   0.552408 0.688136 0.595321 0.854989
C44   C     C_R   0.447191 0.189068 0.203892 -0.085073
C45   C     C_R   0.522456 0.812787 0.797566 -0.172767
C46   C     C_R   0.330632 0.219642 0.031856 -0.184093
C47   C     C_R   0.368677 0.152377 0.132115 -0.276352
C48   C     C_R   0.490078 0.293683 0.173762 0.325394
Cu1   Cu    Cu3+1 0.465900 0.918260 0.475680 0.955362
Cu2   Cu    Cu3+1 0.534100 0.081740 0.524320 0.983059
H1    H     H_    0.057868 0.847827 0.496779 0.184759
H2    H     H_    0.475773 0.457591 0.207632 0.206535
H3    H     H_    0.598681 0.811499 0.035053 0.171390
H4    H     H_    0.266572 0.867617 0.318763 0.130193
H5    H     H_    0.225170 0.555503 0.285053 0.136409
H6    H     H_    0.837823 0.301595 0.693002 0.190613
H7    H     H_    0.750104 0.144537 0.667725 0.153845
H8    H     H_    0.427293 0.274595 0.456915 0.114753
H9    H     H_    0.831786 0.947436 0.375284 0.181203
H10   H     H_    0.714365 0.633561 0.542926 0.146764
H11   H     H_    0.335009 0.406661 0.369699 0.116948
H12   H     H_    0.926537 0.166723 0.455751 0.223920
H13   H     H_    0.199442 0.726220 0.263077 0.148096
H14   H     H_    0.848849 0.846602 0.500122 0.210611
H15   H     H_    0.132116 0.887746 0.655463 0.143545
H16   H     H_    0.920083 0.883567 0.653598 0.129900
H17   H     H_    0.141838 0.163159 0.466756 0.196688
H18   H     H_    0.098831 0.136716 0.354552 0.145223
H19   H     H_    0.882826 0.129106 0.351643 0.157358
H20   H     H_    0.994723 0.156777 0.687503 0.323470
H21   H     H_    0.693095 0.962020 0.812715 0.361014
H22   H     H_    0.494650 0.709918 0.156701 0.317413
H23   H     H_    0.170429 0.016413 0.643450 0.197465
H24   H     H_    0.646692 0.384438 0.192040 0.330054
H25   H     H_    0.881618 0.554820 0.650222 0.325348
H26   H     H_    0.709440 0.720066 0.691177 0.320319
H27   H     H_    0.266890 0.364008 0.847080 0.153899
H28   H     H_    0.431495 0.686412 0.761088 0.201877
H29   H     H_    0.273203 0.189573 0.976804 0.155838
H30   H     H_    0.336550 0.071737 0.153454 0.172420
H31   H     H_    0.043388 0.950177 0.372364 0.170554
H32   H     H_    0.319636 0.544202 0.797499 0.161745
N1    N     N_R   0.585360 0.204570 0.560800 -0.181125
N2    N     N_R   0.414550 0.795430 0.439160 -0.214327
O1    O     O_R   0.455060 0.022100 0.338110 -0.606264
O2    O     O_R   0.004177 0.126366 0.640448 -0.772152
O3    O     O_3   0.634423 0.944479 0.861110 -0.714829
O4    O     O_3   0.525551 0.642919 0.182987 -0.726530
O5    O     O_3   0.594452 0.324417 0.235942 -0.731913
O6    O     O_3   0.857873 0.485262 0.651370 -0.741622
O7    O     O_2   0.511908 0.612708 0.664543 -0.628853
O8    O     O_R   0.669695 0.746042 0.615939 -0.777658
O9    O     O_R   0.512640 0.160150 0.379180 -0.527954
O10   O     O_R   0.288900 0.930980 0.479450 -0.597480
O11   O     O_R   0.346480 0.069030 0.520520 -0.595231
O12   O     O_R   0.487360 0.839850 0.620820 -0.565399
O13   O     O_R   0.544940 0.977900 0.661890 -0.564370
O14   O     O_R   0.653520 0.930970 0.479480 -0.544031
O15   O     O_R   0.711100 0.069020 0.520550 -0.581835
O16   O     O_2   0.901132 0.981220 0.746067 -0.639475

loop_
_geom_bond_atom_site_label_1
_geom_bond_atom_site_label_2
_ccdc_geom_bond_type
C7    C8    A    
C39   C41   S    
C19   H7    S    
C12   C23   S    
C10   O4    S    
Cu2   O15   S    
C29   C30   A    
C23   C42   S    
C12   C28   S    
C34   C40   S    
C32   C36   A    
Cu1   N2    S    
C17   C45   A    
H24   O5    S    
C30   C31   A    
C37   H1    S    
C11   C14   A    
C16   O13   A    
C4    C41   S    
C34   H12   S    
C27   O6    S    
C18   C19   A    
C24   C29   A    
H25   O6    S    
Cu1   O14   S    
C46   H29   S    
C40   H17   S    
C31   C33   A    
C42   O2    S    
Cu1   O10   S    
C9    C10   A    
C44   C47   A    
C18   H6    S    
C25   C32   A    
C21   C22   A    
C35   H4    S    
C37   C41   S    
C39   H15   S    
C37   H31   S    
C9    H2    S    
C47   H30   S    
C19   N1    A    
H22   O4    S    
Cu2   N1    S    
C38   H14   S    
C1    O1    A    
C29   H11   S    
C16   O12   A    
Cu1   O1    S    
C24   C25   A    
C3    C8    A    
C2    C48   A    
C25   C26   A    
C43   O7    D    
C5    C9    A    
C37   C38   S    
C42   O16   D    
C4    O11   A    
C1    C44   S    
C31   C32   A    
C33   H13   S    
C14   H3    S    
C26   C27   A    
C34   H19   S    
H26   O8    S    
C4    O10   A    
C28   O15   A    
C40   C41   S    
C22   C27   A    
C8    H27   S    
H21   O3    S    
C21   C24   A    
C2    C5    A    
C15   C45   A    
C20   H8    S    
H20   O2    S    
C23   H16   S    
C15   O3    S    
C28   O14   A    
C46   C47   A    
Cu2   O13   S    
C18   C22   A    
C16   C45   S    
C35   N2    A    
Cu2   O9    S    
C6    C7    A    
C30   H5    S    
C3    C46   A    
C43   O8    S    
C13   C17   A    
C48   O5    S    
C2    C3    A    
C6    C13   A    
C11   C13   A    
C5    C6    A    
C26   H10   S    
C36   N2    A    
C23   C39   S    
C17   H28   S    
C33   C35   A    
C39   H23   S    
Cu1   O12   S    
C12   C38   S    
Cu2   O11   S    
C10   C11   A    
C38   H9    S    
C7    H32   S    
C20   C21   A    
C1    O9    A    
Cu1   Cu2   S    
C40   H18   S    
C20   N1    A    
C14   C15   A    
C36   C43   S    
C12   C34   S    
C44   C48   A    
