data_mof_unit_58127.cif
_audit_creation_date              2012-12-11T15:31:48-0500
_audit_creation_method            fapswitch 2.2
_symmetry_space_group_name_H-M    P1
_symmetry_Int_Tables_number       1
_space_group_crystal_system       triclinic
_cell_length_a                    13.571055
_cell_length_b                    13.582548
_cell_length_c                    27.695821
_cell_angle_alpha                 90.335308
_cell_angle_beta                  90.200727
_cell_angle_gamma                 119.97202
_cell_volume                      4422.24421287

loop_
_atom_site_label
_atom_site_type_symbol
_atom_type_description
_atom_site_fract_x
_atom_site_fract_y
_atom_site_fract_z
_atom_type_partial_charge
C1    C     C_R   0.619495 0.898398 0.431282 0.542693
C2    C     C_R   0.609617 0.234494 0.208338 -0.106459
C3    C     C_R   0.598325 0.217300 0.258229 -0.103954
C4    C     C_R   0.662987 0.307650 0.290291 0.038429
C5    C     C_R   0.685947 0.342123 0.190289 0.040617
C6    C     C_1   0.693243 0.363369 0.139192 -0.038062
C7    C     C_1   0.648467 0.288562 0.341494 -0.053131
C8    C     C_1   0.701181 0.389902 0.097312 0.005061
C9    C     C_1   0.231447 0.862380 0.382859 -0.005794
C10   C     C_R   0.226862 0.940328 0.261110 -0.130802
C11   C     C_R   0.210299 0.930457 0.210973 -0.170664
C12   C     C_R   0.599599 0.218357 0.431243 0.546868
C13   C     C_R   0.096324 0.725625 0.218380 0.386480
C14   C     C_R   0.112434 0.735673 0.268466 -0.080386
C15   C     C_R   0.177723 0.842946 0.289997 -0.023479
C16   C     C_R   0.145402 0.823017 0.189428 0.051053
C17   C     C_1   0.123977 0.811532 0.138077 0.013571
C18   C     C_1   0.202611 0.852469 0.341017 -0.052801
C19   C     C_1   0.096742 0.793887 0.096012 0.020966
C20   C     C_1   0.635023 0.865539 0.383834 -0.004464
C21   C     C_R   0.583940 0.850750 0.258789 -0.109707
C22   C     C_R   0.592738 0.839529 0.209041 -0.129822
C23   C     C_R   0.279601 0.878921 0.430496 0.541344
C24   C     C_R   0.732520 0.780204 0.223356 0.124244
C25   C     C_R   0.723127 0.791968 0.273419 -0.082900
C26   C     C_R   0.649266 0.827402 0.291061 0.018356
C27   C     C_R   0.667068 0.804940 0.191098 0.067709
C28   C     C_1   0.677981 0.796304 0.139633 -0.022319
C29   C     C_1   0.643181 0.845114 0.342064 -0.050175
C30   C     C_1   0.693907 0.786663 0.097481 0.003701
C31   C     C_R   0.637726 0.273571 0.616357 0.023464
C32   C     C_R   0.714367 0.252536 0.642235 -0.124274
C33   C     C_R   0.723882 0.267195 0.691685 -0.123411
C34   C     C_R   0.620226 0.900699 0.569135 0.558712
C35   C     C_R   0.660791 0.307864 0.715833 0.038941
C36   C     C_R   0.592496 0.339465 0.689428 -0.114190
C37   C     C_R   0.580009 0.321200 0.639835 -0.127282
C38   C     C_R   0.570689 0.295500 0.795243 -0.144605
C39   C     C_R   0.581433 0.321179 0.844211 -0.186865
C40   C     C_R   0.781468 0.376145 0.841006 0.371733
C41   C     C_R   0.771019 0.353420 0.792010 -0.082532
C42   C     C_R   0.667008 0.317659 0.768447 -0.024385
C43   C     C_R   0.688281 0.367707 0.866782 0.026853
C44   C     C_R   0.226479 0.864000 0.615731 0.063207
C45   C     C_R   0.601426 0.222259 0.568685 0.542280
C46   C     C_R   0.170956 0.755682 0.637259 0.102750
C47   C     C_R   0.149588 0.747277 0.686746 -0.072986
C48   C     C_R   0.182461 0.845276 0.714546 0.044193
C49   C     C_R   0.228867 0.951309 0.692569 -0.135452
C50   C     C_R   0.250461 0.960669 0.643450 -0.158012
C51   C     C_R   0.208717 0.784338 0.796142 0.137684
C52   C     C_R   0.176056 0.763050 0.844771 0.055148
C53   C     C_R   0.061250 0.853987 0.833458 0.343902
C54   C     C_R   0.093768 0.874121 0.785718 -0.125398
C55   C     C_R   0.163397 0.835927 0.766476 -0.021621
C56   C     C_R   0.279609 0.881328 0.568245 0.566263
C57   C     C_R   0.098143 0.794416 0.863173 0.017548
C58   C     C_R   0.637718 0.862510 0.616193 0.026790
C59   C     C_R   0.546603 0.768594 0.638945 0.374130
C60   C     C_R   0.552816 0.750670 0.687817 -0.077203
C61   C     C_R   0.650522 0.823531 0.714540 -0.024025
C62   C     C_R   0.745024 0.910889 0.691042 -0.143578
C63   C     C_R   0.738481 0.930638 0.642255 -0.189193
C64   C     C_R   0.708254 0.904373 0.797570 -0.096415
C65   C     C_R   0.721481 0.890450 0.846396 -0.083292
C66   C     C_R   0.614552 0.685686 0.835356 -0.116382
C67   C     C_1   0.630327 0.263480 0.383506 -0.007907
C68   C     C_R   0.603386 0.699569 0.786457 -0.116507
C69   C     C_R   0.653249 0.809004 0.766916 0.037532
C70   C     C_R   0.678004 0.781014 0.865149 0.038756
C71   C     C_R   0.049246 0.761060 0.048282 0.534251
C72   C     C_R   0.714298 0.435764 0.049734 0.543063
C73   C     C_R   0.723612 0.770724 0.049560 0.541645
C74   C     C_R   0.043948 0.756001 0.910415 0.562095
C75   C     C_R   0.707785 0.427935 0.912701 0.559176
C76   C     C_R   0.717020 0.765276 0.912043 0.555117
C77   C     C_R   0.740020 0.415035 0.272247 -0.097433
C78   C     C_R   0.751301 0.432147 0.222358 -0.078801
Cr1   Cr    Cr6+3 0.417720 0.831920 0.499820 1.101722
Cr2   Cr    Cr6+3 0.668190 0.085770 0.500360 1.027496
Cr3   Cr    Cr6+3 0.414060 0.082260 0.499840 1.028738
Cr4   Cr    Cr6+3 0.908000 0.821090 0.979770 1.084012
Cr5   Cr    Cr6+3 0.912420 0.571130 0.979880 1.095083
Cr6   Cr    Cr6+3 0.657970 0.566940 0.980940 1.031053
H1    H     H_    0.790416 0.485475 0.296612 0.112131
H2    H     H_    0.542342 0.858818 0.184558 0.115626
H3    H     H_    0.773932 0.774633 0.298516 0.106430
H4    H     H_    0.759772 0.215163 0.625118 0.138207
H5    H     H_    0.488363 0.263174 0.777995 0.123244
H6    H     H_    0.507985 0.311613 0.863584 0.144789
H7    H     H_    0.776409 0.241234 0.711099 0.103870
H8    H     H_    0.846596 0.370804 0.772208 0.129584
H9    H     H_    0.546262 0.375034 0.707237 0.109050
H10   H     H_    0.809836 0.515922 0.208766 0.167831
H11   H     H_    0.521041 0.338566 0.620381 0.135218
H12   H     H_    0.108903 0.664502 0.703632 0.122051
H13   H     H_    0.059526 0.914658 0.762918 0.143353
H14   H     H_    0.252260 0.027245 0.713788 0.115718
H15   H     H_    0.292993 0.044887 0.627953 0.141772
H16   H     H_    0.557959 0.164513 0.183968 0.108543
H17   H     H_    0.744160 0.989654 0.783538 0.112009
H18   H     H_    0.770275 0.964960 0.868968 0.142027
H19   H     H_    0.478862 0.682582 0.705095 0.133463
H20   H     H_    0.561160 0.624559 0.763639 0.104920
H21   H     H_    0.581390 0.600272 0.848917 0.136602
H22   H     H_    0.822952 0.965814 0.710647 0.129923
H23   H     H_    0.810220 0.002623 0.625628 0.140882
H24   H     H_    0.538412 0.133803 0.271823 0.107213
H25   H     H_    0.278963 0.023672 0.277281 0.130533
H26   H     H_    0.248199 0.006315 0.189085 0.122497
H27   H     H_    0.075385 0.659753 0.290329 0.134625
H28   H     H_    0.527039 0.878948 0.272100 0.119637
O1    O     O_R   0.302900 0.805360 0.446400 -0.504180
O2    O     O_R   0.657980 0.180990 0.549630 -0.507000
O3    O     O_R   0.503420 0.197810 0.553190 -0.517093
O4    O     O_R   0.320350 0.978840 0.548910 -0.522784
O5    O     O_3   0.499990 0.999990 0.500010 -0.264756
O6    O     O_R   0.819150 0.845650 0.033320 -0.503831
O7    O     O_R   0.006060 0.815720 0.028680 -0.504486
O8    O     O_R   0.028100 0.664460 0.032550 -0.496654
O9    O     O_R   0.811290 0.477490 0.029660 -0.487531
O10   O     O_R   0.638120 0.455970 0.034270 -0.509177
O11   O     O_R   0.667540 0.672320 0.030160 -0.496748
O12   O     O_R   0.522090 0.841370 0.450730 -0.495918
O13   O     O_R   0.814460 0.840990 0.926980 -0.460168
O14   O     O_R   0.001710 0.811400 0.930110 -0.435814
O15   O     O_R   0.023410 0.659800 0.926210 -0.499091
O16   O     O_R   0.806940 0.473170 0.931090 -0.423458
O17   O     O_R   0.633420 0.451310 0.927930 -0.536859
O18   O     O_R   0.663190 0.668000 0.931580 -0.512924
O19   O     O_3   0.826130 0.653050 0.980200 -0.267393
O20   O     O_R   0.693280 0.995650 0.447220 -0.503944
O21   O     O_R   0.657260 0.178740 0.451050 -0.491513
O22   O     O_R   0.502640 0.195380 0.446850 -0.502841
O23   O     O_R   0.319630 0.976590 0.450330 -0.496057
O24   O     O_R   0.303680 0.807790 0.552740 -0.438673
O25   O     O_R   0.522820 0.843620 0.549310 -0.423720
O26   O     O_R   0.694060 0.998080 0.553560 -0.538130
N1    N     N_3   0.809514 0.745395 0.205014 -0.612261
H29   H     H_    0.760496 0.665672 0.188655 0.227392
H30   H     H_    0.854276 0.734469 0.233322 0.225607
F1    F     F_    0.885703 0.416537 0.861687 -0.625001
N2    N     N_3   0.138721 0.654758 0.609372 -0.586411
H31   H     H_    0.051005 0.600971 0.612956 0.216015
H32   H     H_    0.179339 0.613623 0.624207 0.266939
N3    N     N_3   0.286719 0.752679 0.776439 -0.608012
H33   H     H_    0.252272 0.665169 0.780848 0.249315
H34   H     H_    0.362730 0.794511 0.796203 0.255873
N4    N     N_3   0.222991 0.710020 0.874382 -0.631881
H35   H     H_    0.159258 0.627218 0.882077 0.288934
H36   H     H_    0.253450 0.756358 0.906581 0.232320
F2    F     F_    0.986498 0.885800 0.849198 -0.616494
F3    F     F_    0.448223 0.698068 0.615107 -0.623611
F4    F     F_    0.033548 0.620858 0.198090 -0.647485

loop_
_geom_bond_atom_site_label_1
_geom_bond_atom_site_label_2
_ccdc_geom_bond_type
C57   C74   S    
C48   C55   S    
C66   C68   A    
C21   C26   A    
Cr2   O20   S    
C40   F1    S    
C72   O9    A    
C15   C18   S    
C41   C42   A    
C19   C71   S    
C35   C36   A    
C24   C27   A    
Cr5   O16   S    
C1    O20   A    
C59   F3    S    
Cr3   O22   S    
C66   C70   A    
C77   C78   A    
Cr6   O11   S    
Cr1   O24   S    
C38   H5    S    
C50   H15   S    
C74   O15   A    
C71   O8    A    
C65   H18   S    
C36   C37   A    
N2    H31   S    
C38   C42   A    
C10   C15   A    
N4    H36   S    
C5    C6    S    
Cr6   O10   S    
C65   C70   A    
C32   H4    S    
Cr3   O5    S    
Cr6   O17   S    
C25   H3    S    
C37   H11   S    
C10   H25   S    
C75   O16   A    
C35   C42   S    
C45   O3    A    
Cr4   O14   S    
C77   H1    S    
C17   C19   T    
C49   H14   S    
C54   C55   A    
C76   O18   A    
C45   O2    A    
C40   C43   A    
C31   C32   A    
C16   C17   S    
C73   O11   A    
C53   F2    S    
C47   H12   S    
C54   H13   S    
C60   H19   S    
C39   H6    S    
C2    H16   S    
C59   C60   A    
C12   O22   A    
C21   C22   A    
C11   H26   S    
C76   O13   A    
Cr3   O4    S    
C14   H27   S    
Cr4   O7    S    
C4    C7    S    
C36   H9    S    
C56   O24   A    
C44   C46   A    
Cr3   O23   S    
N3    H34   S    
C20   C29   T    
C24   N1    S    
C43   C75   S    
C64   H17   S    
C12   C67   S    
C8    C72   S    
C51   C52   A    
C38   C39   A    
C24   C25   A    
C52   C57   A    
C30   C73   S    
C53   C57   A    
C9    C23   S    
C6    C8    T    
C51   N3    S    
C58   C59   A    
C53   C54   A    
C34   O26   A    
Cr2   O21   S    
C31   C37   A    
C60   C61   A    
Cr5   O8    S    
Cr4   O13   S    
Cr5   O19   S    
C62   C63   A    
C23   O1    A    
C11   C16   A    
C44   C56   S    
C47   C48   A    
C52   N4    S    
Cr3   O3    S    
C56   O4    A    
C64   C69   A    
Cr5   O9    S    
Cr4   O19   S    
C48   C49   A    
Cr1   O25   S    
Cr2   O2    S    
C22   C27   A    
Cr1   O1    S    
C70   C76   S    
C2    C5    A    
Cr4   O6    S    
C66   H21   S    
C63   H23   S    
C3    C4    A    
C21   H28   S    
N3    H33   S    
C44   C50   A    
C58   C63   A    
N2    H32   S    
C46   C47   A    
C40   C41   A    
C1    C20   S    
C73   O6    A    
C34   O25   A    
C72   O10   A    
C68   C69   A    
C68   H20   S    
Cr5   O15   S    
C39   C43   A    
N1    H29   S    
C46   N2    S    
C62   H22   S    
C23   O23   A    
C3    H24   S    
Cr1   O12   S    
Cr6   O19   S    
C71   O7    A    
C12   O21   A    
C61   C69   S    
C64   C65   A    
C28   C30   T    
C2    C3    A    
C25   C26   A    
C1    O12   A    
C4    C77   A    
N4    H35   S    
C32   C33   A    
N1    H30   S    
C74   O14   A    
C78   H10   S    
Cr2   O26   S    
Cr1   O5    S    
Cr2   O5    S    
Cr6   O18   S    
C33   C35   A    
C51   C55   A    
C22   H2    S    
C61   C62   A    
C13   F4    S    
C10   C11   A    
C7    C67   T    
C9    C18   T    
C41   H8    S    
C26   C29   S    
C49   C50   A    
C31   C45   S    
C13   C16   A    
C27   C28   S    
C34   C58   S    
C14   C15   A    
C5    C78   A    
C13   C14   A    
C75   O17   A    
C33   H7    S    
