data_mof_unit_32912.cif
_audit_creation_date              2012-12-11T15:10:49-0500
_audit_creation_method            fapswitch 2.2
_symmetry_space_group_name_H-M    P1
_symmetry_Int_Tables_number       1
_space_group_crystal_system       triclinic
_cell_length_a                    21.150043
_cell_length_b                    7.239229
_cell_length_c                    18.260398
_cell_angle_alpha                 90.00102
_cell_angle_beta                  93.414498
_cell_angle_gamma                 90.000287
_cell_volume                      2790.88639954

loop_
_atom_site_label
_atom_site_type_symbol
_atom_type_description
_atom_site_fract_x
_atom_site_fract_y
_atom_site_fract_z
_atom_type_partial_charge
O1    O     O_R   0.448880 0.506250 0.415280 -0.527474
O2    O     O_R   0.551120 0.006250 0.584720 -0.527476
O3    O     O_R   0.434830 0.174000 0.557310 -0.521410
O4    O     O_R   0.565170 0.674000 0.442690 -0.521411
C1    C     C_R   0.416990 0.344580 0.579653 0.697770
C2    C     C_R   0.583010 0.844579 0.420346 0.697768
O5    O     O_R   0.441680 0.176440 0.414130 -0.530411
O6    O     O_R   0.558320 0.676440 0.585870 -0.530408
O7    O     O_R   0.558020 0.007570 0.440520 -0.519931
O8    O     O_R   0.441980 0.507570 0.559480 -0.519932
C3    C     C_R   0.428068 0.344784 0.388303 0.700695
C4    C     C_R   0.571933 0.844788 0.611696 0.700696
O9    O     O_3   0.538160 0.339670 0.508820 -0.366095
O10   O     O_3   0.461840 0.839670 0.491180 -0.366096
V1    V     V_3+5 0.492920 0.064260 0.498360 1.440121
V2    V     V_3+5 0.507080 0.564260 0.501640 1.440120
C5    C     C_R   0.875671 0.986756 0.688319 -0.163104
C6    C     C_R   0.124336 0.486841 0.311677 -0.163109
H1    H     H_    0.963552 0.013952 0.752056 0.107286
H2    H     H_    0.036458 0.514076 0.247938 0.107289
H3    H     H_    0.795720 0.987176 0.571098 0.123389
H4    H     H_    0.204285 0.487244 0.428897 0.123389
H5    H     H_    0.897557 0.018285 0.637610 0.114465
H6    H     H_    0.102452 0.518410 0.362384 0.114466
C7    C     C_R   0.887107 0.942882 0.819819 -0.040574
C8    C     C_R   0.112894 0.442899 0.180179 -0.040577
C9    C     C_R   0.582580 0.810915 0.745770 -0.201706
C10   C     C_R   0.417418 0.310873 0.254231 -0.201705
C11   C     C_R   0.617320 0.806320 0.812871 0.459036
C12   C     C_R   0.382679 0.306275 0.187130 0.459035
C13   C     C_R   0.682415 0.839330 0.816659 -0.207154
C14   C     C_R   0.317585 0.339299 0.183340 -0.207153
C15   C     C_R   0.714727 0.878534 0.752830 0.013037
C16   C     C_R   0.285273 0.378518 0.247169 0.013036
C17   C     C_R   0.678387 0.885053 0.684003 0.067962
C18   C     C_R   0.321614 0.385049 0.315996 0.067963
C19   C     C_R   0.781815 0.911081 0.755039 0.100457
C20   C     C_R   0.218186 0.411079 0.244959 0.100457
C21   C     C_R   0.810422 0.951317 0.688363 0.139295
C22   C     C_R   0.189581 0.451360 0.311634 0.139297
C23   C     C_R   0.773896 0.956889 0.621971 -0.201036
C24   C     C_R   0.226108 0.456933 0.378026 -0.201036
C25   C     C_R   0.709083 0.923908 0.619680 -0.165077
C26   C     C_R   0.290919 0.423928 0.380317 -0.165079
C27   C     C_R   0.821797 0.906105 0.820769 -0.204575
C28   C     C_R   0.178202 0.406076 0.179231 -0.204580
C29   C     C_R   0.913451 0.983838 0.753428 -0.166778
C30   C     C_R   0.086555 0.483921 0.246567 -0.166775
C31   C     C_R   0.612015 0.850452 0.681056 -0.148006
C32   C     C_R   0.387985 0.350436 0.318944 -0.148006
H7    H     H_    0.803802 0.876818 0.873504 0.104593
H8    H     H_    0.196194 0.376732 0.126499 0.104597
H9    H     H_    0.532156 0.782971 0.744026 0.150974
H10   H     H_    0.467841 0.282918 0.255976 0.150975
H11   H     H_    0.706232 0.833044 0.870375 0.152263
H12   H     H_    0.293767 0.333019 0.129624 0.152262
H13   H     H_    0.683084 0.929512 0.566820 0.104407
H14   H     H_    0.316918 0.429536 0.433177 0.104410
C33   C     C_1   0.864595 0.938935 0.132182 -0.197212
C34   C     C_1   0.135405 0.438931 0.867818 -0.197211
C35   C     C_1   0.821772 0.924879 0.175979 0.013889
C36   C     C_1   0.178228 0.424876 0.824021 0.013888
C37   C     C_1   0.771234 0.905757 0.228135 0.017096
C38   C     C_1   0.228766 0.405756 0.771865 0.017096
C39   C     C_1   0.728678 0.889122 0.272145 0.017943
C40   C     C_1   0.271322 0.389124 0.727855 0.017943
C41   C     C_1   0.678128 0.869995 0.324282 0.017250
C42   C     C_1   0.321872 0.369999 0.675717 0.017250
C43   C     C_1   0.635281 0.855938 0.368044 -0.190897
C44   C     C_1   0.364720 0.355943 0.631956 -0.190898
O11   O     O_R   0.058070 0.289240 0.940580 -0.520424
O12   O     O_R   0.941930 0.789240 0.059420 -0.520422
O13   O     O_R   0.058330 0.616740 0.085880 -0.531597
O14   O     O_R   0.941670 0.116740 0.914120 -0.531595
C45   C     C_R   0.072016 0.448797 0.111730 0.686484
C46   C     C_R   0.927984 0.948794 0.888269 0.686485
O15   O     O_R   0.065180 0.619040 0.942700 -0.521461
O16   O     O_R   0.934820 0.119040 0.057300 -0.521461
O17   O     O_R   0.948870 0.787780 0.915270 -0.530302
O18   O     O_R   0.051130 0.287780 0.084730 -0.530301
C47   C     C_R   0.083173 0.450322 0.920183 0.705122
C48   C     C_R   0.916827 0.950323 0.079817 0.705121
O19   O     O_3   0.961870 0.453310 0.991210 -0.364923
O20   O     O_3   0.038130 0.953310 0.008790 -0.364924
V3    V     V_3+5 0.007070 0.728770 0.001630 1.430521
V4    V     V_3+5 0.992930 0.228770 0.998370 1.430520
Cl1   Cl    Cl    0.578905 0.756989 0.893202 -0.543909
Cl2   Cl    Cl    0.421092 0.256911 0.106800 -0.543909

loop_
_geom_bond_atom_site_label_1
_geom_bond_atom_site_label_2
_ccdc_geom_bond_type
C2    C43   S    
C40   C42   S    
C37   C39   T    
C9    C11   A    
C23   C25   A    
O1    C3    A    
C46   O17   A    
O2    C4    A    
C2    O7    A    
O12   V3    S    
O3    V1    S    
C21   C23   A    
O5    C3    A    
C5    H5    S    
O14   C46   A    
C6    H6    S    
H1    C29   S    
C27   H7    S    
C28   H8    S    
C34   C36   T    
C5    C21   A    
C35   C37   S    
C6    C22   A    
C36   C38   S    
C10   C32   A    
C26   H14   S    
C39   C41   S    
C17   C31   A    
O18   V4    S    
C33   C48   S    
C12   C14   A    
C17   C25   A    
C45   O18   A    
C7    C29   A    
C8    C30   A    
O16   V4    S    
O5    V1    S    
O15   V3    S    
O6    V2    S    
O13   C45   A    
C24   C26   A    
C4    C31   S    
C33   C35   T    
C11   Cl1   S    
O20   V3    S    
O4    C2    A    
C10   H10   S    
C15   C19   A    
C41   C43   T    
C14   C16   A    
O4    V2    S    
C1    C44   S    
O11   V4    S    
C34   C47   S    
O16   C48   A    
O15   C47   A    
O6    C4    A    
C13   C15   A    
C8    C45   S    
C25   H13   S    
O1    V2    S    
O14   V4    S    
O2    V1    S    
O13   V3    S    
H2    C30   S    
H3    C23   S    
C42   C44   T    
C18   C26   A    
C12   Cl2   S    
C7    C27   A    
O17   V3    S    
C18   C32   A    
C16   C20   A    
C5    C29   A    
O3    C1    A    
C6    C30   A    
C9    H9    S    
C7    C46   S    
C10   C12   A    
O7    V1    S    
C1    O8    A    
C19   C21   A    
C3    C32   S    
O8    V2    S    
C20   C22   A    
H4    C24   S    
C22   C24   A    
C15   C17   A    
C16   C18   A    
C20   C28   A    
C8    C28   A    
O19   V4    S    
C11   C13   A    
O9    V2    S    
O10   V1    S    
C13   H11   S    
C19   C27   A    
C14   H12   S    
O12   C48   A    
C9    C31   A    
C38   C40   T    
O11   C47   A    
