data_mof_unit_31302.cif
_audit_creation_date              2012-10-26T18:49:32-0400
_audit_creation_method            fapswitch 2.2
_symmetry_space_group_name_H-M    P1
_symmetry_Int_Tables_number       1
_space_group_crystal_system       triclinic
_cell_length_a                    19.31481
_cell_length_b                    11.04845
_cell_length_c                    9.885021
_cell_angle_alpha                 111.525057
_cell_angle_beta                  98.899675
_cell_angle_gamma                 90.327957
_cell_volume                      1934.22062716

loop_
_atom_site_label
_atom_site_type_symbol
_atom_type_description
_atom_site_fract_x
_atom_site_fract_y
_atom_site_fract_z
_atom_type_partial_charge
C1    C     C_R   0.495018 0.254025 0.440403 0.539430
C2    C     C_R   0.632238 0.500406 0.499652 0.500651
C3    C     C_R   0.260789 0.607296 0.584985 -0.001054
C4    C     C_R   0.739212 0.392665 0.415093 -0.001061
C5    C     C_R   0.187956 0.603336 0.577551 -0.064307
C6    C     C_R   0.812046 0.396628 0.422530 -0.064301
C7    C     C_R   0.145368 0.490769 0.489200 -0.037685
C8    C     C_R   0.854630 0.509222 0.510807 -0.037697
C9    C     C_R   0.175603 0.377780 0.403513 0.018010
C10   C     C_R   0.824391 0.622235 0.596435 0.018014
C11   C     C_R   0.249326 0.380984 0.406582 0.009878
C12   C     C_R   0.504982 0.745975 0.559597 0.539430
C13   C     C_R   0.750667 0.619032 0.593360 0.009882
C14   C     C_R   0.291672 0.495427 0.499430 -0.050312
C15   C     C_R   0.708325 0.504565 0.500567 -0.050296
C16   C     C_R   0.930588 0.505565 0.507229 0.313367
C17   C     C_R   0.069410 0.494424 0.492775 0.313360
C18   C     C_2   0.303402 0.730914 0.678152 0.265734
C19   C     C_2   0.696605 0.269014 0.322018 0.265696
C20   C     C_2   0.129643 0.258400 0.311345 0.336766
C21   C     C_2   0.870348 0.741631 0.688573 0.336776
C22   C     C_2   0.283180 0.267035 0.311961 0.315956
C23   C     C_2   0.492268 0.114359 0.406863 -0.117661
C24   C     C_2   0.716808 0.733007 0.687927 0.315939
C25   C     C_2   0.586327 0.648808 0.949655 0.389688
C26   C     C_2   0.413675 0.351187 0.050345 0.389685
C27   C     C_2   0.507733 0.885641 0.593136 -0.117676
C28   C     C_2   0.501241 0.069651 0.516281 -0.135904
C29   C     C_2   0.498761 0.930349 0.483719 -0.135909
C30   C     C_2   0.503617 0.512781 0.081655 0.049072
C31   C     C_2   0.496381 0.487221 0.918345 0.049071
C32   C     C_R   0.367761 0.499591 0.500347 0.500648
Cu1   Cu    Cu3+1 0.512140 0.521810 0.644910 0.971530
Cu2   Cu    Cu3+1 0.487860 0.478190 0.355090 0.971508
H1    H     H_    0.163811 0.688784 0.642742 0.200078
H2    H     H_    0.641057 0.258630 0.324597 0.126279
H3    H     H_    0.078685 0.266615 0.252543 0.133928
H4    H     H_    0.921307 0.733438 0.747392 0.133936
H5    H     H_    0.334126 0.241984 0.353830 0.100117
H6    H     H_    0.665861 0.758036 0.646034 0.100116
H7    H     H_    0.592383 0.738022 0.929485 0.137381
H8    H     H_    0.407620 0.261975 0.070519 0.137374
H9    H     H_    0.836195 0.311159 0.357393 0.200102
H10   H     H_    0.489469 0.863921 0.368869 0.164127
H11   H     H_    0.510533 0.136079 0.631131 0.164120
H12   H     H_    0.517080 0.952308 0.707806 0.116765
H13   H     H_    0.482920 0.047692 0.292194 0.116771
H14   H     H_    0.459379 0.410041 0.840831 0.177462
H15   H     H_    0.540618 0.589963 0.159168 0.177459
H16   H     H_    0.358933 0.741354 0.675447 0.126264
N1    N     N_R   0.032945 0.394167 0.504011 -0.193721
N2    N     N_R   0.967052 0.605820 0.495990 -0.193751
N3    N     N_R   0.964678 0.399305 0.510224 -0.189423
N4    N     N_R   0.035320 0.600683 0.489778 -0.189424
N5    N     N_2   0.469620 0.445420 0.137370 -0.272483
N6    N     N_2   0.530380 0.554580 0.862630 -0.272483
O1    O     O_R   0.506480 0.332340 0.577400 -0.499285
O2    O     O_2   0.723287 0.175969 0.241142 -0.457367
O3    O     O_2   0.146961 0.150610 0.305086 -0.413079
O4    O     O_2   0.853028 0.849410 0.694797 -0.413053
O5    O     O_2   0.256171 0.204143 0.184596 -0.422112
O6    O     O_2   0.743816 0.795955 0.815276 -0.422124
O7    O     O_2   0.631387 0.625986 0.036778 -0.497471
O8    O     O_2   0.368614 0.374003 0.963218 -0.497455
O9    O     O_R   0.493520 0.667660 0.422600 -0.499284
O10   O     O_R   0.485980 0.295500 0.332650 -0.526706
O11   O     O_R   0.514020 0.704500 0.667350 -0.526690
O12   O     O_R   0.410390 0.518410 0.622410 -0.503388
O13   O     O_R   0.589610 0.481590 0.377590 -0.503404
O14   O     O_R   0.389900 0.481570 0.377660 -0.484222
O15   O     O_R   0.610100 0.518430 0.622340 -0.484211
O16   O     O_2   0.276745 0.823861 0.759251 -0.457367

loop_
_geom_bond_atom_site_label_1
_geom_bond_atom_site_label_2
_ccdc_geom_bond_type
C7    C17   S    
C24   O6    D    
C2    C15   S    
C3    C18   S    
C1    O1    A    
C31   N6    D    
C27   C29   D    
C2    O13   A    
C30   N5    D    
Cu2   O14   S    
C11   C22   S    
C26   O8    D    
C25   N6    S    
C25   O7    D    
C32   O12   A    
C26   N5    S    
Cu2   O10   S    
Cu1   N6    S    
C6    C8    A    
Cu1   Cu2   S    
Cu2   N5    S    
C10   C21   S    
C23   C28   D    
C16   N3    A    
C22   O5    D    
C20   H3    S    
C9    C11   A    
Cu2   O13   S    
C17   N1    A    
Cu1   O12   S    
C3    C14   A    
C4    C15   A    
C18   H16   S    
C22   H5    S    
C5    H1    S    
C27   H12   S    
C8    C10   A    
C28   C29   S    
C11   C14   A    
C30   H15   S    
N2    N4    A    
C1    C23   S    
C5    C7    A    
C31   H14   S    
C13   C15   A    
C19   O2    D    
C18   O16   D    
C30   C31   S    
C12   O11   A    
C28   H11   S    
C4    C6    A    
C23   H13   S    
Cu1   O15   S    
C12   C27   S    
C2    O15   A    
C7    C9    A    
C14   C32   S    
N1    N3    A    
Cu1   O11   S    
C21   O4    D    
C8    C16   S    
C12   O9    A    
C25   H7    S    
Cu2   O9    S    
C26   H8    S    
C32   O14   A    
C6    H9    S    
Cu1   O1    S    
C9    C20   S    
C24   H6    S    
C19   H2    S    
C29   H10   S    
C4    C19   S    
C17   N4    A    
C21   H4    S    
C16   N2    A    
C13   C24   S    
C20   O3    D    
C3    C5    A    
C10   C13   A    
C1    O10   A    
