data_mof_unit_44885.cif
_audit_creation_date              2012-12-10T16:57:45-0500
_audit_creation_method            fapswitch 2.2
_symmetry_space_group_name_H-M    P1
_symmetry_Int_Tables_number       1
_space_group_crystal_system       triclinic
_cell_length_a                    7.734096
_cell_length_b                    8.570948
_cell_length_c                    19.033101
_cell_angle_alpha                 90.573837
_cell_angle_beta                  86.1726
_cell_angle_gamma                 93.642857
_cell_volume                      1256.29773313

loop_
_atom_site_label
_atom_site_type_symbol
_atom_type_description
_atom_site_fract_x
_atom_site_fract_y
_atom_site_fract_z
_atom_type_partial_charge
C1    C     C_R   0.545925 0.794887 0.498274 0.990812
C2    C     C_R   0.454085 0.205123 0.502078 0.958870
C3    C     C_2   0.570211 0.958303 0.497548 -0.396314
C4    C     C_2   0.429814 0.041707 0.503147 -0.385561
C5    C     C_R   0.502742 0.499881 0.634311 0.997412
C6    C     C_R   0.497673 0.502838 0.365305 0.947584
C7    C     C_R   0.476820 0.665117 0.739586 0.099948
C8    C     C_R   0.599518 0.433812 0.243318 0.155003
C9    C     C_R   0.478717 0.684771 0.812684 0.120120
C10   C     C_R   0.609566 0.463813 0.171433 0.143245
C11   C     C_R   0.523875 0.559952 0.853706 -0.164859
C12   C     C_R   0.514661 0.583382 0.145441 -0.181875
C13   C     C_R   0.569862 0.415832 0.823329 0.406693
C14   C     C_R   0.409638 0.675461 0.190504 0.371504
C15   C     C_R   0.559625 0.394641 0.750249 0.031694
C16   C     C_R   0.397114 0.642237 0.263260 0.040706
C17   C     C_R   0.513126 0.519468 0.709485 -0.199302
C18   C     C_R   0.495067 0.523773 0.289338 -0.236354
C19   C     C_R   0.507672 0.594088 0.070093 0.376779
C20   C     C_R   0.514615 0.578800 0.929304 0.437252
H1    H     H_    0.702778 0.009458 0.492349 0.176224
H2    H     H_    0.297244 0.990562 0.508319 0.178471
H3    H     H_    0.013923 0.382850 0.447457 0.190326
H4    H     H_    0.986095 0.617218 0.552518 0.190286
N1    N     N_R   0.384351 0.502432 0.968614 -0.118793
N2    N     N_R   0.636647 0.672901 0.030823 -0.125892
N3    N     N_R   0.381029 0.509919 0.038233 -0.160584
N4    N     N_R   0.639463 0.666128 0.961034 -0.123838
N5    N     N_2   0.950330 0.457950 0.481240 -0.182608
N6    N     N_2   0.049670 0.542050 0.518760 -0.177901
O1    O     O_R   0.389250 0.738570 0.504600 -0.605036
O2    O     O_R   0.610750 0.261430 0.495400 -0.624215
O3    O     O_R   0.678400 0.711620 0.492580 -0.637533
O4    O     O_R   0.321600 0.288380 0.507420 -0.629714
O5    O     O_R   0.355380 0.513500 0.607880 -0.610371
O6    O     O_R   0.644620 0.486500 0.392120 -0.630697
O7    O     O_R   0.644530 0.486550 0.595850 -0.629758
O8    O     O_R   0.355470 0.513450 0.404150 -0.601973
Zn1   Zn    Zn3+2 0.306930 0.517990 0.508030 0.941497
Zn2   Zn    Zn3+2 0.693070 0.482010 0.491970 0.918257
N7    N     N_2   0.443285 0.791055 0.695040 -0.308463
H5    H     H_    0.523999 0.890106 0.700389 0.217598
C21   C     C_3   0.262525 0.822398 0.691132 -0.716281
H6    H     H_    0.213796 0.882756 0.739529 0.235142
H7    H     H_    0.181574 0.712406 0.683901 0.256179
H8    H     H_    0.249354 0.899462 0.645529 0.231473
N8    N     N_2   0.696108 0.311754 0.268221 -0.271630
H9    H     H_    0.804894 0.347027 0.294125 0.246507
C22   C     C_3   0.597627 0.174322 0.296465 -0.742754
H10   H     H_    0.657741 0.068070 0.275139 0.255335
H11   H     H_    0.460508 0.169957 0.281923 0.257009
H12   H     H_    0.599589 0.173306 0.354660 0.231322
N9    N     N_2   0.433849 0.828379 0.845740 -0.286827
H13   H     H_    0.465645 0.928895 0.817454 0.266754
C23   C     C_3   0.266713 0.826781 0.885336 -0.642317
H14   H     H_    0.187289 0.918175 0.865370 0.248536
H15   H     H_    0.287236 0.852367 0.941540 0.273905
H16   H     H_    0.192423 0.711845 0.881584 0.236125
N10   N     N_2   0.718049 0.373207 0.125559 -0.294299
H17   H     H_    0.784445 0.434607 0.084834 0.260712
C24   C     C_3   0.638018 0.225563 0.102970 -0.511132
H18   H     H_    0.735250 0.160024 0.071204 0.255328
H19   H     H_    0.528207 0.245265 0.070167 0.252638
H20   H     H_    0.589727 0.153047 0.148933 0.269099
S1    S     S_3+6 0.639655 0.265498 0.877566 0.001038
O9    O     O_2   0.741484 0.148576 0.835936 -0.320542
O10   O     O_2   0.752285 0.336694 0.932365 -0.310816
O11   O     O_3   0.463107 0.172969 0.918166 -0.554862
H21   H     H_    0.509316 0.097873 0.950253 0.397471
S2    S     S_3+6 0.288926 0.824204 0.154427 0.003065
O12   O     O_2   0.255961 0.954611 0.205861 -0.307423
O13   O     O_2   0.384531 0.894739 0.089827 -0.333013
O14   O     O_3   0.096223 0.742866 0.132222 -0.538702
H22   H     H_    0.118121 0.699233 0.084322 0.372324
N11   N     N_2   0.578784 0.245467 0.717863 -0.303307
H23   H     H_    0.519857 0.150912 0.744858 0.249941
C25   C     C_3   0.744270 0.219462 0.680539 -0.650628
H24   H     H_    0.805728 0.121043 0.704416 0.242447
H25   H     H_    0.835527 0.325067 0.681287 0.247178
H26   H     H_    0.722393 0.187319 0.625117 0.234015
N12   N     N_2   0.292910 0.729948 0.311783 -0.280009
H27   H     H_    0.324447 0.848265 0.314129 0.254484
C26   C     C_3   0.109175 0.683605 0.317706 -0.581228
H28   H     H_    0.045032 0.721078 0.270921 0.279098
H29   H     H_    0.047723 0.739308 0.365163 0.212051
H30   H     H_    0.088265 0.554714 0.323234 0.217959

loop_
_geom_bond_atom_site_label_1
_geom_bond_atom_site_label_2
_ccdc_geom_bond_type
C15   N11   S    
C23   H14   S    
C5    O7    A    
C14   S2    S    
N7    H5    S    
C2    C4    S    
C21   H6    S    
N12   H27   S    
C1    O3    A    
N8    C22   S    
C13   S1    S    
C25   H24   S    
H3    N5    S    
O7    Zn2   S    
O8    Zn1   S    
C5    C17   S    
C20   N1    A    
C1    O1    A    
C4    H2    S    
C12   C19   S    
C2    O2    A    
O14   H22   S    
C24   H19   S    
C19   N2    A    
N8    H9    S    
C6    O6    A    
O11   H21   S    
C22   H11   S    
C6    O8    A    
S2    O12   D    
C19   N3    A    
C9    C11   A    
C22   H12   S    
C25   H25   S    
N10   H17   S    
N7    C21   S    
N12   C26   S    
N9    C23   S    
C6    C18   S    
C11   C20   S    
N10   C24   S    
O3    Zn2   S    
O4    Zn1   S    
O6    Zn2   S    
C20   N4    A    
S1    O10   D    
N9    H13   S    
C8    C18   A    
C1    C3    S    
C24   H20   S    
O5    Zn1   S    
N11   H23   S    
N5    N6    D    
C21   H7    S    
C26   H28   S    
S1    O11   S    
S2    O14   S    
N11   C25   S    
C10   C12   A    
C8    C10   A    
C26   H29   S    
C12   C14   A    
S1    O9    D    
C13   C15   A    
C14   C16   A    
C3    H1    S    
C9    N9    S    
C3    C4    D    
O2    Zn2   S    
C25   H26   S    
C15   C17   A    
C7    C17   A    
N1    N3    A    
N2    N4    A    
C23   H15   S    
C10   N10   S    
C8    N8    S    
C11   C13   A    
C2    O4    A    
C5    O5    A    
N5    Zn2   S    
C16   N12   S    
O1    Zn1   S    
N6    Zn1   S    
C7    N7    S    
C24   H18   S    
C21   H8    S    
H4    N6    S    
C7    C9    A    
C26   H30   S    
C16   C18   A    
C22   H10   S    
C23   H16   S    
S2    O13   D    
