data_mof_unit_16101.cif
_audit_creation_date              2012-12-11T15:15:37-0500
_audit_creation_method            fapswitch 2.2
_symmetry_space_group_name_H-M    P1
_symmetry_Int_Tables_number       1
_space_group_crystal_system       triclinic
_cell_length_a                    20.615683
_cell_length_b                    22.688217
_cell_length_c                    6.942093
_cell_angle_alpha                 90.029519
_cell_angle_beta                  86.517835
_cell_angle_gamma                 89.979354
_cell_volume                      3241.05107758

loop_
_atom_site_label
_atom_site_type_symbol
_atom_type_description
_atom_site_fract_x
_atom_site_fract_y
_atom_site_fract_z
_atom_type_partial_charge
O1    O     O_R   0.387100 0.552640 0.378490 -0.541806
O2    O     O_R   0.612900 0.052640 0.621510 -0.533547
O3    O     O_R   0.249610 0.559600 0.072250 -0.537564
O4    O     O_R   0.750390 0.059600 0.927750 -0.535283
O5    O     O_R   0.249120 0.447360 0.902040 -0.542915
O6    O     O_R   0.750880 0.947360 0.097960 -0.548580
C1    C     C_R   0.226490 0.572828 0.245104 0.754066
C2    C     C_R   0.772256 0.074054 0.754974 0.737963
O7    O     O_R   0.386610 0.559560 0.048860 -0.541902
O8    O     O_R   0.613390 0.059560 0.951140 -0.536026
O9    O     O_R   0.387100 0.447320 0.878470 -0.541027
O10   O     O_R   0.612900 0.947320 0.121530 -0.540209
C3    C     C_R   0.407799 0.574922 0.213955 0.713728
C4    C     C_R   0.592174 0.074906 0.786176 0.732394
O11   O     O_R   0.249120 0.552680 0.402050 -0.520431
O12   O     O_R   0.750880 0.052680 0.597950 -0.521043
O13   O     O_3   0.318110 0.463180 0.223790 -0.376335
O14   O     O_3   0.681890 0.963180 0.776210 -0.379967
V1    V     V_3+5 0.318110 0.506830 0.948930 1.497104
V2    V     V_3+5 0.681890 0.006830 0.051070 1.517821
O15   O     O_R   0.386610 0.440400 0.548840 -0.537210
O16   O     O_R   0.613390 0.940400 0.451160 -0.536364
C5    C     C_R   0.408088 0.425265 0.713432 0.726746
C6    C     C_R   0.591971 0.925225 0.286452 0.733050
O17   O     O_R   0.249610 0.440440 0.572240 -0.538817
O18   O     O_R   0.750390 0.940440 0.427760 -0.549783
C7    C     C_R   0.226864 0.426759 0.745035 0.759500
C8    C     C_R   0.772730 0.926233 0.254824 0.691230
V3    V     V_3+5 0.318110 0.493170 0.448930 1.508709
V4    V     V_3+5 0.681890 0.993170 0.551070 1.509316
O19   O     O_3   0.318110 0.536820 0.723940 -0.367779
O20   O     O_3   0.681890 0.036820 0.276060 -0.345796
C9    C     C_R   0.171558 0.385479 0.765304 -0.043958
C10   C     C_R   0.825224 0.881863 0.233978 -0.046710
C11   C     C_R   0.131950 0.375641 0.610788 -0.066549
C12   C     C_R   0.841246 0.847024 0.391555 -0.108333
C13   C     C_R   0.077308 0.339398 0.634547 -0.131595
C14   C     C_R   0.889527 0.803924 0.368980 -0.122582
C15   C     C_R   0.061722 0.311617 0.812580 0.035143
C16   C     C_R   0.923285 0.795265 0.188890 0.004860
C17   C     C_R   0.102237 0.320546 0.965407 -0.017002
C18   C     C_R   0.907708 0.830571 0.032284 -0.059334
C19   C     C_R   0.156287 0.357352 0.942529 -0.139702
C20   C     C_R   0.859057 0.873179 0.054205 -0.162152
C21   C     C_R   0.928281 0.151095 0.855690 -0.007453
C22   C     C_R   0.121610 0.703959 0.143210 -0.012320
C23   C     C_R   0.875536 0.112602 0.868880 -0.195118
C24   C     C_R   0.171631 0.662489 0.130568 -0.204577
C25   C     C_R   0.830958 0.160081 0.592100 0.345032
C26   C     C_R   0.122457 0.611464 0.410778 0.361152
C27   C     C_R   0.883327 0.199346 0.582973 -0.057404
C28   C     C_R   0.072156 0.652915 0.420731 -0.038171
C29   C     C_R   0.931739 0.195419 0.715187 0.124605
C30   C     C_R   0.071078 0.698723 0.286256 0.113547
C31   C     C_2   0.003042 0.273864 0.841213 0.441103
C32   C     C_2   0.974497 0.749389 0.162570 0.380464
C33   C     C_2   0.987192 0.236472 0.699689 -0.300508
C34   C     C_2   0.017514 0.741792 0.299971 -0.261273
C35   C     C_R   0.826506 0.116373 0.737434 -0.132054
C36   C     C_R   0.172831 0.615903 0.263679 -0.138803
H1    H     H_    0.142160 0.397172 0.473035 0.140999
H2    H     H_    0.815787 0.852347 0.531606 0.136961
H3    H     H_    0.873712 0.078937 0.979736 0.143195
H4    H     H_    0.209998 0.667276 0.017934 0.147296
H5    H     H_    0.016251 0.235746 0.563991 0.161462
H6    H     H_    0.013102 0.768021 0.430953 0.157603
H7    H     H_    0.092181 0.299048 0.103202 0.157661
H8    H     H_    0.933437 0.825507 0.892572 0.160327
H9    H     H_    0.966526 0.146134 0.954558 0.168286
H10   H     H_    0.122318 0.740154 0.041556 0.164124
H11   H     H_    0.186128 0.363768 0.063980 0.128896
H12   H     H_    0.848198 0.899511 0.930088 0.118118
H13   H     H_    0.046551 0.334154 0.514736 0.141234
H14   H     H_    0.899721 0.776776 0.491788 0.175941
H15   H     H_    0.885650 0.233676 0.474544 0.214541
H16   H     H_    0.032973 0.648598 0.530992 0.228698
C37   C     C_R   0.574924 0.360122 0.615606 0.404071
C38   C     C_R   0.424847 0.860465 0.380327 0.402344
H17   H     H_    0.531599 0.445724 0.592924 0.156951
H18   H     H_    0.468147 0.946070 0.402664 0.165716
H19   H     H_    0.665964 0.274600 0.613446 0.217181
H20   H     H_    0.333800 0.775045 0.382095 0.183281
C39   C     C_R   0.462197 0.382233 0.707324 -0.135099
C40   C     C_R   0.537869 0.882223 0.292151 -0.141862
C41   C     C_R   0.475185 0.095418 0.830235 -0.302775
C42   C     C_R   0.524902 0.595172 0.173405 -0.324100
C43   C     C_R   0.420365 0.130564 0.812778 0.468244
C44   C     C_R   0.579697 0.630164 0.193235 0.420496
C45   C     C_R   0.427347 0.190170 0.756584 0.277269
C46   C     C_R   0.572590 0.689950 0.247622 0.286342
C47   C     C_R   0.490296 0.216833 0.743137 -0.044251
C48   C     C_R   0.509679 0.716769 0.258167 -0.043354
C49   C     C_R   0.545577 0.178430 0.744878 0.012018
C50   C     C_R   0.454368 0.678457 0.255187 0.030655
C51   C     C_R   0.500989 0.279330 0.717960 0.082184
C52   C     C_R   0.499002 0.779341 0.281984 0.078954
C53   C     C_R   0.564594 0.299850 0.660518 0.006978
C54   C     C_R   0.435266 0.800072 0.337048 0.031429
C55   C     C_R   0.616882 0.260175 0.652107 -0.071147
C56   C     C_R   0.382940 0.760475 0.344888 -0.125465
C57   C     C_R   0.607873 0.201257 0.700127 -0.117492
C58   C     C_R   0.391993 0.701433 0.298309 -0.160776
C59   C     C_R   0.451783 0.322654 0.756024 -0.145790
C60   C     C_R   0.548372 0.822532 0.244791 -0.148740
C61   C     C_R   0.523463 0.400069 0.633579 -0.189944
C62   C     C_R   0.476387 0.900305 0.363350 -0.175594
C63   C     C_R   0.537412 0.117504 0.787550 -0.154890
C64   C     C_R   0.462580 0.617470 0.213205 -0.134495
H21   H     H_    0.405503 0.311471 0.827034 0.175531
H22   H     H_    0.594838 0.811173 0.175230 0.178349
H23   H     H_    0.469368 0.049230 0.866963 0.186845
H24   H     H_    0.530690 0.548939 0.137304 0.159400
H25   H     H_    0.650423 0.173243 0.698025 0.144169
H26   H     H_    0.349383 0.673475 0.300492 0.097219
Cl1   Cl    Cl    0.651422 0.387940 0.531791 -0.517431
Cl2   Cl    Cl    0.348100 0.888614 0.460561 -0.572006
Cl3   Cl    Cl    0.359191 0.224241 0.658933 -0.537988
Cl4   Cl    Cl    0.640459 0.724265 0.346110 -0.530903
S1    S     S_3+6 0.342978 0.097387 0.851972 0.126231
O21   O     O_2   0.298905 0.137659 0.971873 -0.264160
O22   O     O_2   0.314642 0.086987 0.660421 -0.253942
O23   O     O_3   0.349344 0.032600 0.967141 -0.482393
H27   H     H_    0.304534 0.016705 0.979015 0.396271
S2    S     S_3+6 0.657225 0.596758 0.158948 0.172229
O24   O     O_2   0.701179 0.635632 0.033868 -0.228354
O25   O     O_2   0.686093 0.589296 0.351202 -0.240509
O26   O     O_3   0.651919 0.530483 0.051943 -0.447260
H28   H     H_    0.641062 0.502416 0.158335 0.367071
Cl5   Cl    Cl    0.771130 0.169145 0.423680 -0.606390
Cl6   Cl    Cl    0.118023 0.553236 0.579161 -0.578463
S3    S     S_3+6 0.955589 0.279809 0.063042 0.006105
O27   O     O_2   0.884541 0.272068 0.032190 -0.275387
O28   O     O_2   0.977220 0.232869 0.197523 -0.393462
O29   O     O_3   0.967059 0.346349 0.162344 -0.478484
H29   H     H_    0.944888 0.344034 0.292765 0.377143
S4    S     S_3+6 0.976900 0.705762 0.949193 0.022064
O30   O     O_2   0.026030 0.731843 0.805075 -0.365625
O31   O     O_2   0.995843 0.643251 0.990611 -0.271011
O32   O     O_3   0.903835 0.705880 0.853780 -0.473532
H30   H     H_    0.873629 0.688966 0.955547 0.385443

loop_
_geom_bond_atom_site_label_1
_geom_bond_atom_site_label_2
_ccdc_geom_bond_type
V4    O20   S    
O6    C8    A    
C57   H25   S    
O4    C2    A    
S3    O29   S    
V1    O19   S    
C17   H7    S    
C7    C9    S    
O9    V1    S    
C39   C59   A    
C46   Cl4   S    
C11   C13   A    
C27   H15   S    
O3    C1    A    
C3    C64   S    
C2    C35   S    
C23   H3    S    
C9    C11   A    
C42   C44   A    
C24   H4    S    
O12   V4    S    
H18   C62   S    
C48   C52   A    
O13   V3    S    
H17   C61   S    
O7    V1    S    
C21   C23   A    
O7    C3    A    
C26   Cl6   S    
C32   S4    S    
O5    C7    A    
C46   C48   A    
C34   H6    S    
C15   C31   S    
C51   C59   A    
C16   C32   S    
C52   C54   A    
C38   C54   A    
C26   C28   A    
O3    V1    S    
O14   V4    S    
O8    V2    S    
C45   C47   A    
C10   C12   A    
C44   S2    S    
C24   C36   A    
C16   C18   A    
C8    C10   S    
C2    O12   A    
C18   H8    S    
C17   C19   A    
O10   V2    S    
C18   C20   A    
S4    O32   S    
C12   H2    S    
C48   C50   A    
C53   C55   A    
C28   C30   A    
O11   V3    S    
C41   C43   A    
O15   C5    A    
O17   V3    S    
C22   C24   A    
C23   C35   A    
C21   H9    S    
C9    C19   A    
C10   C20   A    
S4    O31   D    
O8    C4    A    
C49   C57   A    
C29   C33   S    
C1    O11   A    
H19   C55   S    
C14   H14   S    
C25   C27   A    
C25   Cl5   S    
C39   C61   A    
C27   C29   A    
C42   H24   S    
C43   S1    S    
C58   H26   S    
C47   C49   A    
C40   C62   A    
S1    O21   D    
C50   C64   A    
C22   C30   A    
C56   C58   A    
C11   H1    S    
C37   C53   A    
C50   C58   A    
S1    O22   D    
C5    C39   S    
S2    O26   S    
C4    C63   S    
C55   C57   A    
C44   C46   A    
O18   V4    S    
C31   S3    S    
C31   C33   D    
C28   H16   S    
C40   C60   A    
O16   C6    A    
O1    C3    A    
O2    V4    S    
S3    O27   D    
C1    C36   S    
C60   H22   S    
S2    O25   D    
V2    O20   S    
S1    O23   S    
C13   H13   S    
C19   H11   S    
O16   V4    S    
H20   C56   S    
C38   Cl2   S    
C45   Cl3   S    
S4    O30   D    
S3    O28   D    
O32   H30   S    
C51   C53   A    
O29   H29   S    
O5    V1    S    
O17   C7    A    
O6    V2    S    
O10   C6    A    
O18   C8    A    
C37   C61   A    
C25   C35   A    
C38   C62   A    
C59   H21   S    
C26   C36   A    
C52   C60   A    
C6    C40   S    
C13   C15   A    
C41   C63   A    
C49   C63   A    
C12   C14   A    
C14   C16   A    
O1    V3    S    
O15   V3    S    
O9    C5    A    
O13   V1    S    
C32   C34   D    
C20   H12   S    
O14   V2    S    
O2    C4    A    
C54   C56   A    
C22   H10   S    
C21   C29   A    
O4    V2    S    
C41   H23   S    
C30   C34   S    
C15   C17   A    
C47   C51   A    
V3    O19   S    
O23   H27   S    
C43   C45   A    
C42   C64   A    
C37   Cl1   S    
O26   H28   S    
S2    O24   D    
C33   H5    S    
