data_mof_unit_39603.cif
_audit_creation_date              2012-10-26T19:19:38-0400
_audit_creation_method            fapswitch 2.2
_symmetry_space_group_name_H-M    P1
_symmetry_Int_Tables_number       1
_space_group_crystal_system       triclinic
_cell_length_a                    15.897598
_cell_length_b                    10.923203
_cell_length_c                    9.928149
_cell_angle_alpha                 91.252035
_cell_angle_beta                  89.585629
_cell_angle_gamma                 91.990168
_cell_volume                      1722.56231923

loop_
_atom_site_label
_atom_site_type_symbol
_atom_type_description
_atom_site_fract_x
_atom_site_fract_y
_atom_site_fract_z
_atom_type_partial_charge
C1    C     C_R   0.499405 0.266081 0.498091 0.534852
C2    C     C_2   0.528968 0.864240 0.504740 -0.002514
C3    C     C_2   0.523652 0.063403 0.392719 -0.016357
C4    C     C_R   0.340490 0.499044 0.500654 0.534869
C5    C     C_2   0.491854 0.133593 0.492974 -0.132361
C6    C     C_2   0.456430 0.420042 0.922657 0.150256
C7    C     C_2   0.447887 0.431207 0.077356 0.112874
C8    C     C_R   0.506129 0.733750 0.501404 0.561522
C9    C     C_R   0.658893 0.498310 0.499101 0.535850
C10   C     C_3   0.042179 0.455840 0.638817 -0.230226
C11   C     C_3   0.053320 0.374731 0.385203 0.306586
C12   C     C_3   0.942475 0.447600 0.639077 0.263139
C13   C     C_3   0.949639 0.370164 0.376261 0.281941
C14   C     C_1   0.747554 0.487967 0.495177 -0.046132
C15   C     C_3   0.081008 0.478379 0.494143 0.053631
C16   C     C_3   0.908301 0.321433 0.692115 -0.212966
C17   C     C_3   0.924885 0.299083 0.840332 -0.437622
C18   C     C_3   0.942822 0.632638 0.786973 -0.022233
C19   C     C_3   0.880182 0.726395 0.835964 -0.389809
C20   C     C_3   0.588181 0.911975 0.615838 -0.277608
C21   C     C_3   0.676906 0.866112 0.592353 -0.440855
C22   C     C_3   0.572959 0.115165 0.273327 -0.238346
C23   C     C_3   0.914134 0.466590 0.488837 0.077812
C24   C     C_3   0.618116 0.018772 0.188269 -0.459635
C25   C     C_3   0.407871 0.312345 0.856018 -0.212624
C26   C     C_3   0.453855 0.192480 0.870063 -0.437831
C27   C     C_3   0.510470 0.625573 0.897678 -0.113384
C28   C     C_3   0.603273 0.666778 0.896636 -0.398658
C29   C     C_3   0.373111 0.365396 0.142558 -0.217271
C30   C     C_3   0.296022 0.443755 0.134991 -0.415461
C31   C     C_3   0.085055 0.342899 0.145886 0.019688
C32   C     C_3   0.089943 0.422788 0.022610 -0.372827
C33   C     C_3   0.101498 0.249701 0.406055 -0.265223
C34   C     C_3   0.949183 0.597609 0.450404 -0.192459
C35   C     C_3   0.116776 0.197458 0.545212 -0.485559
C36   C     C_3   0.916600 0.229855 0.377584 -0.270576
C37   C     C_3   0.823673 0.192280 0.403700 -0.465572
C38   C     C_3   0.851112 0.398926 0.191453 -0.021316
C39   C     C_3   0.826867 0.510371 0.113572 -0.392172
C40   C     C_3   0.091111 0.720656 0.505683 -0.308382
C41   C     C_3   0.048582 0.839345 0.470745 -0.470619
C42   C     C_3   0.046988 0.603300 0.443290 -0.084794
C43   C     C_1   0.822209 0.476557 0.489290 -0.026607
C44   C     C_1   0.174273 0.487449 0.501284 -0.047813
C45   C     C_1   0.250185 0.493742 0.502189 -0.057987
C46   C     C_2   0.505808 0.931543 0.400219 -0.123506
Cu1   Cu    Cu3+1 0.500020 0.500020 0.638630 0.893546
Cu2   Cu    Cu3+1 0.499980 0.499980 0.361370 0.883495
H1    H     H_    0.068829 0.526563 0.708716 0.096518
H2    H     H_    0.908146 0.379244 0.903084 0.191548
H3    H     H_    0.885499 0.219265 0.873753 0.112453
H4    H     H_    0.838899 0.315616 0.681212 0.159850
H5    H     H_    0.933939 0.243951 0.637707 0.102310
H6    H     H_    0.985739 0.681643 0.718817 0.132337
H7    H     H_    0.977707 0.599799 0.874093 0.118650
H8    H     H_    0.912962 0.798837 0.898116 0.088288
H9    H     H_    0.851047 0.769509 0.748208 0.139643
H10   H     H_    0.829375 0.682197 0.896860 0.158666
H11   H     H_    0.676534 0.764564 0.586078 0.158620
H12   H     H_    0.924095 0.624673 0.351479 0.140063
H13   H     H_    0.703427 0.903195 0.497169 0.144991
H14   H     H_    0.718138 0.897648 0.676928 0.121777
H15   H     H_    0.593869 0.012975 0.623520 0.146981
H16   H     H_    0.564069 0.881026 0.715140 0.139155
H17   H     H_    0.661085 0.967144 0.252035 0.157284
H18   H     H_    0.571891 0.954211 0.138710 0.145325
H19   H     H_    0.656052 0.064797 0.108481 0.124120
H20   H     H_    0.529541 0.163020 0.206735 0.160215
H21   H     H_    0.621842 0.182284 0.311306 0.158828
H22   H     H_    0.459457 0.168474 0.977500 0.123589
H23   H     H_    0.470453 0.889366 0.317074 0.128980
H24   H     H_    0.418186 0.116958 0.817057 0.117581
H25   H     H_    0.518249 0.200268 0.826508 0.175429
H26   H     H_    0.343113 0.301455 0.895676 0.084472
H27   H     H_    0.390866 0.328367 0.751973 0.205299
H28   H     H_    0.642205 0.600859 0.949558 0.128265
H29   H     H_    0.626901 0.674101 0.792028 0.191698
H30   H     H_    0.610959 0.758189 0.947074 0.093559
H31   H     H_    0.473737 0.687212 0.836970 0.165125
H32   H     H_    0.481003 0.646717 0.995795 0.101095
H33   H     H_    0.312070 0.541859 0.157462 0.178588
H34   H     H_    0.458438 0.090624 0.576437 0.081309
H35   H     H_    0.269245 0.436288 0.032371 0.117713
H36   H     H_    0.249110 0.412175 0.210316 0.173431
H37   H     H_    0.358908 0.273079 0.099606 0.081685
H38   H     H_    0.385611 0.338514 0.245284 0.209865
H39   H     H_    0.027789 0.282355 0.139736 0.149028
H40   H     H_    0.140450 0.283876 0.143665 0.095640
H41   H     H_    0.134291 0.502255 0.038883 0.155459
H42   H     H_    0.111209 0.369347 0.933170 0.075529
H43   H     H_    0.027361 0.459553 0.005351 0.158663
H44   H     H_    0.161243 0.257050 0.604598 0.144756
H45   H     H_    0.066223 0.373641 0.683720 0.100893
H46   H     H_    0.058260 0.176871 0.601450 0.134387
H47   H     H_    0.149195 0.109815 0.531542 0.128567
H48   H     H_    0.074955 0.174818 0.340300 0.100070
H49   H     H_    0.166549 0.264256 0.366114 0.154899
H50   H     H_    0.792905 0.248130 0.481587 0.143270
H51   H     H_    0.786366 0.190241 0.309763 0.127083
H52   H     H_    0.820244 0.096527 0.439502 0.129411
H53   H     H_    0.932480 0.187674 0.278353 0.127985
H54   H     H_    0.952463 0.175651 0.447255 0.113183
H55   H     H_    0.800341 0.382721 0.264808 0.150389
H56   H     H_    0.556392 0.521890 0.110954 0.212182
H57   H     H_    0.853415 0.318441 0.121513 0.125749
H58   H     H_    0.772584 0.486481 0.047117 0.110609
H59   H     H_    0.809093 0.585330 0.184440 0.133995
H60   H     H_    0.880906 0.543292 0.051836 0.165520
H61   H     H_    0.032409 0.839831 0.362108 0.143351
H62   H     H_    0.991101 0.852154 0.532717 0.138765
H63   H     H_    0.092453 0.917978 0.492607 0.139815
H64   H     H_    0.099941 0.715804 0.615620 0.137239
H65   H     H_    0.156029 0.727900 0.463312 0.152089
H66   H     H_    0.062512 0.613760 0.334826 0.207038
H67   H     H_    0.924685 0.667681 0.520917 0.143515
H68   H     H_    0.991262 0.276109 0.855068 0.123823
N1    N     N_2   0.499090 0.498660 0.846910 -0.228464
N2    N     N_2   0.499070 0.498630 0.153040 -0.364679
O1    O     O_R   0.500010 0.321960 0.617040 -0.511739
O2    O     O_3   0.087107 0.422076 0.261186 -0.557918
O3    O     O_3   0.931873 0.421654 0.247768 -0.546594
O4    O     O_R   0.499990 0.321920 0.382900 -0.519234
O5    O     O_R   0.379450 0.500030 0.617120 -0.515492
O6    O     O_R   0.379420 0.499980 0.382980 -0.501776
O7    O     O_R   0.500010 0.678080 0.617100 -0.521076
O8    O     O_R   0.499990 0.678040 0.382960 -0.491698
O9    O     O_R   0.620580 0.500020 0.617020 -0.483615
O10   O     O_R   0.620550 0.499970 0.382880 -0.504015
O11   O     O_3   0.898118 0.534796 0.722075 -0.554657

loop_
_geom_bond_atom_site_label_1
_geom_bond_atom_site_label_2
_ccdc_geom_bond_type
C19   H8    S    
C39   H58   S    
C7    C29   S    
C26   H24   S    
C34   C42   S    
C17   H3    S    
C18   O11   S    
C40   H64   S    
C19   H9    S    
C39   H59   S    
C12   C23   S    
C4    O6    A    
C29   C30   S    
C1    C5    S    
C36   C37   S    
C15   C44   S    
C21   H11   S    
C27   H31   S    
C10   C15   S    
Cu2   O4    S    
C38   C39   S    
C6    C25   S    
C26   H25   S    
C23   C43   S    
C13   C23   S    
C36   H54   S    
C25   H26   S    
C1    O1    A    
C30   H35   S    
C16   H5    S    
C24   H19   S    
C1    O4    A    
C11   C15   S    
C42   H66   S    
C32   H42   S    
C32   H41   S    
C16   C17   S    
C28   H30   S    
C22   H21   S    
C21   H13   S    
C24   H18   S    
C35   H44   S    
C40   C42   S    
C41   H61   S    
C34   H12   S    
C7    N2    D    
C11   O2    S    
C37   H50   S    
Cu1   O7    S    
H56   N2    S    
C4    C45   S    
C27   N1    S    
C19   H10   S    
C39   H60   S    
C9    O10   A    
C31   H39   S    
C12   O11   S    
C2    C20   S    
C12   C16   S    
C11   C33   S    
C13   C36   S    
C27   H32   S    
C18   C19   S    
Cu2   N2    S    
C10   H45   S    
C34   H67   S    
C40   H65   S    
C2    C46   D    
C4    O5    A    
C36   H53   S    
C25   H27   S    
C20   H16   S    
C9    C14   S    
C38   H55   S    
Cu2   O10   S    
C13   O3    S    
Cu1   O5    S    
Cu1   Cu2   S    
C23   C34   S    
C21   H14   S    
C9    O9    A    
C28   H29   S    
C22   H20   S    
C46   H23   S    
C10   C12   S    
C24   H17   S    
C18   H7    S    
C8    O8    A    
C40   C41   S    
C41   H62   S    
C26   H22   S    
C22   C24   S    
C28   H28   S    
C33   H48   S    
C37   H51   S    
C44   C45   T    
C35   H46   S    
C31   H40   S    
C6    N1    D    
C29   H37   S    
C31   C32   S    
C2    C8    S    
C16   H4    S    
C15   C42   S    
C3    C5    D    
C17   H2    S    
Cu2   O6    S    
Cu1   O9    S    
C6    C7    S    
C30   H33   S    
C35   H47   S    
C3    C46   S    
C38   H57   S    
C29   H38   S    
C25   C26   S    
C5    H34   S    
C11   C13   S    
C20   H15   S    
Cu1   O1    S    
C33   C35   S    
C33   H49   S    
C30   H36   S    
C31   O2    S    
C38   O3    S    
C18   H6    S    
Cu2   O8    S    
C32   H43   S    
C8    O7    A    
Cu1   N1    S    
C20   C21   S    
C41   H63   S    
C27   C28   S    
C3    C22   S    
C10   H1    S    
C37   H52   S    
C17   H68   S    
C14   C43   T    
