data_mof_unit_14973.cif
_audit_creation_date              2012-12-10T18:05:45-0500
_audit_creation_method            fapswitch 2.2
_symmetry_space_group_name_H-M    P1
_symmetry_Int_Tables_number       1
_space_group_crystal_system       triclinic
_cell_length_a                    10.849714
_cell_length_b                    10.804132
_cell_length_c                    9.610086
_cell_angle_alpha                 90.00591
_cell_angle_beta                  91.389546
_cell_angle_gamma                 90.710032
_cell_volume                      1126.09318652

loop_
_atom_site_label
_atom_site_type_symbol
_atom_type_description
_atom_site_fract_x
_atom_site_fract_y
_atom_site_fract_z
_atom_type_partial_charge
C1    C     C_R   0.499986 0.262387 0.499938 0.810679
C2    C     C_R   0.500008 0.737621 0.500030 0.810604
C3    C     C_R   0.872449 0.483909 0.508617 -0.175500
C4    C     C_R   0.127013 0.506556 0.493200 -0.199688
C5    C     C_R   0.941454 0.529521 0.624143 -0.024378
C6    C     C_R   0.058728 0.447472 0.384072 -0.016397
C7    C     C_R   0.503826 0.063979 0.373546 -0.157308
C8    C     C_R   0.496106 0.936063 0.626286 -0.151304
C9    C     C_R   0.503777 0.936071 0.373597 -0.175421
C10   C     C_R   0.496174 0.063963 0.626221 -0.132326
C11   C     C_R   0.499934 0.871625 0.499968 -0.006643
C12   C     C_R   0.500050 0.128400 0.499887 -0.005953
C13   C     C_R   0.470878 0.395286 0.073134 -0.054048
C14   C     C_R   0.528885 0.604710 0.926852 0.052247
C15   C     C_R   0.471364 0.395220 0.925292 0.021248
C16   C     C_R   0.528064 0.604853 0.074646 0.024015
C17   C     C_R   0.262151 0.504613 0.497755 0.854969
C18   C     C_R   0.737608 0.493162 0.502378 0.884054
C19   C     C_R   0.190342 0.568000 0.048658 0.486575
C20   C     C_R   0.789135 0.346755 0.907124 0.455707
C21   C     C_R   0.140129 0.561425 0.182531 -0.201404
C22   C     C_R   0.852498 0.377120 0.787606 -0.104109
C23   C     C_R   0.105505 0.447253 0.240536 0.089331
C24   C     C_R   0.898939 0.497662 0.765650 0.018405
C25   C     C_R   0.114463 0.338959 0.161427 -0.152953
C26   C     C_R   0.893886 0.584704 0.873318 -0.151908
C27   C     C_R   0.152878 0.345954 0.024038 0.186404
C28   C     C_R   0.840314 0.552230 0.999137 0.231671
C29   C     C_R   0.189876 0.459666 0.968395 -0.183532
C30   C     C_R   0.784094 0.435568 0.014347 -0.230021
C31   C     C_R   0.932867 0.426973 0.400179 0.243795
C32   C     C_R   0.066062 0.556102 0.606922 0.223021
Cu1   Cu    Cu3+1 0.500000 0.500020 0.640660 0.998525
Cu2   Cu    Cu3+1 0.500000 0.499980 0.359340 0.970554
H1    H     H_    0.222713 0.462921 0.863254 0.213267
H2    H     H_    0.731495 0.417856 0.105889 0.204914
H3    H     H_    0.446902 0.310830 0.870530 0.162226
H4    H     H_    0.551432 0.689515 0.129373 0.144620
H5    H     H_    0.130781 0.643339 0.245881 0.141458
H6    H     H_    0.854798 0.309022 0.704876 0.173499
H7    H     H_    0.091481 0.249749 0.205504 0.203271
H8    H     H_    0.926583 0.678548 0.858832 0.213541
H9    H     H_    0.506892 0.112007 0.274748 0.146457
H10   H     H_    0.492930 0.888041 0.725073 0.151337
H11   H     H_    0.506941 0.888052 0.274851 0.144931
H12   H     H_    0.492932 0.112040 0.724903 0.171993
H13   H     H_    0.446064 0.310962 0.126504 0.139902
H14   H     H_    0.553760 0.688978 0.873439 0.120271
N1    N     N_R   0.500030 0.500030 0.852070 -0.172513
N2    N     N_R   0.499970 0.499970 0.147930 -0.177440
O1    O     O_R   0.499990 0.319660 0.618740 -0.587278
O2    O     O_R   0.500010 0.680340 0.381260 -0.603384
O3    O     O_R   0.499990 0.319630 0.381170 -0.597006
O4    O     O_R   0.500010 0.680370 0.618830 -0.582876
O5    O     O_R   0.319650 0.500020 0.618780 -0.546639
O6    O     O_R   0.680350 0.499980 0.381220 -0.524608
O7    O     O_R   0.319640 0.500000 0.381210 -0.593807
O8    O     O_R   0.680360 0.500000 0.618790 -0.589209
O9    O     O_3   0.242063 0.674325 0.990027 -0.548756
C33   C     C_3   0.251931 0.777018 0.080807 0.085601
H15   H     H_    0.305276 0.753116 0.177357 0.135077
H16   H     H_    0.158662 0.810851 0.106234 0.186621
C34   C     C_3   0.320343 0.881892 0.008897 -0.725159
H17   H     H_    0.270670 0.907980 0.911055 0.303813
H18   H     H_    0.326637 0.963912 0.078510 0.207883
H19   H     H_    0.415039 0.852885 0.984009 0.205499
O10   O     O_3   0.715230 0.240813 0.901133 -0.599062
C35   C     C_3   0.726217 0.169680 0.023313 0.098120
H20   H     H_    0.675626 0.213787 0.108779 0.172727
H21   H     H_    0.824886 0.155571 0.053279 0.216566
C36   C     C_3   0.666983 0.043076 0.997437 -0.796068
H22   H     H_    0.676950 0.985046 0.092338 0.231725
H23   H     H_    0.567288 0.053333 0.971656 0.224389
H24   H     H_    0.712229 0.996058 0.909840 0.270288
Br1   Br    Br    0.158945 0.199541 0.913214 -0.577232
Br2   Br    Br    0.834976 0.672120 0.145116 -0.571581
Br3   Br    Br    0.854402 0.285800 0.314833 -0.627847
Br4   Br    Br    0.139614 0.694904 0.703585 -0.488444

loop_
_geom_bond_atom_site_label_1
_geom_bond_atom_site_label_2
_ccdc_geom_bond_type
Cu1   O5    S    
C34   H18   S    
Cu2   O6    S    
Cu1   O8    S    
C27   C29   A    
C20   O10   S    
C20   C30   A    
C9    H11   S    
C33   C34   S    
C19   C21   A    
C24   C26   A    
C8    C11   A    
C14   N1    A    
Cu1   N1    S    
C3    C18   S    
C33   H16   S    
C1    O3    A    
C15   H3    S    
C18   O8    A    
C35   H20   S    
C10   H12   S    
Cu2   O7    S    
C7    H9    S    
C17   O5    A    
C18   O6    A    
C5    C32   A    
C15   N1    A    
C6    C31   A    
C34   H19   S    
O9    C33   S    
C1    C12   S    
C27   Br1   S    
C2    C11   S    
C10   C12   A    
C31   Br3   S    
C21   C23   A    
C7    C12   A    
Cu2   N2    S    
O10   C35   S    
C4    C6    A    
C2    O4    A    
C25   H7    S    
C36   H23   S    
C14   H14   S    
C19   O9    S    
C13   N2    A    
C33   H15   S    
C9    C11   A    
C21   H5    S    
C22   H6    S    
Cu1   Cu2   S    
C3    C31   A    
C1    O1    A    
C4    C32   A    
C2    O2    A    
C4    C17   S    
C8    C10   A    
C20   C22   A    
C13   C15   A    
C14   C16   A    
Cu1   O1    S    
C19   C29   A    
C26   H8    S    
C13   H13   S    
Cu1   O4    S    
C7    C9    A    
C26   C28   A    
C8    H10   S    
C16   N2    A    
C3    C5    A    
C36   H24   S    
C25   C27   A    
C29   H1    S    
Cu2   O2    S    
C30   H2    S    
C28   C30   A    
C36   H22   S    
C5    C24   S    
C35   C36   S    
C6    C23   S    
C22   C24   A    
C23   C25   A    
C32   Br4   S    
C34   H17   S    
Cu2   O3    S    
C35   H21   S    
C17   O7    A    
C16   H4    S    
C28   Br2   S    
