data_mof_unit_24131.cif
_audit_creation_date              2012-12-11T16:09:31-0500
_audit_creation_method            fapswitch 2.2
_symmetry_space_group_name_H-M    P1
_symmetry_Int_Tables_number       1
_space_group_crystal_system       triclinic
_cell_length_a                    6.99141
_cell_length_b                    21.346401
_cell_length_c                    23.603721
_cell_angle_alpha                 90.082747
_cell_angle_beta                  89.755233
_cell_angle_gamma                 90.397844
_cell_volume                      3522.53275551

loop_
_atom_site_label
_atom_site_type_symbol
_atom_type_description
_atom_site_fract_x
_atom_site_fract_y
_atom_site_fract_z
_atom_type_partial_charge
O1    O     O_R   0.494270 0.443530 0.442350 -0.531644
O2    O     O_R   0.824060 0.436290 0.557250 -0.536141
O3    O     O_R   0.994370 0.556470 0.557650 -0.534644
C1    C     C_R   0.654753 0.421198 0.576516 0.722547
O4    O     O_R   0.823990 0.436120 0.442760 -0.537563
O5    O     O_R   0.994300 0.556300 0.442340 -0.533994
C2    C     C_R   0.655324 0.421037 0.423400 0.731269
O6    O     O_R   0.494350 0.443700 0.557660 -0.530033
O7    O     O_3   0.660800 0.539430 0.500000 -0.374690
V1    V     V_3+5 0.935650 0.492690 0.500000 1.427549
O8    O     O_R   0.324020 0.563710 0.442750 -0.540247
C3    C     C_R   0.156171 0.579022 0.423581 0.724087
O9    O     O_R   0.324090 0.563880 0.557240 -0.538822
C4    C     C_R   0.155784 0.579070 0.576512 0.723723
V2    V     V_3+5 0.435660 0.507310 0.500000 1.422970
O10   O     O_3   0.160640 0.460570 0.500000 -0.364687
C5    C     C_3   0.985130 0.726851 0.787738 -0.235181
C6    C     C_3   0.174192 0.693917 0.770217 -0.126293
H1    H     H_    0.226280 0.648546 0.786861 0.116961
H2    H     H_    0.882673 0.706785 0.818832 0.136403
C7    C     C_1   0.148646 0.624865 0.621959 -0.192716
C8    C     C_1   0.071250 0.874839 0.876956 -0.176787
C9    C     C_3   0.942229 0.740741 0.724324 -0.194135
C10   C     C_3   0.131501 0.708688 0.707425 0.101680
C11   C     C_3   0.053574 0.802922 0.729790 0.391408
C12   C     C_3   0.093339 0.790104 0.792295 0.129538
C13   C     C_3   0.242134 0.771678 0.711646 -0.236647
C14   C     C_3   0.280452 0.757592 0.775055 0.073867
C15   C     C_1   0.142954 0.662810 0.660341 -0.034593
C16   C     C_1   0.078380 0.836808 0.838701 -0.015003
H3    H     H_    0.347112 0.790459 0.680491 0.125773
H4    H     H_    0.803323 0.734633 0.702318 0.117381
C17   C     C_3   0.243427 0.816352 0.251422 0.087078
C18   C     C_3   0.893413 0.789875 0.244550 0.103845
C19   C     C_3   0.901246 0.734156 0.288218 -0.117014
H5    H     H_    0.873570 0.834640 0.268316 0.147557
H6    H     H_    0.824534 0.694157 0.267771 0.163347
C20   C     C_1   0.148624 0.626150 0.379372 -0.213146
C21   C     C_3   0.085392 0.793782 0.209622 0.064696
C22   C     C_3   0.248184 0.773464 0.305814 -0.099801
C23   C     C_3   0.115500 0.713732 0.296873 0.034558
C24   C     C_3   0.175472 0.681775 0.239359 0.130377
C25   C     C_3   0.132565 0.726050 0.188046 0.096716
C26   C     C_1   0.136779 0.665847 0.342612 0.030738
C27   C     C_1   0.073262 0.838439 0.160921 0.073904
C28   C     C_1   0.068539 0.875456 0.121840 -0.180375
H7    H     H_    0.000783 0.707709 0.167326 0.166233
H8    H     H_    0.384301 0.812684 0.229792 0.092538
H9    H     H_    0.394269 0.755418 0.308254 0.119493
H10   H     H_    0.084922 0.639083 0.233655 0.127001
C29   C     C_3   0.413634 0.269883 0.717478 0.156589
C30   C     C_3   0.747445 0.229751 0.691918 0.592677
C31   C     C_3   0.727712 0.180839 0.742111 0.217979
H11   H     H_    0.336414 0.176315 0.749632 0.177863
H12   H     H_    0.356238 0.247817 0.678434 0.166177
H13   H     H_    0.654223 0.137952 0.726167 0.107362
C32   C     C_1   0.575502 0.123638 0.877202 -0.173147
C33   C     C_3   0.626826 0.290133 0.706688 -0.007083
C34   C     C_3   0.399935 0.220523 0.766395 -0.488504
C35   C     C_3   0.600725 0.207237 0.791284 0.003464
C36   C     C_3   0.683635 0.270762 0.812645 -0.340343
C37   C     C_3   0.704463 0.318958 0.763397 0.206157
C38   C     C_1   0.585882 0.161361 0.838761 0.041973
C39   C     C_1   0.636202 0.337035 0.659756 0.024286
C40   C     C_1   0.644307 0.375277 0.621706 -0.172349
H14   H     H_    0.619551 0.361172 0.774856 0.082703
H15   H     H_    0.586145 0.290350 0.845509 0.121487
H16   H     H_    0.302433 0.236805 0.800677 0.195383
H17   H     H_    0.822884 0.263833 0.834217 0.177152
C41   C     C_3   0.456485 0.304457 0.254607 0.208873
C42   C     C_3   0.815186 0.290990 0.256445 -0.386423
C43   C     C_3   0.800231 0.244415 0.204268 0.450624
H18   H     H_    0.431757 0.278973 0.163961 0.182430
H19   H     H_    0.941513 0.280589 0.283135 0.105338
H20   H     H_    0.839616 0.339998 0.242034 0.180296
C44   C     C_1   0.573261 0.123729 0.121579 -0.179156
C45   C     C_3   0.630353 0.289145 0.293387 0.133455
C46   C     C_3   0.437760 0.255503 0.205861 -0.565479
C47   C     C_3   0.603250 0.207512 0.207685 0.130954
C48   C     C_3   0.583364 0.173024 0.266085 0.190995
C49   C     C_3   0.601434 0.220920 0.316900 -0.129368
C50   C     C_1   0.583956 0.161430 0.160127 -0.002321
C51   C     C_1   0.640053 0.336520 0.340121 -0.010925
C52   C     C_1   0.646714 0.374987 0.378132 -0.185702
H21   H     H_    0.461239 0.221006 0.339616 0.087892
H22   H     H_    0.436356 0.152193 0.268790 0.065661
H23   H     H_    0.323562 0.302472 0.281007 0.071449
H24   H     H_    0.299516 0.230313 0.210560 0.175275
O11   O     O_R   0.724990 0.055630 0.941600 -0.531629
O12   O     O_R   0.395220 0.063160 0.056480 -0.536607
O13   O     O_R   0.225040 0.942970 0.056870 -0.533780
C53   C     C_R   0.563894 0.078203 0.075898 0.718522
O14   O     O_R   0.395270 0.063000 0.941990 -0.536892
O15   O     O_R   0.225080 0.942800 0.941570 -0.535575
C54   C     C_R   0.564600 0.078069 0.922693 0.720025
O16   O     O_R   0.724940 0.055790 0.056910 -0.530999
O17   O     O_3   0.558580 0.959880 0.999250 -0.371529
V3    V     V_3+5 0.283680 0.006590 0.999220 1.444376
O18   O     O_R   0.895380 0.935350 0.941950 -0.538318
C55   C     C_R   0.063700 0.920413 0.922523 0.734115
O19   O     O_R   0.895330 0.935520 0.056440 -0.539033
C56   C     C_R   0.063028 0.920511 0.075847 0.723330
V4    V     V_3+5 0.783690 0.991900 0.999180 1.442069
O20   O     O_3   0.058660 0.038680 0.999200 -0.366673
C57   C     C_3   0.787815 0.747353 0.343716 -0.354588
C58   C     C_3   0.699646 0.687565 0.370654 -0.297718
C59   C     C_3   0.708892 0.689109 0.435453 -0.743537
H25   H     H_    0.856510 0.679727 0.449944 0.218342
H26   H     H_    0.665399 0.735451 0.452329 0.215986
H27   H     H_    0.612342 0.652675 0.453290 0.238081
H28   H     H_    0.549082 0.682199 0.357245 0.195470
H29   H     H_    0.770678 0.644323 0.355693 0.206731
H30   H     H_    0.876808 0.771422 0.374885 0.195308
H31   H     H_    0.673090 0.781429 0.335435 0.155862
O21   O     O_3   0.275724 0.723635 0.145807 -0.614249
H32   H     H_    0.380853 0.752710 0.155900 0.312429
O22   O     O_3   0.365667 0.660132 0.240169 -0.615607
H33   H     H_    0.453693 0.696175 0.235089 0.325522
O23   O     O_3   0.941893 0.246077 0.685097 -0.582237
H34   H     H_    0.955878 0.269337 0.648908 0.325669
O24   O     O_3   0.685181 0.202850 0.640264 -0.656506
H35   H     H_    0.562948 0.180077 0.646416 0.248666
O25   O     O_3   0.906708 0.160177 0.761686 -0.616505
H36   H     H_    0.975570 0.196445 0.778240 0.331427
O26   O     O_3   0.897042 0.337522 0.758377 -0.605442
H37   H     H_    0.899523 0.378042 0.737789 0.304925
O27   O     O_3   0.296175 0.322106 0.727839 -0.599856
H38   H     H_    0.311911 0.335443 0.767798 0.310822
C60   C     C_3   0.469892 0.769016 0.805516 -0.352082
C61   C     C_3   0.463716 0.744416 0.866770 -0.317251
C62   C     C_3   0.607986 0.778293 0.904540 -0.725962
H39   H     H_    0.755331 0.772153 0.888205 0.223302
H40   H     H_    0.575186 0.829105 0.906644 0.235161
H41   H     H_    0.600247 0.758782 0.948076 0.220870
H42   H     H_    0.319612 0.750757 0.885804 0.204930
H43   H     H_    0.494525 0.693400 0.866726 0.188665
H44   H     H_    0.584497 0.744941 0.781737 0.170604
H45   H     H_    0.500417 0.820186 0.804824 0.198928
O28   O     O_3   0.476903 0.365104 0.232025 -0.634427
H46   H     H_    0.348203 0.378351 0.219425 0.292933
C63   C     C_3   0.816152 0.282551 0.147788 -0.303552
C64   C     C_3   0.020859 0.304924 0.134473 -0.301788
C65   C     C_3   0.025415 0.348889 0.083572 -0.779621
H47   H     H_    0.966673 0.324897 0.045572 0.229189
H48   H     H_    0.940336 0.391555 0.092563 0.241401
H49   H     H_    0.175453 0.363238 0.074551 0.224705
H50   H     H_    0.082090 0.329867 0.171515 0.188175
H51   H     H_    0.111597 0.263806 0.124529 0.225571
H52   H     H_    0.767697 0.253505 0.111427 0.162148
H53   H     H_    0.721837 0.324181 0.149648 0.186441
O29   O     O_3   0.951248 0.200748 0.203983 -0.643914
H54   H     H_    0.984566 0.189318 0.243325 0.307808
C66   C     C_3   0.754016 0.202074 0.361651 -0.269185
C67   C     C_3   0.684425 0.147875 0.399494 -0.298077
C68   C     C_3   0.838577 0.128697 0.441517 -0.742394
H55   H     H_    0.968210 0.112473 0.418575 0.226834
H56   H     H_    0.877368 0.168827 0.469305 0.235296
H57   H     H_    0.784110 0.089811 0.468441 0.226124
H58   H     H_    0.555396 0.162695 0.423582 0.183657
H59   H     H_    0.644876 0.106447 0.373494 0.228558
H60   H     H_    0.890684 0.189330 0.340630 0.196129
H61   H     H_    0.786575 0.242209 0.390029 0.157136
O30   O     O_3   0.716276 0.123963 0.270181 -0.642235
H62   H     H_    0.659231 0.086615 0.251474 0.292195
O31   O     O_3   0.988882 0.860375 0.709321 -0.635157
H63   H     H_    0.974798 0.854494 0.667882 0.284915
C69   C     C_3   0.226023 0.813220 0.361149 -0.281502
C70   C     C_3   0.246990 0.777536 0.417317 -0.362432
C71   C     C_3   0.276462 0.822269 0.467068 -0.781419
H64   H     H_    0.410557 0.849793 0.461311 0.230558
H65   H     H_    0.153560 0.854746 0.470753 0.235868
H66   H     H_    0.287501 0.795016 0.506956 0.221281
H67   H     H_    0.119497 0.748585 0.426793 0.204770
H68   H     H_    0.370186 0.745957 0.414696 0.216725
H69   H     H_    0.343425 0.848680 0.360409 0.184281
H70   H     H_    0.091972 0.840641 0.360909 0.195333
O32   O     O_3   0.212907 0.879943 0.264983 -0.650951
H71   H     H_    0.340317 0.899850 0.270494 0.284561
O33   O     O_3   0.736944 0.780728 0.208167 -0.676284
H72   H     H_    0.703838 0.822321 0.192373 0.280008

loop_
_geom_bond_atom_site_label_1
_geom_bond_atom_site_label_2
_ccdc_geom_bond_type
C33   C37   S    
C65   H49   S    
O18   V4    S    
O19   C56   A    
C68   H56   S    
C71   H65   S    
C71   H64   S    
C61   H42   S    
C10   C13   S    
C1    O6    A    
C62   H41   S    
C47   C50   S    
O17   V3    S    
C63   H52   S    
O25   H36   S    
C58   H29   S    
C27   C28   T    
C70   H68   S    
C28   C56   S    
O31   H63   S    
C35   C38   S    
C6    C10   S    
C5    C12   S    
C4    C7    S    
C57   H30   S    
C19   H6    S    
C18   C19   S    
C43   C47   S    
O5    C3    A    
C1    C40   S    
C41   C46   S    
C58   C59   S    
O15   V3    S    
C46   H24   S    
C65   H47   S    
C53   O16   A    
C5    H2    S    
C49   C66   S    
C14   C60   S    
C23   C24   S    
C10   C15   S    
C22   C69   S    
C48   H22   S    
V4    O20   S    
C25   O21   S    
O8    V2    S    
C60   H45   S    
C51   C52   T    
C9    C10   S    
O1    V2    S    
C45   C49   S    
O7    V1    S    
C18   H5    S    
C36   C37   S    
H11   C34   S    
C2    C52   S    
C34   C35   S    
O19   V4    S    
O9    C4    A    
O11   V4    S    
C68   H57   S    
C59   H26   S    
C18   O33   S    
C43   C63   S    
C41   H23   S    
C31   C35   S    
C63   H53   S    
C32   C38   T    
C20   C26   T    
C58   H28   S    
C33   C39   S    
C70   H67   S    
O28   H46   S    
C68   H55   S    
C17   C22   S    
C8    C55   S    
C37   H14   S    
C13   H3    S    
C18   C21   S    
C64   H51   S    
C57   H31   S    
C6    C14   S    
C31   O25   S    
C44   C50   T    
C69   C70   S    
O4    C2    A    
C46   C47   S    
C6    H1    S    
C21   C25   S    
C11   O31   S    
C11   C12   S    
H18   C46   S    
C17   O32   S    
O33   H72   S    
C66   H60   S    
C35   C36   S    
O11   C54   A    
O2    C1    A    
C48   O30   S    
C67   H59   S    
C19   C57   S    
C34   H16   S    
C42   H19   S    
C30   O24   S    
C36   H15   S    
O12   C53   A    
O18   C55   A    
C5    C9    S    
O15   C55   A    
O29   H54   S    
C43   O29   S    
C5    C6    S    
C67   C68   S    
C60   H44   S    
C29   C33   S    
C17   C21   S    
O24   H35   S    
O17   V4    S    
O3    C4    A    
C30   C33   S    
C44   C53   S    
C70   C71   S    
C24   H10   S    
C12   C16   S    
O6    V2    S    
O9    V2    S    
O26   H37   S    
C23   C26   S    
C29   C34   S    
C24   C25   S    
C59   H25   S    
O27   H38   S    
O2    V1    S    
C42   C45   S    
C67   H58   S    
C30   C31   S    
C69   H69   S    
C60   C61   S    
C31   H13   S    
C36   H17   S    
C65   H48   S    
C22   C23   S    
C8    C16   T    
O1    C2    A    
C64   H50   S    
C61   H43   S    
C48   C49   S    
C62   H40   S    
O5    V1    S    
C37   O26   S    
O23   H34   S    
C24   O22   S    
C11   C13   S    
C57   C58   S    
C12   C14   S    
C21   C27   S    
C66   H61   S    
C29   O27   S    
C9    H4    S    
C61   C62   S    
O7    V2    S    
O4    V1    S    
O3    V1    S    
V1    O10   S    
O22   H33   S    
C39   C40   T    
C42   H20   S    
C22   H9    S    
C7    C15   T    
V3    O20   S    
C59   H27   S    
C29   H12   S    
C9    C11   S    
O13   V3    S    
C3    C20   S    
C62   H39   S    
C19   C23   S    
O30   H62   S    
C47   C48   S    
C30   O23   S    
C41   O28   S    
C42   C43   S    
O14   C54   A    
O32   H71   S    
C32   C54   S    
O16   V4    S    
C13   C14   S    
C17   H8    S    
C45   C51   S    
C64   C65   S    
C71   H66   S    
O13   C56   A    
O21   H32   S    
C66   C67   S    
C63   C64   S    
C25   H7    S    
O14   V3    S    
O12   V3    S    
C49   H21   S    
V2    O10   S    
O8    C3    A    
C69   H70   S    
C41   C45   S    
