data_mof_unit_31220.cif
_audit_creation_date              2012-12-10T18:09:04-0500
_audit_creation_method            fapswitch 2.2
_symmetry_space_group_name_H-M    P1
_symmetry_Int_Tables_number       1
_space_group_crystal_system       triclinic
_cell_length_a                    12.656152
_cell_length_b                    13.438833
_cell_length_c                    13.629071
_cell_angle_alpha                 88.873328
_cell_angle_beta                  96.661539
_cell_angle_gamma                 96.302997
_cell_volume                      2288.46166845

loop_
_atom_site_label
_atom_site_type_symbol
_atom_type_description
_atom_site_fract_x
_atom_site_fract_y
_atom_site_fract_z
_atom_type_partial_charge
C1    C     C_R   0.557374 0.690863 0.513716 0.846414
C2    C     C_1   0.529570 0.514672 0.218456 -0.201442
C3    C     C_R   0.265626 0.068341 0.482755 0.523827
C4    C     C_R   0.407022 0.204734 0.482156 -0.107188
C5    C     C_R   0.691700 0.834267 0.494739 -0.195842
C6    C     C_R   0.716535 0.932947 0.467126 -0.168547
C7    C     C_R   0.638840 0.998905 0.460246 -0.169434
C8    C     C_R   0.534566 0.968907 0.486526 0.111195
C9    C     C_R   0.509154 0.868635 0.515619 0.028466
C10   C     C_R   0.454648 0.035824 0.484054 -0.052973
C11   C     C_R   0.345410 0.000201 0.493168 -0.051505
C12   C     C_R   0.516774 0.499098 0.318312 0.912779
C13   C     C_R   0.321261 0.899273 0.518176 0.469361
C14   C     C_R   0.404864 0.839920 0.541945 -0.328124
C15   C     C_R   0.482710 0.138478 0.478834 -0.230332
C16   C     C_R   0.299839 0.170622 0.482950 -0.340563
C17   C     C_R   0.587712 0.799693 0.514567 -0.077443
C18   C     C_R   0.902207 0.360054 0.652416 0.283065
C19   C     C_R   0.208455 0.584043 0.355140 -0.008684
C20   C     C_R   0.108608 0.560685 0.302294 -0.264847
C21   C     C_R   0.024702 0.516817 0.350958 -0.216413
C22   C     C_R   0.040200 0.496186 0.453040 0.081908
C23   C     C_R   0.441682 0.310327 0.488758 0.896303
C24   C     C_R   0.147531 0.501116 0.496698 0.228471
C25   C     C_R   0.955792 0.458540 0.509597 -0.075455
C26   C     C_R   0.982249 0.401168 0.595729 -0.036534
C27   C     C_R   0.089310 0.388862 0.626330 -0.229555
C28   C     C_R   0.170296 0.439231 0.578517 -0.212963
C29   C     C_R   0.848345 0.482156 0.489207 0.170829
C30   C     C_R   0.799441 0.390782 0.632801 0.449544
C31   C     C_R   0.483629 0.502626 0.681856 0.882194
C32   C     C_1   0.473837 0.500491 0.783218 -0.185475
C33   C     C_2   0.466484 0.492849 0.972740 -0.252976
C34   C     C_2   0.539265 0.550256 0.030834 0.533375
C35   C     C_1   0.537128 0.531739 0.133772 -0.172073
C36   C     C_1   0.467626 0.497345 0.869406 0.072347
H1    H     H_    0.384598 0.770469 0.579924 0.205174
H2    H     H_    0.111730 0.342894 0.689896 0.183372
H3    H     H_    0.273710 0.617265 0.316659 0.146717
H4    H     H_    0.950285 0.494262 0.306501 0.164019
H5    H     H_    0.096374 0.576024 0.223769 0.158322
H6    H     H_    0.248896 0.421861 0.603287 0.205845
H7    H     H_    0.410297 0.436472 0.002791 0.118224
H8    H     H_    0.242772 0.224196 0.486746 0.175200
H9    H     H_    0.565082 0.169081 0.480177 0.168273
H10   H     H_    0.752250 0.783384 0.493600 0.158292
H11   H     H_    0.662304 0.072075 0.431012 0.128326
H12   H     H_    0.795666 0.957729 0.447264 0.147876
N1    N     N_R   0.773270 0.445590 0.549770 -0.161381
N2    N     N_R   0.227520 0.553880 0.450750 -0.147897
O1    O     O_R   0.631100 0.627590 0.523760 -0.635583
O2    O     O_R   0.455900 0.662370 0.491970 -0.628767
O3    O     O_R   0.600200 0.480080 0.377830 -0.616218
O4    O     O_R   0.425000 0.514870 0.346040 -0.620327
O5    O     O_R   0.544100 0.337630 0.508030 -0.593496
O6    O     O_R   0.368900 0.372410 0.476240 -0.635940
O7    O     O_R   0.575000 0.485130 0.653960 -0.570983
O8    O     O_R   0.399800 0.519920 0.622170 -0.639380
Zn1   Zn    Zn3+2 0.616980 0.476780 0.521230 0.963040
Zn2   Zn    Zn3+2 0.383020 0.523220 0.478770 0.923584
O9    O     O_3   0.608376 0.624544 0.990325 -0.645166
C37   C     C_3   0.692399 0.667454 0.059715 0.077776
H13   H     H_    0.759687 0.696799 0.017982 0.159377
H14   H     H_    0.725380 0.611193 0.112545 0.134893
C38   C     C_3   0.657447 0.755576 0.113435 -0.329708
H15   H     H_    0.637865 0.815255 0.058860 0.225733
H16   H     H_    0.584614 0.731415 0.149604 0.224734
C39   C     C_3   0.745585 0.798459 0.192027 -0.972191
H17   H     H_    0.765660 0.740206 0.248027 0.268429
H18   H     H_    0.717908 0.861589 0.229904 0.271360
H19   H     H_    0.818338 0.826657 0.157326 0.261902
O10   O     O_3   0.723012 0.362470 0.695852 -0.612678
C40   C     C_3   0.750902 0.411290 0.788479 0.142579
H20   H     H_    0.721336 0.486159 0.785175 0.154456
H21   H     H_    0.838417 0.424909 0.811661 0.160846
C41   C     C_3   0.699613 0.348304 0.868624 -0.316968
H22   H     H_    0.611146 0.344195 0.853356 0.221194
H23   H     H_    0.722660 0.271031 0.868017 0.225821
C42   C     C_3   0.735489 0.392194 0.971019 -0.974820
H24   H     H_    0.821998 0.385839 0.991815 0.267051
H25   H     H_    0.689408 0.350756 0.026339 0.266158
H26   H     H_    0.721937 0.472182 0.971935 0.281581
O11   O     O_3   0.926797 0.304793 0.737571 -0.652216
C43   C     C_3   0.928652 0.202847 0.715055 0.079403
H27   H     H_    0.968180 0.167344 0.781746 0.173908
H28   H     H_    0.978583 0.193481 0.655249 0.123825
C44   C     C_3   0.815681 0.148315 0.690398 -0.338998
H29   H     H_    0.763097 0.168657 0.744740 0.249059
H30   H     H_    0.781496 0.171001 0.615530 0.212513
C45   C     C_3   0.817151 0.034904 0.693359 -0.938442
H31   H     H_    0.868363 0.011392 0.639139 0.265875
H32   H     H_    0.734527 0.997950 0.675085 0.283478
H33   H     H_    0.848052 0.010012 0.768412 0.261770
C46   C     C_3   0.819457 0.559212 0.411431 -0.820470
H34   H     H_    0.754953 0.600036 0.428911 0.279294
H35   H     H_    0.885835 0.619567 0.407173 0.202523
H36   H     H_    0.793514 0.523303 0.338813 0.225725
O12   O     O_3   0.217342 0.859686 0.528601 -0.599058
C47   C     C_3   0.177429 0.795804 0.447782 0.124217
H37   H     H_    0.129909 0.729603 0.476750 0.166372
H38   H     H_    0.241473 0.768236 0.409354 0.118082
C48   C     C_3   0.104141 0.849934 0.372718 -0.327533
H39   H     H_    0.037519 0.872771 0.410438 0.247226
H40   H     H_    0.151881 0.915948 0.343854 0.224647
C49   C     C_3   0.055933 0.786660 0.284141 -1.015928
H41   H     H_    0.120178 0.760143 0.245776 0.270852
H42   H     H_    0.008651 0.833091 0.231235 0.264304
H43   H     H_    0.001186 0.722978 0.307671 0.283248
O13   O     O_3   0.157288 0.035644 0.484524 -0.611703
C50   C     C_3   0.089453 0.088356 0.415465 0.035799
H44   H     H_    0.034862 0.033688 0.368929 0.148662
H45   H     H_    0.132092 0.136636 0.361772 0.130121
C51   C     C_3   0.019156 0.148370 0.469960 -0.344885
H46   H     H_    0.969927 0.095836 0.514629 0.222365
H47   H     H_    0.070190 0.202666 0.519896 0.220464
C52   C     C_3   0.944773 0.205176 0.398709 -0.956477
H48   H     H_    0.992118 0.261550 0.356088 0.274780
H49   H     H_    0.892263 0.244494 0.441096 0.258750
H50   H     H_    0.893401 0.152529 0.346903 0.258091

loop_
_geom_bond_atom_site_label_1
_geom_bond_atom_site_label_2
_ccdc_geom_bond_type
C2    C35   T    
C44   H29   S    
O5    Zn1   S    
C40   H20   S    
C19   C20   A    
C18   C26   A    
C43   C44   S    
C2    C12   S    
C20   H5    S    
O3    Zn1   S    
C7    C8    A    
O4    Zn2   S    
C49   H42   S    
C26   C27   A    
C6    H12   S    
C32   C36   T    
C31   O8    A    
C41   H23   S    
C10   C15   A    
C5    C6    A    
O7    Zn1   S    
C5    C17   A    
C27   H2    S    
O8    Zn2   S    
C33   C36   S    
C52   H48   S    
C48   C49   S    
C34   C35   S    
C13   O12   S    
C50   H44   S    
C37   H14   S    
O2    Zn2   S    
O11   C43   S    
C39   H17   S    
C38   H16   S    
C22   C25   A    
C41   C42   S    
C18   C30   A    
C16   H8    S    
C12   O3    A    
C51   C52   S    
C21   C22   A    
C25   C29   A    
C40   H21   S    
C48   H39   S    
C33   C34   D    
C24   N2    A    
C49   H43   S    
C33   H7    S    
C23   O6    A    
C41   H22   S    
C42   H25   S    
C4    C23   S    
C8    C9    A    
C29   N1    A    
C46   H36   S    
C25   C26   A    
C34   O9    S    
O6    Zn2   S    
C7    H11   S    
C4    C16   A    
C48   H40   S    
C9    C14   A    
C37   H13   S    
C45   H32   S    
C47   H37   S    
C38   C39   S    
C18   O11   S    
C46   H34   S    
C43   H27   S    
C46   H35   S    
C1    O1    A    
C50   C51   S    
C19   H3    S    
C9    C17   A    
C47   H38   S    
C30   N1    A    
O12   C47   S    
C44   H30   S    
C40   C41   S    
C22   C24   A    
O1    Zn1   S    
C15   H9    S    
C45   H33   S    
C51   H46   S    
C5    H10   S    
C37   C38   S    
C31   C32   S    
C24   C28   A    
C43   H28   S    
O10   C40   S    
C42   H26   S    
C30   O10   S    
C23   O5    A    
C6    C7    A    
C49   H41   S    
C1    C17   S    
N1    Zn1   S    
C52   H50   S    
N2    Zn2   S    
C31   O7    A    
C4    C15   A    
O13   C50   S    
C14   H1    S    
C11   C13   A    
C19   N2    A    
C45   H31   S    
C29   C46   S    
C21   H4    S    
C3    O13   S    
C39   H19   S    
C28   H6    S    
C52   H49   S    
O9    C37   S    
C1    O2    A    
C50   H45   S    
C3    C11   A    
C10   C11   A    
C42   H24   S    
C47   C48   S    
C20   C21   A    
C8    C10   A    
C38   H15   S    
C44   C45   S    
C27   C28   A    
C39   H18   S    
C13   C14   A    
C12   O4    A    
C3    C16   A    
C51   H47   S    
