data_mof_unit_43227.cif
_audit_creation_date              2012-12-11T14:46:11-0500
_audit_creation_method            fapswitch 2.2
_symmetry_space_group_name_H-M    P1
_symmetry_Int_Tables_number       1
_space_group_crystal_system       triclinic
_cell_length_a                    10.937337
_cell_length_b                    10.903047
_cell_length_c                    18.822598
_cell_angle_alpha                 89.977504
_cell_angle_beta                  90.027389
_cell_angle_gamma                 119.881815
_cell_volume                      1946.19160575

loop_
_atom_site_label
_atom_site_type_symbol
_atom_type_description
_atom_site_fract_x
_atom_site_fract_y
_atom_site_fract_z
_atom_type_partial_charge
C1    C     C_R   0.864817 0.637471 0.603575 0.545634
C2    C     C_R   0.961246 0.170342 0.711175 0.011469
C3    C     C_R   0.961521 0.182784 0.786309 -0.002655
C4    C     C_R   0.270554 0.632905 0.603738 0.544875
C5    C     C_R   0.716154 0.115942 0.707732 0.012836
C6    C     C_R   0.724623 0.151701 0.779757 0.028900
C7    C     C_R   0.585872 0.063353 0.671816 -0.067794
C8    C     C_R   0.475395 0.073090 0.702547 -0.118265
C9    C     C_R   0.492426 0.132253 0.769617 -0.139983
C10   C     C_R   0.616330 0.173507 0.807532 -0.072945
C11   C     C_R   0.841160 0.149577 0.671377 -0.043004
C12   C     C_R   0.423002 0.625519 0.777336 -0.116764
C13   C     C_R   0.726588 0.534782 0.713453 -0.138356
C14   C     C_R   0.717444 0.545983 0.786611 -0.157200
C15   C     C_R   0.802884 0.676065 0.819544 0.029327
C16   C     C_R   0.860741 0.221320 0.601570 0.532973
C17   C     C_R   0.887815 0.796917 0.778471 -0.128060
C18   C     C_R   0.895106 0.786437 0.706076 -0.145700
C19   C     C_R   0.820384 0.654500 0.673569 0.022587
C20   C     C_R   0.409797 0.608685 0.300873 -0.122284
C21   C     C_R   0.444136 0.621216 0.229047 0.229469
C22   C     C_R   0.429400 0.720315 0.187238 0.061103
C23   C     C_R   0.401696 0.616913 0.705021 -0.129906
C24   C     C_R   0.383201 0.807099 0.218550 -0.187731
C25   C     C_R   0.343321 0.789171 0.289739 -0.158136
C26   C     C_R   0.351415 0.685751 0.330348 -0.005912
C27   C     C_R   0.716843 0.125663 0.291394 -0.143808
C28   C     C_R   0.866387 0.637620 0.397006 0.545490
C29   C     C_R   0.709281 0.114689 0.218877 -0.136637
C30   C     C_R   0.827488 0.138657 0.178740 0.028440
C31   C     C_R   0.954407 0.173616 0.212721 -0.150170
C32   C     C_R   0.963801 0.190519 0.286185 -0.139038
C33   C     C_R   0.845388 0.170228 0.325354 0.025213
C34   C     C_R   0.322939 0.672258 0.675308 0.027724
C35   C     C_R   0.871723 0.782190 0.296432 -0.140083
C36   C     C_R   0.861996 0.794958 0.224134 -0.117991
C37   C     C_R   0.808055 0.675118 0.180052 0.070565
C38   C     C_R   0.757967 0.540895 0.208788 -0.116928
C39   C     C_R   0.766267 0.527608 0.281692 -0.137995
C40   C     C_R   0.275364 0.636529 0.397473 0.550857
C41   C     C_R   0.826502 0.648999 0.325302 0.028261
C42   C     C_R   0.807566 0.105945 0.895142 0.532352
C43   C     C_R   0.399727 0.702323 0.895311 0.550268
C44   C     C_R   0.794113 0.696300 0.894965 0.545785
C45   C     C_R   0.839127 0.162761 0.821338 -0.033693
C46   C     C_R   0.804494 0.102147 0.104021 0.538149
C47   C     C_R   0.459303 0.728127 0.110997 0.592968
C48   C     C_R   0.796757 0.696406 0.105382 0.547898
C49   C     C_R   0.862170 0.227874 0.396260 0.542307
C50   C     C_R   0.270751 0.741918 0.718188 -0.125278
C51   C     C_R   0.295261 0.753545 0.790846 -0.130114
C52   C     C_R   0.367623 0.691243 0.820578 0.039906
C53   C     C_R   0.087111 0.223219 0.824390 -0.088864
C54   C     C_R   0.207960 0.243293 0.789636 -0.123411
C55   C     C_R   0.204298 0.217700 0.717084 -0.129830
C56   C     C_R   0.081851 0.179583 0.678259 -0.081263
Cr1   Cr    Cr6+3 0.791660 0.390250 0.499930 1.008186
Cr2   Cr    Cr6+3 0.098520 0.708290 0.500540 1.005223
Cr3   Cr    Cr6+3 0.109770 0.401430 0.499480 1.007191
Cr4   Cr    Cr6+3 0.874790 0.925890 0.000070 1.008716
Cr5   Cr    Cr6+3 0.574120 0.948670 0.999300 1.010494
Cr6   Cr    Cr6+3 0.551420 0.625320 0.000920 1.037073
H1    H     H_    0.205987 0.782035 0.696149 0.138716
H2    H     H_    0.370477 0.883321 0.187247 0.134076
H3    H     H_    0.254717 0.806777 0.823739 0.121757
H4    H     H_    0.298246 0.849756 0.311569 0.140573
H5    H     H_    0.623864 0.108479 0.320255 0.131617
H6    H     H_    0.608727 0.085020 0.194512 0.136277
H7    H     H_    0.045309 0.188625 0.182685 0.132287
H8    H     H_    0.064743 0.225839 0.311661 0.136077
H9    H     H_    0.918809 0.876274 0.329333 0.123775
H10   H     H_    0.897555 0.899107 0.202354 0.138630
H11   H     H_    0.714038 0.447947 0.175145 0.124361
H12   H     H_    0.378315 0.038745 0.673449 0.103005
H13   H     H_    0.732764 0.423522 0.303324 0.141173
H14   H     H_    0.482793 0.580156 0.799616 0.139489
H15   H     H_    0.441262 0.561752 0.672875 0.127076
H16   H     H_    0.304404 0.278378 0.819363 0.104214
H17   H     H_    0.297059 0.228772 0.690586 0.102671
H18   H     H_    0.094521 0.245588 0.880726 0.131975
H19   H     H_    0.081996 0.154508 0.622723 0.126356
H20   H     H_    0.627140 0.225037 0.858087 0.133017
H21   H     H_    0.476105 0.460684 0.233146 0.310040
H22   H     H_    0.571945 0.020812 0.618533 0.122155
H23   H     H_    0.408835 0.144088 0.792911 0.100877
H24   H     H_    0.667047 0.431480 0.689016 0.146652
H25   H     H_    0.646554 0.453833 0.817420 0.109190
H26   H     H_    0.949668 0.900590 0.802210 0.154185
H27   H     H_    0.966378 0.880023 0.676212 0.129028
H28   H     H_    0.418778 0.530333 0.332395 0.118205
O1    O     O_R   0.766500 0.250040 0.579790 -0.516912
O2    O     O_R   0.413330 0.603360 0.920440 -0.531090
O3    O     O_R   0.676110 0.626250 0.926750 -0.514815
O4    O     O_R   0.798570 0.516780 0.574780 -0.503062
O5    O     O_R   0.895350 0.809870 0.080950 -0.528555
O6    O     O_R   0.872490 0.049760 0.073800 -0.508525
O7    O     O_R   0.691680 0.088070 0.079070 -0.534557
O8    O     O_R   0.451720 0.825250 0.074050 -0.524792
O9    O     O_R   0.413580 0.606370 0.080960 -0.452467
O10   O     O_R   0.676340 0.629040 0.075550 -0.475901
O11   O     O_3   0.666780 0.833290 0.000090 -0.274573
O12   O     O_R   0.218690 0.701900 0.425960 -0.501627
O13   O     O_R   0.984000 0.732950 0.581090 -0.531968
O14   O     O_R   0.218600 0.700890 0.574760 -0.514096
O15   O     O_R   0.249390 0.515350 0.579940 -0.516273
O16   O     O_R   0.982790 0.280900 0.573700 -0.504466
O17   O     O_R   0.766600 0.251130 0.419260 -0.531705
O18   O     O_R   0.798660 0.517790 0.425980 -0.509482
O19   O     O_R   0.984100 0.734040 0.420570 -0.520447
O20   O     O_3   0.484631 0.532313 0.197993 -0.685446
O21   O     O_R   0.249490 0.516440 0.419420 -0.527311
O22   O     O_R   0.982880 0.281910 0.424890 -0.508359
O23   O     O_3   0.999980 0.499990 0.499980 -0.236143
O24   O     O_R   0.895110 0.806860 0.920430 -0.521615
O25   O     O_R   0.872260 0.046970 0.925000 -0.503174
O26   O     O_R   0.691430 0.085060 0.918550 -0.521173
O27   O     O_R   0.451490 0.822460 0.925250 -0.491361

loop_
_geom_bond_atom_site_label_1
_geom_bond_atom_site_label_2
_ccdc_geom_bond_type
C55   C56   A    
C6    C45   A    
C27   C29   A    
Cr2   O19   S    
Cr4   O24   S    
Cr5   O8    S    
C21   O20   S    
C56   H19   S    
C39   C41   A    
C53   C54   A    
C27   C33   A    
C12   C23   A    
C29   C30   A    
C47   O8    A    
C36   C37   A    
C48   O5    A    
C14   H25   S    
C5    C11   A    
C5    C6    A    
C43   C52   S    
C33   C49   S    
C17   H26   S    
C28   C41   S    
C47   O9    A    
C18   C19   A    
C51   H3    S    
C44   O3    A    
C9    H23   S    
C35   C36   A    
C1    O4    A    
Cr6   O2    S    
C13   H24   S    
Cr2   O23   S    
Cr3   O21   S    
Cr2   O12   S    
C39   H13   S    
C9    C10   A    
C1    O13   A    
C16   O16   A    
Cr6   O11   S    
C7    H22   S    
C44   O24   A    
C24   H2    S    
C21   C22   A    
C50   H1    S    
C2    C11   A    
C12   C52   A    
C17   C18   A    
C40   O21   A    
C38   C39   A    
C48   O10   A    
C4    C34   S    
C1    C19   S    
Cr3   O16   S    
C34   C50   A    
C13   C19   A    
Cr5   O27   S    
C51   C52   A    
C7    C8    A    
C53   H18   S    
C24   C25   A    
C49   O17   A    
C5    C7    A    
C8    C9    A    
Cr1   O23   S    
C40   O12   A    
C50   C51   A    
C25   C26   A    
C20   H28   S    
C3    C45   A    
C42   C45   S    
Cr5   O11   S    
C6    C10   A    
C37   C38   A    
C29   H6    S    
C55   H17   S    
C11   C16   S    
C31   C32   A    
Cr3   O23   S    
C23   C34   A    
Cr5   O26   S    
C8    H12   S    
Cr3   O22   S    
H21   O20   S    
Cr3   O15   S    
C23   H15   S    
C37   C48   S    
C43   O27   A    
C49   O22   A    
Cr6   O10   S    
Cr4   O6    S    
C42   O26   A    
Cr1   O17   S    
C46   O7    A    
Cr1   O4    S    
C12   H14   S    
C22   C24   A    
Cr2   O14   S    
Cr4   O11   S    
C15   C17   A    
C54   C55   A    
Cr1   O1    S    
C18   H27   S    
C30   C46   S    
Cr5   O7    S    
C25   H4    S    
C15   C44   S    
C32   H8    S    
C28   O19   A    
C4    O15   A    
C43   O2    A    
C32   C33   A    
C2    C3    A    
C2    C56   A    
C3    C53   A    
C26   C40   S    
C30   C31   A    
C20   C26   A    
C28   O18   A    
C4    O14   A    
C10   H20   S    
C22   C47   S    
C35   C41   A    
C27   H5    S    
C35   H9    S    
Cr6   O9    S    
Cr4   O5    S    
C42   O25   A    
C31   H7    S    
Cr1   O18   S    
C46   O6    A    
C20   C21   A    
C16   O1    A    
Cr6   O3    S    
C14   C15   A    
Cr4   O25   S    
Cr2   O13   S    
C13   C14   A    
C36   H10   S    
C54   H16   S    
C38   H11   S    
