data_mof_unit_58881.cif
_audit_creation_date              2012-12-10T17:31:56-0500
_audit_creation_method            fapswitch 2.2
_symmetry_space_group_name_H-M    P1
_symmetry_Int_Tables_number       1
_space_group_crystal_system       triclinic
_cell_length_a                    12.178541
_cell_length_b                    11.50984
_cell_length_c                    12.840884
_cell_angle_alpha                 93.323658
_cell_angle_beta                  92.847974
_cell_angle_gamma                 85.220768
_cell_volume                      1788.84966519

loop_
_atom_site_label
_atom_site_type_symbol
_atom_type_description
_atom_site_fract_x
_atom_site_fract_y
_atom_site_fract_z
_atom_type_partial_charge
C1    C     C_R   0.478423 0.503014 0.300251 0.929719
C2    C     C_R   0.521576 0.496987 0.699749 0.929722
C3    C     C_R   0.040837 0.626926 0.580786 -0.338670
C4    C     C_R   0.959164 0.373074 0.419215 -0.338683
C5    C     C_R   0.155559 0.616278 0.571520 0.127037
C6    C     C_R   0.844441 0.383721 0.428482 0.127031
C7    C     C_R   0.143785 0.441999 0.465204 0.066684
C8    C     C_R   0.856215 0.558002 0.534795 0.066679
C9    C     C_R   0.026018 0.453598 0.470237 0.037356
C10   C     C_R   0.973982 0.546404 0.529763 0.037351
C11   C     C_R   0.500806 0.282207 0.500028 0.930622
C12   C     C_R   0.499194 0.717793 0.499972 0.930606
C13   C     C_1   0.501924 0.161588 0.500762 -0.125075
C14   C     C_1   0.498076 0.838412 0.499238 -0.125099
C15   C     C_1   0.500858 0.059332 0.500569 -0.026240
C16   C     C_1   0.499142 0.940668 0.499431 -0.026254
C17   C     C_R   0.535055 0.484527 0.809945 -0.173876
C18   C     C_R   0.464938 0.515463 0.190053 -0.173882
C19   C     C_R   0.407011 0.630644 0.043457 0.254861
C20   C     C_R   0.592932 0.369311 0.956529 0.254870
C21   C     C_R   0.405856 0.614097 0.150168 0.218764
C22   C     C_R   0.594105 0.385871 0.849822 0.218778
C23   C     C_R   0.521249 0.432358 0.125846 -0.286229
C24   C     C_R   0.478739 0.567628 0.874153 -0.286230
C25   C     C_R   0.528731 0.449673 0.020778 0.026368
C26   C     C_R   0.471235 0.550297 0.979215 0.026368
H1    H     H_    0.440439 0.645238 0.840481 0.176538
H2    H     H_    0.559566 0.354760 0.159524 0.176554
H3    H     H_    0.004317 0.703264 0.623460 0.171679
H4    H     H_    0.995683 0.296735 0.376541 0.171677
N1    N     N_R   0.792200 0.479100 0.480660 -0.127937
N2    N     N_R   0.207800 0.520900 0.519340 -0.127937
O1    O     O_R   0.578300 0.494420 0.341180 -0.628951
O2    O     O_R   0.421700 0.505580 0.658820 -0.628945
O3    O     O_R   0.390690 0.507830 0.353590 -0.594487
O4    O     O_R   0.609310 0.492170 0.646410 -0.594492
O5    O     O_R   0.593810 0.327740 0.493800 -0.594872
O6    O     O_R   0.406190 0.672260 0.506200 -0.594875
O7    O     O_R   0.406190 0.341150 0.506220 -0.620299
O8    O     O_R   0.593810 0.658850 0.493780 -0.620301
Zn1   Zn    Zn3+2 0.625270 0.491050 0.491710 0.972761
Zn2   Zn    Zn3+2 0.374730 0.508950 0.508290 0.972767
Br1   Br    Br    0.670271 0.270027 0.758027 -0.487058
Br2   Br    Br    0.329671 0.729933 0.241955 -0.487052
Br3   Br    Br    0.319284 0.762631 0.988816 -0.518362
Br4   Br    Br    0.680565 0.237259 0.011146 -0.518404
C27   C     C_R   0.804691 0.646732 0.608972 0.150627
C28   C     C_R   0.781518 0.762806 0.581379 -0.161784
C29   C     C_R   0.738032 0.847209 0.654358 -0.142312
C30   C     C_R   0.719432 0.816723 0.755384 -0.091702
C31   C     C_R   0.746384 0.702379 0.784406 -0.154510
C32   C     C_R   0.790690 0.618111 0.712017 -0.098446
H5    H     H_    0.796031 0.787141 0.503342 0.129364
H6    H     H_    0.718332 0.936246 0.632840 0.160490
H7    H     H_    0.685176 0.881985 0.811450 0.170942
H8    H     H_    0.733362 0.679093 0.863070 0.157760
H9    H     H_    0.812904 0.530149 0.735845 0.162741
C33   C     C_R   0.195310 0.353266 0.391030 0.150625
C34   C     C_R   0.209315 0.381883 0.287985 -0.098450
C35   C     C_R   0.253622 0.297613 0.215598 -0.154504
C36   C     C_R   0.280569 0.183269 0.244623 -0.091703
C37   C     C_R   0.261963 0.152785 0.345649 -0.142319
C38   C     C_R   0.218478 0.237192 0.418625 -0.161785
H10   H     H_    0.187103 0.469845 0.264154 0.162761
H11   H     H_    0.266647 0.320896 0.136935 0.157769
H12   H     H_    0.314825 0.118005 0.188558 0.170932
H13   H     H_    0.281659 0.063749 0.367168 0.160479
H14   H     H_    0.203960 0.212859 0.496662 0.129364
C39   C     C_R   0.788559 0.277814 0.398316 0.148113
C40   C     C_R   0.808305 0.180417 0.459887 -0.117812
C41   C     C_R   0.765335 0.074755 0.427851 -0.134254
C42   C     C_R   0.700527 0.066052 0.335477 -0.104386
C43   C     C_R   0.680363 0.162548 0.274237 -0.129937
C44   C     C_R   0.727414 0.267247 0.303722 -0.101457
H15   H     H_    0.858475 0.186016 0.531804 0.148755
H16   H     H_    0.782094 0.999828 0.474652 0.127762
H17   H     H_    0.665700 0.984671 0.311522 0.150809
H18   H     H_    0.629170 0.154925 0.203557 0.178964
H19   H     H_    0.718309 0.339372 0.253030 0.159960
C45   C     C_R   0.211444 0.722183 0.601690 0.148104
C46   C     C_R   0.191701 0.819583 0.540122 -0.117815
C47   C     C_R   0.234673 0.925242 0.572161 -0.134267
C48   C     C_R   0.299480 0.933941 0.664536 -0.104382
C49   C     C_R   0.319640 0.837442 0.725774 -0.129923
C50   C     C_R   0.272587 0.732746 0.696284 -0.101429
H20   H     H_    0.141535 0.813987 0.468203 0.148763
H21   H     H_    0.217919 0.000170 0.525362 0.127764
H22   H     H_    0.334308 0.015319 0.688495 0.150817
H23   H     H_    0.370831 0.845062 0.796455 0.178938
H24   H     H_    0.281692 0.660618 0.746973 0.159991

loop_
_geom_bond_atom_site_label_1
_geom_bond_atom_site_label_2
_ccdc_geom_bond_type
C6    C39   S    
C18   C21   A    
C43   C44   A    
O2    Zn2   S    
C24   H1    S    
C46   C47   A    
C1    O1    A    
C34   H10   S    
C45   C50   A    
C37   H13   S    
C19   C21   A    
C24   C26   A    
O6    Zn2   S    
C41   H16   S    
C20   C25   A    
C47   H21   S    
C19   C26   A    
C11   O5    A    
C31   H8    S    
C3    H3    S    
O3    Zn2   S    
C36   H12   S    
C27   C28   A    
C43   H18   S    
C40   C41   A    
C9    C10   A    
C7    C33   S    
C46   H20   S    
C5    N2    A    
C2    O2    A    
C48   H22   S    
C34   C35   A    
C2    C17   S    
C12   O6    A    
O4    Zn1   S    
C36   C37   A    
O7    Zn2   S    
C28   H5    S    
C17   C24   A    
C15   C16   S    
C18   C23   A    
C49   C50   A    
C4    C6    A    
C45   C46   A    
C25   C26   A    
C31   C32   A    
C35   C36   A    
C12   O8    A    
C42   H17   S    
C21   Br2   S    
C48   C49   A    
C37   C38   A    
C30   C31   A    
C1    C18   S    
C39   C44   A    
C23   H2    S    
C5    C45   S    
C11   O7    A    
O8    Zn1   S    
C12   C14   S    
C35   H11   S    
C29   C30   A    
C44   H19   S    
C13   C15   T    
C14   C16   T    
C49   H23   S    
C1    O3    A    
C2    O4    A    
C33   C38   A    
C7    C9    A    
C38   H14   S    
C28   C29   A    
C7    N2    A    
N1    Zn1   S    
C8    N1    A    
C17   C22   A    
C20   C22   A    
C42   C43   A    
C3    C5    A    
C50   H24   S    
C19   Br3   S    
C27   C32   A    
C30   H7    S    
O1    Zn1   S    
C33   C34   A    
C8    C27   S    
C41   C42   A    
C3    C10   A    
C11   C13   S    
C6    N1    A    
C23   C25   A    
O5    Zn1   S    
C39   C40   A    
C4    H4    S    
C32   H9    S    
C8    C10   A    
C47   C48   A    
C40   H15   S    
N2    Zn2   S    
C4    C9    A    
C22   Br1   S    
C20   Br4   S    
C29   H6    S    
