data_mof_unit_33364.cif
_audit_creation_date              2012-12-10T17:48:58-0500
_audit_creation_method            fapswitch 2.2
_symmetry_space_group_name_H-M    P1
_symmetry_Int_Tables_number       1
_space_group_crystal_system       triclinic
_cell_length_a                    10.770629
_cell_length_b                    14.753015
_cell_length_c                    14.777502
_cell_angle_alpha                 64.661237
_cell_angle_beta                  104.994479
_cell_angle_gamma                 103.276875
_cell_volume                      2030.856425

loop_
_atom_site_label
_atom_site_type_symbol
_atom_type_description
_atom_site_fract_x
_atom_site_fract_y
_atom_site_fract_z
_atom_type_partial_charge
C1    C     C_R   0.478686 0.119817 0.311977 0.910975
C2    C     C_3   0.877434 0.006670 0.490799 -0.478630
C3    C     C_3   0.939381 0.923693 0.590051 0.434796
C4    C     C_3   0.959177 0.113874 0.479438 0.808571
C5    C     C_R   0.474010 0.187041 0.203764 -0.215716
C6    C     C_R   0.515387 0.812015 0.795904 -0.208010
C7    C     C_R   0.511818 0.217755 0.037538 0.436858
C8    C     C_R   0.489959 0.150616 0.134705 -0.184969
C9    C     C_R   0.464425 0.290003 0.170794 0.661878
C10   C     C_R   0.469473 0.356593 0.069012 -0.036935
C11   C     C_R   0.509749 0.322259 0.006687 -0.094455
C12   C     C_R   0.259450 0.004015 0.493083 0.920764
C13   C     C_R   0.451280 0.459593 0.032259 -0.077678
C14   C     C_R   0.508513 0.532284 0.948513 -0.025046
C15   C     C_R   0.572674 0.497024 0.898813 0.371215
C16   C     C_R   0.559925 0.393772 0.921156 -0.114352
C17   C     C_R   0.372838 0.491445 0.073753 0.400895
C18   C     C_R   0.383974 0.593926 0.056255 0.341123
C19   C     C_R   0.458020 0.667223 0.984241 -0.166437
C20   C     C_R   0.499838 0.636367 0.919554 -0.002725
C21   C     C_R   0.476986 0.771785 0.965148 0.429747
C22   C     C_R   0.502588 0.844314 0.869940 0.334697
C23   C     C_R   0.517675 0.880297 0.688069 0.884810
C24   C     C_R   0.516569 0.709000 0.822911 -0.134504
C25   C     C_R   0.726387 0.293298 0.659277 -0.152100
C26   C     C_R   0.683845 0.205954 0.640160 0.598078
C27   C     C_R   0.518249 0.285604 0.506146 0.125936
C28   C     C_R   0.550654 0.374513 0.528133 -0.073507
C29   C     C_R   0.663727 0.378812 0.601371 -0.149449
C30   C     C_R   0.479283 0.459904 0.479470 -0.102763
C31   C     C_R   0.532014 0.550906 0.497741 -0.102570
C32   C     C_R   0.660450 0.557060 0.553133 0.408838
C33   C     C_R   0.718684 0.469976 0.611750 0.600560
C34   C     C_R   0.739501 0.002769 0.495977 0.992410
C35   C     C_R   0.356898 0.458107 0.414696 0.651586
C36   C     C_R   0.294662 0.543763 0.363664 0.009596
C37   C     C_R   0.342913 0.631150 0.382779 -0.287279
C38   C     C_R   0.456225 0.633106 0.456374 -0.145251
C39   C     C_R   0.274864 0.714970 0.332870 0.565032
C40   C     C_R   0.315344 0.797852 0.360099 0.671882
C41   C     C_R   0.482037 0.714321 0.489676 0.734626
C42   C     C_3   0.027904 0.968556 0.405457 0.832405
C43   C     C_3   0.884870 0.982157 0.398136 0.653395
C44   C     C_3   0.086201 0.935215 0.593522 -0.520529
C45   C     C_3   0.097811 0.116037 0.465570 0.067769
C46   C     C_3   0.120592 0.007026 0.487168 -0.441086
Cu1   Cu    Cu3+1 0.465900 0.918260 0.475680 1.148210
Cu2   Cu    Cu3+1 0.534100 0.081740 0.524320 1.126364
H1    H     H_    0.141161 0.966132 0.651489 0.261512
H2    H     H_    0.603942 0.370011 0.878228 0.220303
H3    H     H_    0.518008 0.684550 0.764272 0.245423
H4    H     H_    0.496243 0.071090 0.158839 0.245872
H5    H     H_    0.202990 0.539179 0.312714 0.258403
H6    H     H_    0.809434 0.294179 0.718998 0.241643
H7    H     H_    0.443769 0.280006 0.443854 0.253731
H8    H     H_    0.115108 0.859091 0.618649 0.238594
H9    H     H_    0.894337 0.847557 0.591041 0.233509
H10   H     H_    0.169365 0.142795 0.521266 0.202155
N1    N     N_R   0.585360 0.204570 0.560800 -0.261619
N2    N     N_R   0.414550 0.795430 0.439160 -0.346153
O1    O     O_R   0.455060 0.022100 0.338110 -0.552337
O2    O     O_R   0.512640 0.160150 0.379180 -0.538970
O3    O     O_R   0.288900 0.930980 0.479450 -0.508342
O4    O     O_R   0.346480 0.069030 0.520520 -0.604303
O5    O     O_R   0.487360 0.839850 0.620820 -0.558018
O6    O     O_R   0.544940 0.977900 0.661890 -0.516303
O7    O     O_R   0.653520 0.930970 0.479480 -0.511269
O8    O     O_R   0.711100 0.069020 0.520550 -0.510176
F1    F     F_    0.033561 0.865776 0.438771 -0.545596
Cl1   Cl    Cl    0.976088 0.144404 0.587848 -0.399055
F2    F     F_    0.917631 0.927691 0.676681 -0.546075
Cl2   Cl    Cl    0.503632 0.973399 0.843142 -0.382659
Cl3   Cl    Cl    0.278823 0.628953 0.106596 -0.382534
Cl4   Cl    Cl    0.548087 0.168042 0.959469 -0.410839
F3    F     F_    0.465598 0.327706 0.240456 -0.612913
Cl5   Cl    Cl    0.078979 0.024440 0.283745 -0.287801
Cl6   Cl    Cl    0.690680 0.572713 0.823041 -0.444030
Cl7   Cl    Cl    0.239786 0.407656 0.127935 -0.318547
Cl8   Cl    Cl    0.483436 0.814102 0.062120 -0.338195
F4    F     F_    0.836884 0.476897 0.671770 -0.572267
F5    F     F_    0.563501 0.708140 0.578199 -0.594279
F6    F     F_    0.252214 0.879915 0.309224 -0.523554
Cl9   Cl    Cl    0.762510 0.100063 0.721223 -0.344249
Cl10  Cl    Cl    0.818486 0.075634 0.278323 -0.385869
Cl11  Cl    Cl    0.766621 0.671891 0.531584 -0.307087
F7    F     F_    0.290657 0.373248 0.402781 -0.610613
F8    F     F_    0.169420 0.716620 0.258337 -0.521120
F9    F     F_    0.807164 0.891938 0.402271 -0.536921
Cl12  Cl    Cl    0.132225 0.208800 0.344504 -0.290748
F10   F     F_    0.897957 0.190171 0.397825 -0.547731

loop_
_geom_bond_atom_site_label_1
_geom_bond_atom_site_label_2
_ccdc_geom_bond_type
C44   H1    S    
C26   Cl9   S    
C40   N2    A    
C3    F2    S    
C19   C20   A    
C39   F8    S    
C1    O2    A    
C4    Cl1   S    
C7    C8    A    
C45   C46   S    
C7    C11   A    
C30   C35   A    
C1    C5    S    
C43   F9    S    
C23   O6    A    
C36   C37   A    
C19   C21   A    
C16   H2    S    
Cu1   O3    S    
C30   C31   A    
C12   O4    A    
C35   F7    S    
C27   H7    S    
Cu2   O4    S    
C6    C23   S    
C15   C16   A    
C6    C22   A    
C29   C33   A    
C18   C19   A    
C42   C46   S    
Cu1   O7    S    
C20   C24   A    
C36   H5    S    
Cu1   N2    S    
Cu1   Cu2   S    
C45   Cl12  S    
C26   N1    A    
C8    H4    S    
C2    C34   S    
C24   H3    S    
C6    C24   A    
C21   C22   A    
C43   Cl10  S    
C22   Cl2   S    
C44   C46   S    
C7    Cl4   S    
C4    F10   S    
C4    C45   S    
C25   C29   A    
C3    C44   S    
C45   H10   S    
C40   F6    S    
C25   H6    S    
C38   C41   A    
C12   C46   S    
C34   O8    A    
C39   C40   A    
C12   O3    A    
C25   C26   A    
C42   F1    S    
C35   C36   A    
C2    C4    S    
C5    C9    A    
C37   C38   A    
C14   C20   A    
C11   C16   A    
C44   H8    S    
Cu2   O2    S    
C31   C32   A    
C2    C43   S    
C41   F5    S    
C21   Cl8   S    
C17   C18   A    
Cu2   O8    S    
C3    H9    S    
C18   Cl3   S    
C42   C43   S    
Cu2   N1    S    
C9    C10   A    
C28   C29   A    
C41   N2    A    
C10   C13   A    
C1    O1    A    
C34   O7    A    
Cu1   O1    S    
C5    C8    A    
C33   F4    S    
C42   Cl5   S    
C31   C38   A    
C13   C17   A    
C32   C33   A    
C23   O5    A    
C28   C30   A    
C2    C3    S    
C37   C39   A    
C27   N1    A    
C15   Cl6   S    
C32   Cl11  S    
C17   Cl7   S    
C10   C11   A    
C27   C28   A    
C14   C15   A    
C9    F3    S    
Cu2   O6    S    
C13   C14   A    
Cu1   O5    S    
