data_mof_unit_27994.cif
_audit_creation_date              2012-10-26T18:43:47-0400
_audit_creation_method            fapswitch 2.2
_symmetry_space_group_name_H-M    P1
_symmetry_Int_Tables_number       1
_space_group_crystal_system       triclinic
_cell_length_a                    9.59154
_cell_length_b                    10.804576
_cell_length_c                    17.168071
_cell_angle_alpha                 91.313181
_cell_angle_beta                  86.29107
_cell_angle_gamma                 91.06766
_cell_volume                      1774.71552408

loop_
_atom_site_label
_atom_site_type_symbol
_atom_type_description
_atom_site_fract_x
_atom_site_fract_y
_atom_site_fract_z
_atom_type_partial_charge
C1    C     C_R   0.500248 0.737446 0.502506 0.523603
C2    C     C_R   0.525316 0.531878 0.266699 0.008739
C3    C     C_R   0.401829 0.932166 0.465395 0.063367
C4    C     C_R   0.482041 0.499665 0.650233 0.532937
C5    C     C_R   0.497105 0.871178 0.508312 -0.033478
C6    C     C_R   0.576218 0.941410 0.561007 -0.018803
C7    C     C_R   0.578248 0.071225 0.556475 -0.097071
C8    C     C_R   0.495213 0.129854 0.504469 -0.029292
C9    C     C_R   0.399781 0.059145 0.463783 0.054295
C10   C     C_3   0.361136 0.059230 0.380020 -0.024792
C11   C     C_3   0.366564 0.916148 0.381889 -0.094785
C12   C     C_R   0.346280 0.525011 0.778062 -0.115277
C13   C     C_R   0.930961 0.425962 0.448418 0.188775
C14   C     C_R   0.923484 0.562051 0.556742 0.343033
C15   C     C_R   0.070875 0.560106 0.556676 0.104825
C16   C     C_R   0.498900 0.262694 0.499743 0.530939
C17   C     C_R   0.078106 0.428329 0.447483 0.182045
C18   C     C_3   0.093304 0.436403 0.360815 -0.168450
C19   C     C_3   0.935251 0.428933 0.361285 0.073885
C20   C     C_R   0.517844 0.505690 0.350097 0.525824
C21   C     C_R   0.473109 0.499614 0.735695 0.016532
C22   C     C_R   0.592470 0.475406 0.775686 -0.088132
C23   C     C_R   0.422409 0.629833 0.158103 0.063253
C24   C     C_R   0.585681 0.478615 0.856790 -0.075104
C25   C     C_R   0.460315 0.508383 0.898724 0.060028
C26   C     C_R   0.340032 0.529273 0.859353 -0.086306
C27   C     C_2   0.647677 0.882478 0.623916 0.276802
C28   C     C_2   0.218098 0.111436 0.370617 0.237702
C29   C     C_2   0.471233 0.120177 0.325994 0.189665
C30   C     C_2   0.229523 0.848235 0.371301 0.238633
C31   C     C_2   0.626529 0.695674 0.985877 0.229445
C32   C     C_2   0.305671 0.703173 0.131238 0.264280
C33   C     C_R   0.418142 0.599620 0.236854 -0.147333
C34   C     C_R   0.640332 0.496646 0.217582 -0.117499
C35   C     C_R   0.645354 0.524300 0.138721 -0.124759
C36   C     C_R   0.536358 0.588708 0.108304 0.054924
C37   C     C_2   0.454518 0.515850 0.984602 0.263316
C38   C     C_2   0.536196 0.597272 0.023177 0.076257
Cu1   Cu    Cu3+1 0.359330 0.500020 0.500000 0.999330
Cu2   Cu    Cu3+1 0.640670 0.499980 0.500000 0.970009
H1    H     H_    0.691099 0.454112 0.744395 0.161976
H2    H     H_    0.724323 0.445159 0.239487 0.149721
H3    H     H_    0.242342 0.550910 0.891563 0.147405
H4    H     H_    0.252746 0.543567 0.748490 0.139671
H5    H     H_    0.678501 0.459905 0.887006 0.117565
H6    H     H_    0.612269 0.792377 0.644358 0.110554
H7    H     H_    0.178558 0.113978 0.312872 0.127534
H8    H     H_    0.498190 0.217209 0.335055 0.110887
H9    H     H_    0.191247 0.839589 0.313321 0.084996
H10   H     H_    0.769341 0.657642 0.596250 0.372318
H11   H     H_    0.787980 0.309391 0.342722 0.349108
H12   H     H_    0.732299 0.491966 0.100657 0.119944
H13   H     H_    0.707156 0.740040 0.018796 0.120541
H14   H     H_    0.214557 0.720374 0.170610 0.087515
H15   H     H_    0.319648 0.379264 0.990344 0.332318
H16   H     H_    0.642019 0.126747 0.594306 0.180867
H17   H     H_    0.454224 0.873705 0.345678 0.133697
H18   H     H_    0.123486 0.611970 0.601141 0.156443
H19   H     H_    0.135882 0.527774 0.341516 0.106923
H20   H     H_    0.331754 0.631180 0.275506 0.094896
H21   H     H_    0.147047 0.355443 0.332494 0.177755
H22   H     H_    0.888085 0.511873 0.337114 0.137448
N1    N     N_R   0.852130 0.499070 0.499500 -0.274633
N2    N     N_R   0.148040 0.499110 0.499500 -0.274787
O1    O     O_R   0.381190 0.680360 0.500000 -0.458180
O2    O     O_2   0.144989 0.148735 0.426874 -0.452410
O3    O     O_2   0.528101 0.063250 0.270845 -0.485784
O4    O     O_2   0.160963 0.803252 0.426375 -0.457933
O5    O     O_3   0.857092 0.630823 0.615484 -0.681130
O6    O     O_3   0.889829 0.315996 0.328964 -0.674974
O7    O     O_2   0.608704 0.732156 0.920549 -0.457522
O8    O     O_2   0.310005 0.747355 0.066314 -0.465553
O9    O     O_3   0.367243 0.435142 0.027237 -0.686029
O10   O     O_R   0.618770 0.680320 0.499990 -0.528115
O11   O     O_R   0.367430 0.500040 0.613600 -0.517480
O12   O     O_R   0.605020 0.500000 0.613590 -0.508662
O13   O     O_R   0.381230 0.319680 0.500010 -0.463015
O14   O     O_R   0.618810 0.319640 0.500000 -0.499159
O15   O     O_R   0.394980 0.500000 0.386410 -0.512628
O16   O     O_R   0.632570 0.499960 0.386400 -0.526975
O17   O     O_2   0.743518 0.935359 0.655249 -0.446472

loop_
_geom_bond_atom_site_label_1
_geom_bond_atom_site_label_2
_ccdc_geom_bond_type
C28   H7    S    
C35   C36   A    
C34   H2    S    
C7    C8    A    
C32   O8    D    
Cu1   N2    S    
Cu2   N1    S    
C1    C5    S    
C1    O10   A    
Cu1   O13   S    
H10   O5    S    
C16   O13   A    
C17   N2    A    
C5    C6    A    
C22   H1    S    
C19   H22   S    
C34   C35   A    
C4    O11   A    
C25   C37   S    
C29   O3    D    
C11   C30   S    
C8    C9    A    
C23   C33   A    
C1    O1    A    
C15   N2    A    
Cu2   O16   S    
H11   O6    S    
Cu1   O11   S    
C9    C10   S    
C16   O14   A    
C2    C34   A    
C31   O7    D    
C8    C16   S    
C21   C22   A    
Cu1   O1    S    
C7    H16   S    
C32   H14   S    
C26   H3    S    
C13   C19   S    
C29   H8    S    
C2    C20   S    
C27   O17   D    
C24   C25   A    
Cu1   Cu2   S    
C20   O16   A    
C18   C19   S    
C25   C26   A    
C12   C21   A    
Cu2   O12   S    
C12   C26   A    
Cu1   O15   S    
C28   O2    D    
C37   C38   D    
C3    C9    A    
C6    C27   S    
C13   N1    A    
C17   C18   S    
C31   H13   S    
C27   H6    S    
C30   H9    S    
C33   H20   S    
C14   O5    S    
C22   C24   A    
C24   H5    S    
C2    C33   A    
C10   C28   S    
C37   O9    S    
C20   O15   A    
C3    C5    A    
C18   H21   S    
C6    C7    A    
C31   C38   S    
C13   C17   A    
C23   C32   S    
C36   C38   S    
C12   H4    S    
C4    C21   S    
C10   C29   S    
C14   N1    A    
C15   H18   S    
Cu2   O10   S    
Cu2   O14   S    
C4    O12   A    
C3    C11   S    
C10   C11   S    
H15   O9    S    
C18   H19   S    
C23   C36   A    
C35   H12   S    
C14   C15   A    
C19   O6    S    
C11   H17   S    
C30   O4    D    
