data_mof_unit_26480.cif
_audit_creation_date              2012-12-10T18:47:00-0500
_audit_creation_method            fapswitch 2.2
_symmetry_space_group_name_H-M    P1
_symmetry_Int_Tables_number       1
_space_group_crystal_system       triclinic
_cell_length_a                    10.595346
_cell_length_b                    9.993521
_cell_length_c                    14.923134
_cell_angle_alpha                 90.241242
_cell_angle_beta                  91.307442
_cell_angle_gamma                 89.860147
_cell_volume                      1579.70352028

loop_
_atom_site_label
_atom_site_type_symbol
_atom_type_description
_atom_site_fract_x
_atom_site_fract_y
_atom_site_fract_z
_atom_type_partial_charge
C1    C     C_R   0.260995 0.500165 0.500412 0.916348
C2    C     C_R   0.739004 0.499835 0.499587 0.916347
C3    C     C_R   0.351225 0.310912 0.042781 0.097086
C4    C     C_R   0.648769 0.689093 0.957219 0.097088
C5    C     C_R   0.063682 0.463517 0.421496 0.083323
C6    C     C_R   0.936318 0.536483 0.578504 0.083323
C7    C     C_R   0.933125 0.463000 0.420815 0.016699
C8    C     C_R   0.066875 0.536999 0.579185 0.016699
C9    C     C_R   0.871547 0.499525 0.499551 -0.115450
C10   C     C_R   0.128453 0.500475 0.500449 -0.115449
C11   C     C_R   0.565412 0.071285 0.564590 0.134460
C12   C     C_R   0.434588 0.928715 0.435410 0.134460
C13   C     C_R   0.434778 0.070650 0.435375 0.136176
C14   C     C_R   0.565222 0.929350 0.564625 0.136176
C15   C     C_R   0.499258 0.499896 0.327205 0.882869
C16   C     C_R   0.500742 0.500104 0.672795 0.882868
C17   C     C_R   0.574755 0.593185 0.815314 -0.251562
C18   C     C_R   0.425244 0.406815 0.184686 -0.251563
C19   C     C_R   0.501486 0.499790 0.768426 -0.071502
C20   C     C_R   0.498512 0.500210 0.231573 -0.071499
C21   C     C_R   0.429602 0.405151 0.812330 -0.258408
C22   C     C_R   0.570395 0.594852 0.187669 -0.258409
C23   C     C_R   0.428206 0.404870 0.904945 0.111542
C24   C     C_R   0.571789 0.595135 0.095055 0.111544
C25   C     C_R   0.500971 0.499986 0.953397 0.017014
C26   C     C_R   0.499024 0.500019 0.046603 0.017017
C27   C     C_R   0.575662 0.594824 0.908412 0.110574
C28   C     C_R   0.424334 0.405179 0.091588 0.110570
C29   C     C_R   0.354434 0.311451 0.949279 -0.254808
C30   C     C_R   0.645559 0.688554 0.050720 -0.254815
H1    H     H_    0.632270 0.662513 0.778699 0.165203
H2    H     H_    0.367731 0.337485 0.221302 0.165199
H3    H     H_    0.373314 0.333347 0.774149 0.146889
H4    H     H_    0.626683 0.666656 0.225850 0.146890
H5    H     H_    0.298754 0.239412 0.911000 0.144172
H6    H     H_    0.701240 0.760592 0.089000 0.144173
N1    N     N_R   0.500000 0.857200 0.500000 -0.149701
N2    N     N_R   0.500000 0.142800 0.500000 -0.149701
O1    O     O_R   0.316770 0.614620 0.499990 -0.637238
O2    O     O_R   0.683230 0.385380 0.500010 -0.637238
O3    O     O_R   0.683230 0.614620 0.500010 -0.622252
O4    O     O_R   0.316770 0.385380 0.499990 -0.622253
O5    O     O_R   0.499980 0.614680 0.367850 -0.639340
O6    O     O_R   0.500020 0.385320 0.632150 -0.639340
O7    O     O_R   0.500020 0.614680 0.632150 -0.638056
O8    O     O_R   0.499980 0.385320 0.367850 -0.638057
Zn1   Zn    Zn3+2 0.500000 0.653120 0.500000 0.916828
Zn2   Zn    Zn3+2 0.500000 0.346880 0.500000 0.916827
N3    N     N_3   0.274741 0.214960 0.088204 -0.459750
H7    H     H_    0.236366 0.145479 0.042696 0.187322
H8    H     H_    0.198583 0.266884 0.115170 0.178655
N4    N     N_3   0.725251 0.785044 0.911796 -0.459750
H9    H     H_    0.763605 0.854550 0.957301 0.187322
H10   H     H_    0.801423 0.733123 0.884842 0.178659
N5    N     N_3   0.131563 0.428736 0.342438 -0.477647
H11   H     H_    0.104236 0.494379 0.291150 0.198992
H12   H     H_    0.105731 0.331823 0.322897 0.200446
N6    N     N_3   0.868437 0.571262 0.657562 -0.477646
H13   H     H_    0.895757 0.505610 0.708847 0.198989
H14   H     H_    0.894276 0.668172 0.677108 0.200450
N7    N     N_3   0.864728 0.428045 0.339875 -0.467711
H15   H     H_    0.809106 0.344187 0.352220 0.207660
H16   H     H_    0.805289 0.507764 0.322110 0.176314
N8    N     N_3   0.135271 0.571952 0.660125 -0.467711
H17   H     H_    0.190895 0.655809 0.647781 0.207660
H18   H     H_    0.194710 0.492232 0.677889 0.176314
N9    N     N_3   0.632706 0.137150 0.636175 -0.436401
H19   H     H_    0.686926 0.214590 0.611189 0.234753
H20   H     H_    0.567797 0.172919 0.682051 0.212203
N10   N     N_3   0.367294 0.862850 0.363825 -0.436400
H21   H     H_    0.313074 0.785410 0.388811 0.234754
H22   H     H_    0.432203 0.827081 0.317949 0.212203
N11   N     N_3   0.369771 0.135815 0.362900 -0.441920
H23   H     H_    0.316756 0.215394 0.386974 0.237232
H24   H     H_    0.437072 0.168783 0.318212 0.208984
N12   N     N_3   0.630229 0.864185 0.637100 -0.441920
H25   H     H_    0.683244 0.784606 0.613026 0.237234
H26   H     H_    0.562929 0.831217 0.681787 0.208985

loop_
_geom_bond_atom_site_label_1
_geom_bond_atom_site_label_2
_ccdc_geom_bond_type
N5    H11   S    
N11   H23   S    
C6    N6    S    
C6    C9    A    
C3    N3    S    
C4    N4    S    
C23   C29   A    
C3    C28   A    
C19   C21   A    
C24   C26   A    
C11   C14   A    
C21   H3    S    
C2    O3    A    
N6    H14   S    
O2    Zn2   S    
C12   N1    A    
C3    C29   A    
C7    N7    S    
C11   N9    S    
N3    H8    S    
N10   H21   S    
N1    Zn1   S    
C16   O6    A    
N2    Zn2   S    
N11   H24   S    
N4    H10   S    
O7    Zn1   S    
C15   C20   S    
C22   H4    S    
O8    Zn2   S    
N12   H26   S    
N9    H19   S    
C17   C27   A    
C18   C28   A    
N12   H25   S    
C5    C7    A    
C6    C8    A    
N6    H13   S    
N9    H20   S    
N8    H18   S    
C11   N2    A    
N7    H16   S    
O3    Zn1   S    
O4    Zn2   S    
C13   N2    A    
C8    N8    S    
C20   C22   A    
N5    H12   S    
C17   H1    S    
C22   C24   A    
C18   H2    S    
C4    C27   A    
N4    H9    S    
O1    Zn1   S    
C7    C9    A    
C12   N10   S    
C5    N5    S    
C1    C10   S    
C13   N11   S    
C16   O7    A    
C25   C27   A    
C29   H5    S    
C26   C28   A    
C30   H6    S    
N8    H17   S    
C21   C23   A    
C25   C26   A    
C15   O5    A    
C5    C10   A    
C14   N1    A    
C16   C19   S    
C17   C19   A    
C18   C20   A    
C23   C25   A    
N7    H15   S    
C24   C30   A    
C1    O1    A    
C2    O2    A    
C1    O4    A    
C12   C13   A    
C8    C10   A    
N3    H7    S    
N10   H22   S    
C15   O8    A    
C2    C9    S    
O5    Zn1   S    
C4    C30   A    
O6    Zn2   S    
C14   N12   S    
