data_mof_unit_47701.cif
_audit_creation_date              2012-12-11T16:08:30-0500
_audit_creation_method            fapswitch 2.2
_symmetry_space_group_name_H-M    P1
_symmetry_Int_Tables_number       1
_space_group_crystal_system       triclinic
_cell_length_a                    12.959976
_cell_length_b                    13.285537
_cell_length_c                    27.558561
_cell_angle_alpha                 95.234572
_cell_angle_beta                  90.321569
_cell_angle_gamma                 118.929198
_cell_volume                      4128.88354209

loop_
_atom_site_label
_atom_site_type_symbol
_atom_type_description
_atom_site_fract_x
_atom_site_fract_y
_atom_site_fract_z
_atom_type_partial_charge
C1    C     C_R   0.628917 0.893482 0.428148 0.574796
C2    C     C_R   0.169533 0.746545 0.297474 -0.034603
C3    C     C_3   0.440815 0.210492 0.909660 -0.047862
C4    C     C_3   0.422610 0.464169 0.812563 -0.060228
C5    C     C_2   0.490671 0.357598 0.625568 0.259713
C6    C     C_3   0.100980 0.585102 0.683643 -0.074586
C7    C     C_3   0.866431 0.620856 0.782588 -0.084896
C8    C     C_2   0.234606 0.044709 0.817606 0.269889
C9    C     C_2   0.250614 0.060541 0.711927 0.229607
C10   C     C_2   0.884956 0.944507 0.702120 0.197571
C11   C     C_2   0.894101 0.937699 0.807180 0.192029
C12   C     C_2   0.439088 0.686378 0.698811 0.206068
C13   C     C_R   0.179945 0.751504 0.195362 -0.019534
C14   C     C_2   0.241872 0.698547 0.114589 0.300354
C15   C     C_2   0.142834 0.640117 0.372049 0.248294
C16   C     C_3   0.009842 0.486502 0.176108 -0.112450
C17   C     C_2   0.135199 0.009908 0.129995 0.255045
C18   C     C_R   0.600922 0.222169 0.440755 0.554855
C19   C     C_R   0.157498 0.650354 0.216365 0.232777
C20   C     C_R   0.152026 0.648780 0.266586 -0.077365
C21   C     C_R   0.186541 0.756561 0.144752 -0.018371
C22   C     C_R   0.147941 0.825971 0.123961 0.024556
C23   C     C_R   0.187245 0.938563 0.357821 0.258141
C24   C     C_R   0.196942 0.943633 0.306810 0.027319
C25   C     C_R   0.186781 0.846847 0.276639 -0.019223
C26   C     C_R   0.619532 0.384972 0.233491 -0.104806
C27   C     C_R   0.218540 0.044792 0.285446 0.041825
C28   C     C_R   0.220103 0.045857 0.234126 -0.027617
C29   C     C_R   0.191633 0.942333 0.203644 -0.065193
C30   C     C_R   0.265800 0.874942 0.425812 0.529976
C31   C     C_R   0.186348 0.847176 0.225309 -0.009168
C32   C     C_R   0.161627 0.926935 0.152495 -0.041006
C33   C     C_R   0.196323 0.849170 0.378582 -0.006513
C34   C     C_R   0.765484 0.910923 0.361434 0.026551
C35   C     C_R   0.770164 0.904525 0.310181 0.004911
C36   C     C_R   0.766698 0.905209 0.208332 0.015786
C37   C     C_R   0.613851 0.370871 0.283077 -0.101631
C38   C     C_R   0.868101 0.983514 0.237348 -0.123414
C39   C     C_R   0.871579 0.980161 0.287388 -0.130083
C40   C     C_R   0.763486 0.909395 0.158229 0.234687
C41   C     C_R   0.679991 0.810387 0.128124 0.009805
C42   C     C_R   0.627751 0.898873 0.564723 0.546089
C43   C     C_R   0.558736 0.760512 0.352569 -0.147072
C44   C     C_R   0.564922 0.747290 0.302310 0.004257
C45   C     C_R   0.668249 0.823377 0.280701 0.055340
C46   C     C_R   0.465543 0.665691 0.273197 -0.105885
C47   C     C_R   0.467915 0.658747 0.222580 -0.128196
C48   C     C_R   0.668718 0.314665 0.303427 0.050512
C49   C     C_R   0.569612 0.734850 0.199807 -0.039805
C50   C     C_R   0.668631 0.820113 0.229528 0.010094
C51   C     C_R   0.576654 0.727152 0.148420 -0.051334
C52   C     C_R   0.654485 0.848966 0.381567 0.009193
C53   C     C_R   0.748862 0.308869 0.651824 0.001112
C54   C     C_R   0.604909 0.230409 0.578230 0.546199
C55   C     C_R   0.755453 0.318807 0.703435 -0.038142
C56   C     C_R   0.762515 0.330929 0.806432 0.014842
C57   C     C_R   0.854534 0.327834 0.780874 0.312524
C58   C     C_R   0.851211 0.323387 0.730025 -0.083701
C59   C     C_R   0.679757 0.342580 0.203586 0.015846
C60   C     C_R   0.772443 0.353238 0.857385 -0.159690
C61   C     C_R   0.681979 0.360249 0.882282 -0.055005
C62   C     C_R   0.570951 0.329211 0.652970 -0.014330
C63   C     C_R   0.573180 0.332608 0.704233 -0.041894
C64   C     C_R   0.663220 0.323114 0.729235 -0.006328
C65   C     C_R   0.487163 0.344476 0.731143 -0.093724
C66   C     C_R   0.270395 0.879200 0.562904 0.549062
C67   C     C_R   0.483725 0.338894 0.781339 0.272655
C68   C     C_R   0.570936 0.325911 0.806359 0.005381
C69   C     C_R   0.664590 0.324650 0.780544 -0.087281
C70   C     C_1   0.691556 0.364898 0.153308 -0.068063
C71   C     C_R   0.572684 0.324283 0.857216 0.264034
C72   C     C_R   0.647757 0.299216 0.626976 -0.008580
C73   C     C_1   0.213469 0.860337 0.608116 0.028564
C74   C     C_R   0.079311 0.735978 0.716007 0.290679
C75   C     C_R   0.057397 0.729345 0.765707 0.261943
C76   C     C_R   0.181104 0.938394 0.782621 -0.054683
C77   C     C_R   0.193872 0.946518 0.731769 -0.077339
C78   C     C_1   0.632519 0.268752 0.394988 0.063728
C79   C     C_R   0.148153 0.844338 0.699077 -0.023530
C80   C     C_R   0.117414 0.828170 0.799388 -0.032531
C81   C     C_1   0.652088 0.294658 0.353990 0.048468
C82   C     C_1   0.108863 0.812967 0.850836 0.054986
C83   C     C_1   0.177701 0.850166 0.648581 0.012510
C84   C     C_1   0.092760 0.794509 0.892915 0.048179
C85   C     C_1   0.646111 0.863533 0.609961 0.063417
C86   C     C_R   0.773755 0.878095 0.727299 -0.044917
C87   C     C_R   0.777935 0.877186 0.778741 -0.033323
C88   C     C_R   0.563950 0.755444 0.775122 -0.182725
C89   C     C_R   0.557936 0.754980 0.724473 0.001203
C90   C     C_R   0.730275 0.271400 0.273334 0.029516
C91   C     C_R   0.663031 0.819031 0.700431 0.051168
C92   C     C_1   0.702598 0.392906 0.112519 -0.021873
C93   C     C_R   0.671441 0.815416 0.802201 0.020917
C94   C     C_1   0.672306 0.801744 0.853453 -0.002988
C95   C     C_1   0.655563 0.839846 0.650286 0.078489
C96   C     C_1   0.683937 0.790072 0.895563 0.027928
C97   C     C_R   0.069319 0.775675 0.078481 0.585366
C98   C     C_R   0.716917 0.440743 0.066983 0.531529
C99   C     C_R   0.719410 0.784099 0.080670 0.566325
C100  C     C_R   0.055494 0.765596 0.940944 0.553996
C101  C     C_R   0.708833 0.430382 0.929812 0.534108
C102  C     C_R   0.734806 0.286315 0.223416 -0.150064
C103  C     C_R   0.170605 0.746503 0.348663 -0.027839
C104  C     C_R   0.715722 0.776303 0.943235 0.545878
C105  C     C_2   0.791259 0.210751 0.291569 0.221943
C106  C     C_2   0.268385 0.158454 0.212988 0.213370
C107  C     C_2   0.254757 0.154488 0.316621 0.291654
C108  C     C_3   0.179383 0.070180 0.417896 -0.049126
C109  C     C_3   0.801656 0.067136 0.120090 -0.094830
C110  C     C_2   0.873371 0.984104 0.393949 0.305509
C111  C     C_2   0.478723 0.631890 0.116570 0.237926
C112  C     C_2   0.846113 0.307538 0.623837 0.254327
C113  C     C_3   0.942993 0.227381 0.804109 -0.090989
Cr1   Cr    Cr6+3 0.416430 0.829200 0.492370 1.085321
Cr2   Cr    Cr6+3 0.674630 0.087020 0.504170 1.115159
Cr3   Cr    Cr6+3 0.408920 0.083740 0.503490 1.043992
Cr4   Cr    Cr6+3 0.914010 0.832750 0.013970 1.121106
Cr5   Cr    Cr6+3 0.922310 0.578600 0.003000 1.062449
Cr6   Cr    Cr6+3 0.656280 0.574630 0.003870 1.093147
H1    H     H_    0.946340 0.046642 0.221401 0.171722
H2    H     H_    0.577522 0.429697 0.218514 0.133201
H3    H     H_    0.483823 0.707176 0.793811 0.090048
H4    H     H_    0.565702 0.403262 0.305586 0.160402
H5    H     H_    0.131622 0.568128 0.280380 0.188757
H6    H     H_    0.837709 0.181513 0.266378 0.111893
H7    H     H_    0.326855 0.175166 0.183126 0.141956
H8    H     H_    0.194275 0.188975 0.320965 0.140033
H9    H     H_    0.276376 0.118839 0.414352 0.182103
H10   H     H_    0.157827 0.033892 0.453485 0.174260
H11   H     H_    0.147471 0.133977 0.417687 0.127477
H12   H     H_    0.952918 0.041362 0.307603 0.116169
H13   H     H_    0.751691 0.089160 0.147871 0.100206
H14   H     H_    0.743237 0.018588 0.086924 0.140857
H15   H     H_    0.873795 0.149549 0.109435 0.147590
H16   H     H_    0.939648 0.068353 0.385108 0.115889
H17   H     H_    0.429792 0.546041 0.128227 0.111975
H18   H     H_    0.888292 0.258937 0.634448 0.097670
H19   H     H_    0.860952 0.165608 0.820638 0.139352
H20   H     H_    0.946158 0.192995 0.766126 0.105933
H21   H     H_    0.019126 0.234463 0.825725 0.204791
H22   H     H_    0.504207 0.232382 0.941263 0.113195
H23   H     H_    0.388315 0.594993 0.201858 0.141652
H24   H     H_    0.432287 0.133111 0.886702 0.091844
H25   H     H_    0.353809 0.187355 0.924630 0.201193
H26   H     H_    0.418126 0.496343 0.777188 0.091432
H27   H     H_    0.511078 0.519599 0.831762 0.118479
H28   H     H_    0.356422 0.471628 0.835731 0.169011
H29   H     H_    0.526844 0.420168 0.599161 0.131311
H30   H     H_    0.106308 0.556969 0.719966 0.145901
H31   H     H_    0.190891 0.644380 0.672241 0.131885
H32   H     H_    0.062469 0.507136 0.656792 0.180097
H33   H     H_    0.822236 0.594449 0.745384 0.161421
H34   H     H_    0.385033 0.608014 0.289604 0.165288
H35   H     H_    0.871597 0.703894 0.797915 0.098383
H36   H     H_    0.810470 0.556155 0.806881 0.138560
H37   H     H_    0.315851 0.119150 0.809585 0.178549
H38   H     H_    0.306348 0.074901 0.681212 0.136352
H39   H     H_    0.957732 0.022658 0.720506 0.127103
H40   H     H_    0.973373 0.949283 0.789999 0.137650
H41   H     H_    0.361224 0.649984 0.719989 0.086722
H42   H     H_    0.269887 0.643473 0.130288 0.170613
H43   H     H_    0.080305 0.614522 0.400534 0.130389
H44   H     H_    0.981947 0.534036 0.152694 0.135485
H45   H     H_    0.783009 0.255759 0.200013 0.080069
H46   H     H_    0.958532 0.467028 0.209441 0.122828
H47   H     H_    0.988647 0.402856 0.155121 0.149850
H48   H     H_    0.081508 0.042015 0.148467 0.157790
H49   H     H_    0.475075 0.708972 0.368410 0.171517
H50   H     H_    0.854037 0.374520 0.877261 0.195675
H51   H     H_    0.926030 0.325432 0.712147 0.102678
H52   H     H_    0.419316 0.356127 0.713969 0.210418
O1    O     O_R   0.296680 0.802170 0.437540 -0.489669
O2    O     O_R   0.637200 0.461990 0.052510 -0.498956
O3    O     O_R   0.664790 0.681920 0.057970 -0.467680
O4    O     O_R   0.525380 0.838530 0.443500 -0.506496
O5    O     O_R   0.815840 0.852920 0.961840 -0.475614
O6    O     O_R   0.012100 0.822630 0.963670 -0.471511
O7    O     O_R   0.037010 0.668460 0.953040 -0.488609
O8    O     O_R   0.813390 0.478970 0.949660 -0.509712
O9    O     O_R   0.632250 0.456930 0.945520 -0.461288
O10   O     O_R   0.660200 0.677230 0.958780 -0.491930
O11   O     O_3   0.830870 0.661990 0.006950 -0.285482
O12   O     O_R   0.662610 0.183990 0.557860 -0.468643
O13   O     O_R   0.702130 0.995190 0.446810 -0.466780
O14   O     O_R   0.661770 0.181390 0.458760 -0.470504
O15   O     O_R   0.499820 0.198480 0.455280 -0.518765
O16   O     O_R   0.311660 0.976250 0.449080 -0.521198
O17   O     O_R   0.297580 0.804960 0.544440 -0.486382
O18   O     O_R   0.526220 0.841130 0.542590 -0.482813
O19   O     O_R   0.703030 0.997990 0.553710 -0.497966
O20   O     O_2   0.791440 0.192858 0.334215 -0.513165
O21   O     O_2   0.241234 0.231592 0.227597 -0.519839
O22   O     O_2   0.354028 0.208370 0.336190 -0.536788
O23   O     O_R   0.500730 0.201280 0.562180 -0.498799
O24   O     O_3   0.117955 0.981661 0.379656 -0.586829
O25   O     O_3   0.851998 0.004466 0.138930 -0.566127
O26   O     O_2   0.888547 0.949996 0.431623 -0.472660
O27   O     O_2   0.450794 0.649108 0.077046 -0.454739
O28   O     O_2   0.880446 0.362097 0.588528 -0.470989
O29   O     O_3   0.952716 0.338038 0.805730 -0.565335
O30   O     O_3   0.473320 0.305352 0.882272 -0.495696
O31   O     O_3   0.394519 0.346995 0.805727 -0.486044
O32   O     O_2   0.383939 0.305395 0.629244 -0.477293
O33   O     O_3   0.028058 0.636638 0.683572 -0.525932
O34   O     O_R   0.312500 0.978850 0.548170 -0.492229
O35   O     O_3   0.977506 0.625108 0.781558 -0.539151
O36   O     O_2   0.186898 0.051305 0.854914 -0.479447
O37   O     O_2   0.230379 0.137468 0.728129 -0.476379
O38   O     O_2   0.897439 0.911253 0.660908 -0.470569
O39   O     O_2   0.903211 0.977252 0.849713 -0.468657
O40   O     O_2   0.426001 0.666685 0.654428 -0.500074
O41   O     O_2   0.265105 0.718578 0.072466 -0.446197
O42   O     O_2   0.195755 0.586310 0.362634 -0.517415
O43   O     O_3   0.132329 0.548744 0.188160 -0.598658
O44   O     O_2   0.177070 0.046168 0.091616 -0.478636
O45   O     O_3   0.499990 0.999990 0.500010 -0.274107
O46   O     O_R   0.820790 0.857990 0.068830 -0.469580
O47   O     O_R   0.016700 0.827330 0.062850 -0.466860
O48   O     O_R   0.041970 0.673520 0.060040 -0.480807
O49   O     O_R   0.817980 0.483660 0.048840 -0.508778

loop_
_geom_bond_atom_site_label_1
_geom_bond_atom_site_label_2
_ccdc_geom_bond_type
C25   C31   A    
C63   C65   A    
C93   C94   S    
C54   O23   A    
C66   O17   A    
C105  O20   D    
C15   H43   S    
C35   C39   A    
C19   C20   A    
C3    H22   S    
C24   C27   A    
C106  O21   D    
Cr3   O45   S    
C100  O7    A    
Cr2   O13   S    
C11   H40   S    
C104  O5    A    
C43   H49   S    
C56   C57   A    
Cr1   O1    S    
C99   O3    A    
C47   H23   S    
C22   C32   A    
C65   H52   S    
C101  O9    A    
Cr1   O4    S    
C60   H50   S    
C2    C103  A    
C14   C21   S    
C28   C29   A    
C58   H51   S    
C29   C32   A    
C98   O49   A    
C86   C91   A    
Cr6   O3    S    
C38   C39   A    
Cr2   O14   S    
C75   O35   S    
C111  H17   S    
C78   C81   T    
C8    C76   S    
Cr1   O17   S    
C48   C81   S    
C23   C33   A    
C109  O25   S    
C71   O30   S    
C34   C35   A    
Cr6   O10   S    
C2    C20   A    
C90   C102  A    
C37   H4    S    
Cr2   O19   S    
C10   C86   S    
C99   O46   A    
C16   H47   S    
C68   C69   A    
C49   C51   A    
C5    C62   S    
C23   C24   A    
C41   C99   S    
Cr4   O46   S    
C26   H2    S    
C9    H38   S    
C89   C91   A    
C26   C59   A    
C10   H39   S    
C112  O28   D    
C108  H11   S    
Cr3   O34   S    
C15   O42   D    
C38   H1    S    
Cr5   O8    S    
C61   C71   A    
C7    H36   S    
C53   C55   A    
C104  O10   A    
C5    H29   S    
C48   C90   A    
C21   C22   A    
C110  O26   D    
C6    H30   S    
C110  H16   S    
C7    O35   S    
C8    H37   S    
C100  O6    A    
C1    O13   A    
Cr4   O6    S    
C113  H19   S    
C77   C79   A    
C16   H44   S    
Cr3   O16   S    
Cr2   O12   S    
C44   C45   A    
C74   C75   A    
C13   C19   A    
C109  H14   S    
C67   C68   A    
C84   C100  S    
Cr1   O45   S    
C12   C89   S    
C36   C40   A    
C3    H24   S    
C24   C25   A    
C12   O40   D    
C80   C82   S    
C17   H48   S    
C28   C106  S    
C66   O34   A    
C88   C93   A    
Cr4   O11   S    
C44   C46   A    
C65   C67   A    
C4    H28   S    
Cr3   O15   S    
C18   O15   A    
C108  H9    S    
C7    H33   S    
C60   C61   A    
C37   C48   A    
Cr6   O11   S    
C8    O36   D    
C61   C101  S    
C43   C44   A    
C6    O33   S    
C62   C63   A    
C101  O8    A    
C42   O19   A    
C10   O38   D    
C4    O31   S    
C27   C107  S    
C16   H46   S    
C18   C78   S    
C4    H27   S    
C55   C64   A    
C109  H13   S    
C97   O48   A    
C113  H21   S    
C13   C21   A    
Cr4   O47   S    
C42   C85   S    
C9    C77   S    
C64   C69   A    
C76   C77   A    
C108  O24   S    
C94   C96   T    
C113  H20   S    
C30   O1    A    
C108  H10   S    
C86   C87   A    
C6    H32   S    
Cr5   O7    S    
C53   C112  S    
C88   H3    S    
C40   C41   A    
C41   C51   A    
C56   C69   A    
C82   C84   T    
C74   C79   A    
C96   C104  S    
C57   O29   S    
Cr5   O49   S    
C3    O30   S    
Cr6   O9    S    
C35   C45   A    
C107  O22   D    
C36   C50   A    
C111  O27   D    
Cr4   O5    S    
C40   O25   S    
Cr5   O11   S    
C98   O2    A    
C46   H34   S    
C46   C47   A    
C1    O4    A    
C102  H45   S    
C51   C111  S    
C30   C33   S    
C22   C97   S    
C109  H15   S    
C33   C103  A    
C59   C102  A    
C112  H18   S    
C13   C31   A    
C70   C92   T    
C3    H25   S    
C76   C80   A    
C90   C105  S    
C12   H41   S    
C9    O37   D    
C5    O32   D    
C11   C87   S    
C54   O12   A    
C26   C37   A    
C14   O41   D    
C47   C49   A    
C106  H7    S    
C18   O14   A    
C34   C52   A    
C105  H6    S    
C62   C72   A    
C19   O43   S    
C30   O16   A    
C14   H42   S    
C36   C38   A    
Cr3   O23   S    
C11   O39   D    
C67   O31   S    
Cr6   O2    S    
C79   C83   S    
C85   C95   T    
C42   O18   A    
C57   C58   A    
C7    H35   S    
C39   H12   S    
C45   C50   A    
C68   C71   A    
C34   C110  S    
C4    H26   S    
C87   C93   A    
C113  O29   S    
C91   C95   S    
Cr2   O45   S    
C2    C25   A    
C66   C73   S    
C43   C52   A    
C1    C52   S    
C20   H5    S    
C92   C98   S    
C59   C70   S    
C107  H8    S    
C63   C64   A    
C6    H31   S    
C56   C60   A    
C75   C80   A    
C54   C72   S    
C88   C89   A    
C74   O33   S    
C16   O43   S    
C29   C31   A    
C49   C50   A    
C55   C58   A    
C23   O24   S    
C27   C28   A    
Cr1   O18   S    
C17   C32   S    
C97   O47   A    
C15   C103  S    
C17   O44   D    
C53   C72   A    
C73   C83   T    
Cr5   O48   S    
