data_mof_unit_25139.cif
_audit_creation_date              2012-12-10T19:44:39-0500
_audit_creation_method            fapswitch 2.2
_symmetry_space_group_name_H-M    P1
_symmetry_Int_Tables_number       1
_space_group_crystal_system       triclinic
_cell_length_a                    8.627989
_cell_length_b                    14.909924
_cell_length_c                    14.133861
_cell_angle_alpha                 89.804218
_cell_angle_beta                  97.865357
_cell_angle_gamma                 90.045428
_cell_volume                      1801.10177827

loop_
_atom_site_label
_atom_site_type_symbol
_atom_type_description
_atom_site_fract_x
_atom_site_fract_y
_atom_site_fract_z
_atom_type_partial_charge
C1    C     C_R   0.497400 0.327561 0.499983 0.868810
C2    C     C_R   0.618455 0.451693 0.904582 0.137118
C3    C     C_R   0.501980 0.500993 0.053445 0.112944
C4    C     C_R   0.503169 0.498775 0.947107 0.136375
C5    C     C_R   0.201838 0.501691 0.476073 0.967005
C6    C     C_R   0.798198 0.498160 0.523964 0.969476
C7    C     C_2   0.040511 0.518481 0.467070 -0.013710
C8    C     C_2   0.959660 0.481430 0.533109 -0.020890
C9    C     C_R   0.362751 0.099524 0.560161 0.186365
C10   C     C_R   0.369057 0.900918 0.414030 0.185742
C11   C     C_R   0.387334 0.191853 0.562012 -0.252980
C12   C     C_R   0.497184 0.672490 0.499553 0.868015
C13   C     C_R   0.393278 0.808577 0.416821 -0.250433
C14   C     C_R   0.478289 0.231941 0.498891 -0.049538
C15   C     C_R   0.477762 0.768191 0.497318 -0.051524
C16   C     C_R   0.545752 0.181178 0.432885 -0.204775
C17   C     C_R   0.538470 0.818782 0.576400 -0.203118
C18   C     C_R   0.525432 0.089550 0.431253 -0.223747
C19   C     C_R   0.518070 0.910406 0.574344 -0.224036
C20   C     C_R   0.433009 0.048551 0.493119 0.103982
C21   C     C_R   0.432514 0.951654 0.494666 0.104311
C22   C     C_3   0.977606 0.589541 0.394000 -0.912484
C23   C     C_R   0.414859 0.437215 0.097205 -0.329997
C24   C     C_3   0.022783 0.410174 0.606019 -0.913458
C25   C     C_3   0.267342 0.058473 0.632186 -0.429246
C26   C     C_3   0.111793 0.020191 0.585196 -0.861603
C27   C     C_3   0.281670 0.942265 0.323628 -0.426235
C28   C     C_3   0.123695 0.981110 0.339116 -0.869009
C29   C     C_3   0.684438 0.635416 0.070108 -0.943981
C30   C     C_3   0.747776 0.399403 0.962388 -0.963821
C31   C     C_R   0.387610 0.545601 0.886637 -0.334026
C32   C     C_R   0.415548 0.437752 0.196793 0.003884
C33   C     C_R   0.388188 0.545566 0.787165 -0.011155
C34   C     C_R   0.584563 0.563263 0.211993 -0.013038
C35   C     C_R   0.613243 0.453556 0.804185 -0.006427
C36   C     C_R   0.588469 0.565314 0.112278 0.134569
H1    H     H_    0.334379 0.232963 0.612026 0.150201
H2    H     H_    0.298909 0.582206 0.741518 0.140759
H3    H     H_    0.649343 0.612423 0.257672 0.134351
H4    H     H_    0.700560 0.417622 0.771089 0.139036
H5    H     H_    0.073842 0.628108 0.368015 0.236039
H6    H     H_    0.909519 0.557187 0.330962 0.264197
H7    H     H_    0.904157 0.639133 0.426026 0.233495
H8    H     H_    0.926651 0.372883 0.633616 0.232267
H9    H     H_    0.093100 0.359657 0.572946 0.235260
H10   H     H_    0.094403 0.441775 0.668298 0.265144
H11   H     H_    0.045782 0.071434 0.538763 0.259066
H12   H     H_    0.345271 0.767735 0.356498 0.150837
H13   H     H_    0.131259 0.959814 0.542887 0.271607
H14   H     H_    0.040160 0.999916 0.641250 0.248158
H15   H     H_    0.334871 0.005494 0.674775 0.206138
H16   H     H_    0.240801 0.109862 0.684501 0.202906
H17   H     H_    0.053429 0.930105 0.371857 0.258805
H18   H     H_    0.139737 0.041428 0.384988 0.271894
H19   H     H_    0.058194 0.001623 0.269271 0.247564
H20   H     H_    0.353109 0.994987 0.294975 0.205881
H21   H     H_    0.259609 0.890963 0.266431 0.202278
H22   H     H_    0.775004 0.602503 0.033477 0.257920
H23   H     H_    0.617176 0.212162 0.384453 0.155108
H24   H     H_    0.607568 0.676785 0.017672 0.250181
H25   H     H_    0.744321 0.680612 0.125873 0.234688
H26   H     H_    0.741701 0.401564 0.040170 0.260080
H27   H     H_    0.741086 0.328100 0.939760 0.242712
H28   H     H_    0.862718 0.427229 0.949920 0.243044
H29   H     H_    0.604868 0.787710 0.638552 0.156452
H30   H     H_    0.585373 0.050023 0.383217 0.139068
H31   H     H_    0.573004 0.949758 0.634073 0.137985
H32   H     H_    0.347306 0.386910 0.054499 0.157182
H33   H     H_    0.297701 0.582501 0.916410 0.155800
H34   H     H_    0.348286 0.388168 0.229672 0.139826
N1    N     N_R   0.500000 0.499980 0.252470 -0.108189
N2    N     N_R   0.500000 0.500020 0.747530 -0.107902
O1    O     O_R   0.500010 0.369070 0.579480 -0.626869
O2    O     O_R   0.499990 0.630930 0.420520 -0.632883
O3    O     O_R   0.500010 0.369060 0.420520 -0.625265
O4    O     O_R   0.499990 0.630940 0.579480 -0.618968
O5    O     O_R   0.271750 0.500000 0.560890 -0.627976
O6    O     O_R   0.728250 0.500000 0.439110 -0.620342
O7    O     O_R   0.271750 0.499990 0.401930 -0.621192
O8    O     O_R   0.728250 0.500010 0.598070 -0.628557
Zn1   Zn    Zn3+2 0.500000 0.500010 0.606140 0.930547
Zn2   Zn    Zn3+2 0.500000 0.499990 0.393860 0.932305

loop_
_geom_bond_atom_site_label_1
_geom_bond_atom_site_label_2
_ccdc_geom_bond_type
C10   C27   S    
C2    C35   A    
C30   H28   S    
C3    C23   A    
C9    C25   S    
C7    C8    D    
C29   C36   S    
C24   H9    S    
C19   C21   A    
C12   O2    A    
C26   H14   S    
C11   C14   A    
C6    O6    A    
C22   H5    S    
C11   H1    S    
C33   N2    A    
C17   C19   A    
C31   C33   A    
C19   H31   S    
C5    O7    A    
C18   C20   A    
N2    Zn1   S    
N1    Zn2   S    
C30   H27   S    
O2    Zn2   S    
O1    Zn1   S    
C28   H19   S    
C32   N1    A    
C10   C21   A    
C29   H25   S    
C34   H3    S    
C1    O3    A    
C27   H21   S    
C26   H13   S    
C5    C7    S    
C28   H18   S    
C27   H20   S    
C32   H34   S    
C25   C26   S    
C16   H23   S    
C23   H32   S    
C2    C4    A    
C25   H15   S    
O7    Zn2   S    
O6    Zn2   S    
C9    C20   A    
C6    O8    A    
C22   H7    S    
C29   H24   S    
O5    Zn1   S    
C29   H22   S    
C9    C11   A    
C26   H11   S    
C35   N2    A    
C12   C15   S    
C13   C15   A    
C12   O4    A    
C24   H8    S    
C14   C16   A    
C5    O5    A    
C3    C4    S    
C15   C17   A    
O8    Zn1   S    
C10   C13   A    
O4    Zn1   S    
C13   H12   S    
C6    C8    S    
C28   H17   S    
O3    Zn2   S    
C18   H30   S    
C7    C22   S    
C17   H29   S    
C33   H2    S    
C2    C30   S    
C1    O1    A    
C23   C32   A    
C30   H26   S    
C35   H4    S    
C25   H16   S    
C24   H10   S    
C22   H6    S    
C3    C36   A    
C8    C24   S    
C34   C36   A    
C4    C31   A    
C31   H33   S    
C20   C21   S    
C16   C18   A    
C27   C28   S    
C1    C14   S    
C34   N1    A    
