data_mof_unit_66353.cif
_audit_creation_date              2013-03-05T16:58:08-0500
_audit_creation_method            fapswitch 2.2
_symmetry_space_group_name_H-M    P1
_symmetry_Int_Tables_number       1
_space_group_crystal_system       triclinic
_cell_length_a                    17.546092
_cell_length_b                    16.811935
_cell_length_c                    23.34573
_cell_angle_alpha                 89.530947
_cell_angle_beta                  91.375964
_cell_angle_gamma                 90.077648
_cell_volume                      6884.39010478

loop_
_atom_site_label
_atom_site_type_symbol
_atom_site_description
_atom_site_fract_x
_atom_site_fract_y
_atom_site_fract_z
_atom_type_partial_charge
O1    O     O_R   0.389110 0.566570 0.500000 -0.628747
O2    O     O_R   0.610890 0.433430 0.500000 -0.610591
O3    O     O_R   0.610890 0.566570 0.500000 -0.634008
O4    O     O_R   0.389110 0.433430 0.500000 -0.639282
C1    C     C_R   0.353235 0.499919 0.500858 0.883074
C2    C     C_R   0.646854 0.500024 0.500602 0.955167
O5    O     O_R   0.499970 0.566560 0.416150 -0.629495
O6    O     O_R   0.500030 0.433440 0.583850 -0.623517
O7    O     O_R   0.500030 0.566560 0.583850 -0.611452
O8    O     O_R   0.499970 0.433440 0.416150 -0.581651
C3    C     C_R   0.501099 0.500252 0.388981 0.937657
C4    C     C_R   0.500442 0.499808 0.610615 0.963190
Zn1   Zn    Zn3+2 0.500000 0.588860 0.500000 0.977810
Zn2   Zn    Zn3+2 0.500000 0.411140 0.500000 1.005770
C5    C     C_R   0.504344 0.567110 0.878361 0.525675
C6    C     C_R   0.423261 0.455707 0.118127 0.529520
N1    N     N_R   0.463931 0.509409 0.849930 -0.352770
N2    N     N_R   0.469588 0.508644 0.146468 -0.351498
C7    C     C_R   0.419158 0.455869 0.878002 0.528780
C8    C     C_R   0.511017 0.564763 0.117933 0.525782
C9    C     C_R   0.416085 0.457153 0.937806 -0.024651
C10   C     C_R   0.507324 0.568849 0.058208 -0.023653
C11   C     C_R   0.460049 0.513956 0.967959 -0.015675
C12   C     C_R   0.461584 0.513492 0.028184 -0.015873
C13   C     C_R   0.503804 0.570191 0.938049 -0.026065
C14   C     C_R   0.418666 0.456661 0.058228 -0.026680
C15   C     C_R   0.372159 0.401863 0.968096 -0.133659
C16   C     C_R   0.549355 0.625773 0.027974 -0.132709
C17   C     C_R   0.373314 0.401726 0.027807 -0.130527
C18   C     C_R   0.547414 0.626601 0.968376 -0.130861
O9    O     O_2   0.545553 0.620687 0.848778 -0.519798
O10   O     O_2   0.382013 0.402424 0.147900 -0.520099
O11   O     O_2   0.379280 0.400661 0.848175 -0.532843
O12   O     O_2   0.556668 0.615510 0.147370 -0.532007
H1    H     H_    0.337628 0.357917 0.945827 0.202094
H2    H     H_    0.584511 0.669231 0.050205 0.203611
H3    H     H_    0.339548 0.357749 0.049992 0.203898
H4    H     H_    0.581226 0.670576 0.946223 0.204968
C19   C     C_R   0.453634 0.569218 0.239904 -0.067638
C20   C     C_R   0.412200 0.522979 0.752352 -0.061495
H5    H     H_    0.427887 0.620867 0.219301 0.170257
H6    H     H_    0.357821 0.541071 0.768906 0.161969
C21   C     C_R   0.464774 0.567879 0.298769 -0.230826
C22   C     C_R   0.422680 0.521491 0.693697 -0.252628
H7    H     H_    0.446554 0.618820 0.322762 0.191838
H8    H     H_    0.375617 0.537452 0.664943 0.161061
C23   C     C_R   0.497683 0.501334 0.326307 -0.173338
C24   C     C_R   0.493487 0.500012 0.672124 -0.148106
C25   C     C_R   0.522112 0.436061 0.293438 0.280144
C26   C     C_R   0.554979 0.479459 0.709450 0.270840
C27   C     C_R   0.510225 0.438231 0.234027 -0.139338
C28   C     C_R   0.542992 0.479845 0.768384 -0.140358
H9    H     H_    0.529755 0.389577 0.208031 0.188823
H10   H     H_    0.589220 0.465395 0.798242 0.187898
C29   C     C_R   0.476345 0.504593 0.207436 0.233183
C30   C     C_R   0.472456 0.502619 0.789642 0.239290
C31   C     C_R   0.846542 0.571109 0.527812 0.009434
C32   C     C_R   0.156124 0.428629 0.531488 0.008197
C33   C     C_R   0.152619 0.571912 0.513037 0.003441
C34   C     C_R   0.847746 0.426818 0.516004 0.002366
C35   C     C_R   0.768341 0.571365 0.517340 -0.178145
C36   C     C_R   0.233827 0.428595 0.521501 -0.213841
C37   C     C_R   0.230475 0.571166 0.503796 -0.207777
C38   C     C_R   0.769349 0.427826 0.506337 -0.163726
H11   H     H_    0.737842 0.627344 0.517921 0.164906
H12   H     H_    0.265265 0.373222 0.525296 0.170553
H13   H     H_    0.259212 0.626419 0.493543 0.178677
H14   H     H_    0.739540 0.372304 0.498371 0.177973
C39   C     C_R   0.729484 0.499916 0.506940 -0.053220
C40   C     C_R   0.271137 0.499670 0.507635 -0.070885
C41   C     C_R   0.886379 0.498685 0.526820 0.050207
C42   C     C_R   0.115393 0.500429 0.526942 0.047622
C43   C     C_1   0.967175 0.499044 0.531380 -0.016564
C44   C     C_1   0.034873 0.499661 0.531397 -0.018177
C45   C     C_R   0.450843 0.832947 0.462201 0.171816
C46   C     C_R   0.548624 0.166468 0.537041 0.175653
C47   C     C_R   0.552041 0.832688 0.534720 0.172305
C48   C     C_R   0.447929 0.167916 0.464129 0.176988
C49   C     C_R   0.450485 0.748383 0.464426 -0.028084
C50   C     C_R   0.549007 0.251032 0.535544 -0.042188
C51   C     C_R   0.549396 0.748097 0.535410 -0.047251
C52   C     C_R   0.450482 0.252517 0.464294 -0.022653
N3    N     N_R   0.500000 0.707230 0.500000 -0.158357
N4    N     N_R   0.500000 0.292770 0.500000 -0.156238
C53   C     C_R   0.502296 0.875814 0.497627 -0.123924
C54   C     C_R   0.497501 0.124179 0.500992 -0.121255
C55   C     C_1   0.500570 0.963607 0.498620 0.202540
C56   C     C_1   0.499045 0.036399 0.499588 0.204483
C57   C     C_1   0.397252 0.705206 0.428469 0.336668
N5    N     N_1   0.353729 0.671340 0.399674 -0.197181
C58   C     C_1   0.600988 0.293535 0.572796 0.352579
N6    N     N_1   0.643442 0.326674 0.602839 -0.087537
C59   C     C_1   0.599943 0.704525 0.573685 0.356438
N7    N     N_1   0.640609 0.670272 0.604849 -0.113946
C60   C     C_1   0.398868 0.296868 0.427271 0.380214
N8    N     N_1   0.357245 0.331995 0.397342 -0.158515
N9    N     N_R   0.561962 0.369548 0.318921 0.217131
O13   O     O_R   0.550277 0.298236 0.299274 -0.328392
O14   O     O_R   0.618625 0.381429 0.354852 -0.373554
N10   N     N_R   0.629732 0.461543 0.688899 0.210126
O15   O     O_R   0.654590 0.495304 0.642604 -0.405366
O16   O     O_R   0.676803 0.418701 0.720056 -0.339628
C61   C     C_1   0.884479 0.645838 0.539397 0.213866
N11   N     N_1   0.914520 0.705797 0.548812 -0.124623
C62   C     C_1   0.119515 0.354360 0.546104 0.203179
N12   N     N_1   0.090450 0.294814 0.557907 -0.129018
C63   C     C_1   0.112171 0.646488 0.507181 0.206789
N13   N     N_1   0.080102 0.706350 0.502360 -0.127423
C64   C     C_1   0.887270 0.351550 0.513960 0.226331
N14   N     N_1   0.918666 0.291167 0.512238 -0.119184
N15   N     N_R   0.399205 0.874920 0.423947 0.226468
O17   O     O_R   0.326549 0.859297 0.423766 -0.330198
O18   O     O_R   0.424734 0.929096 0.389188 -0.300845
N16   N     N_R   0.599816 0.123912 0.575297 0.227765
O19   O     O_R   0.672472 0.139596 0.576116 -0.321330
O20   O     O_R   0.573832 0.069434 0.609613 -0.303267
N17   N     N_R   0.605292 0.874410 0.571425 0.225072
O21   O     O_R   0.609560 0.858399 0.626030 -0.318108
O22   O     O_R   0.649759 0.928657 0.550299 -0.304069
N18   N     N_R   0.394874 0.126854 0.426872 0.224332
O23   O     O_R   0.390360 0.144455 0.372519 -0.299455
O24   O     O_R   0.350661 0.071818 0.447252 -0.310655

loop_
_geom_bond_atom_site_label_1
_geom_bond_atom_site_label_2
_geom_bond_distance
_ccdc_geom_bond_type
C32   C36   1.388684 A    
C2    C39   1.453815 S    
C55   C56   1.224492 T    
C59   N7    1.157326 T    
C15   C17   1.393636 A    
C43   C44   1.187856 T    
C3    C23   1.462922 S    
C60   N8    1.157675 T    
Zn2   N4    1.990029 S    
C4    C24   1.444092 S    
O3    C2    1.285018 A    
C25   C27   1.397818 A    
N16   O19   1.301183 A    
C23   C25   1.416904 A    
O5    C3    1.287499 A    
C36   C40   1.401018 A    
O1    C1    1.284735 A    
C38   H14   1.084576 S    
C7    C9    1.398853 A    
C12   C14   1.408663 A    
C47   N17   1.438371 S    
N17   O22   1.301127 A    
C54   C56   1.476694 S    
C5    C13   1.395113 A    
C18   H4    1.083185 S    
O7    Zn1   1.990088 S    
C34   C64   1.445473 S    
N9    O14   1.301593 A    
C45   C53   1.410886 A    
C19   C29   1.393897 A    
N15   O17   1.301170 A    
N18   O24   1.301123 A    
C20   C30   1.394531 A    
C46   N16   1.438419 S    
C63   N13   1.157051 T    
C20   C22   1.386451 A    
C27   C29   1.398644 A    
O3    Zn1   1.981943 S    
C50   N4    1.370463 A    
C33   C42   1.406380 A    
C8    O12   1.350201 S    
C48   C54   1.411830 A    
C20   H6    1.082887 S    
C9    C15   1.404134 A    
C47   C53   1.411551 A    
C10   C16   1.403536 A    
O2    C2    1.284433 A    
C51   N3    1.371083 A    
C28   H10   1.083234 S    
N9    O13   1.301370 A    
C53   C55   1.476717 S    
C6    C14   1.398752 A    
C31   C61   1.445434 S    
C37   H13   1.084104 S    
C36   H12   1.084654 S    
C28   C30   1.399480 A    
C42   C44   1.419149 S    
C7    O11   1.349564 S    
C58   N6    1.156447 T    
C41   C43   1.419108 S    
C19   C21   1.383426 A    
C22   H8    1.084217 S    
C34   C41   1.406266 A    
C15   H1    1.083133 S    
C33   C63   1.445424 S    
C27   H9    1.083371 S    
C48   N18   1.438358 S    
C1    C40   1.452926 S    
C51   C59   1.440353 S    
C48   C52   1.422990 A    
C26   C28   1.396890 A    
C37   C40   1.399759 A    
C47   C51   1.422806 A    
O6    C4    1.283209 A    
N10   O16   1.301609 A    
N15   O18   1.301130 A    
C38   C39   1.400499 A    
C31   C41   1.405427 A    
C31   C35   1.387937 A    
C21   H7    1.080101 S    
N1    C30   1.424477 S    
C16   H2    1.083180 S    
N2    C29   1.426512 S    
C8    C10   1.395419 A    
C52   N4    1.371339 A    
C9    C11   1.409080 A    
O8    Zn2   1.990088 S    
C10   C12   1.408251 A    
O1    Zn1   1.980946 S    
C46   C54   1.410739 A    
N18   O23   1.301178 A    
C35   C39   1.400449 A    
C13   C18   1.403256 A    
C5    N1    1.367660 A    
O6    Zn2   1.996116 S    
C52   C60   1.441129 S    
C33   C37   1.388191 A    
C46   C50   1.421842 A    
O4    C1    1.284145 A    
N16   O20   1.301124 A    
C5    O9    1.350228 S    
C6    O10   1.349654 S    
C62   N12   1.157147 T    
Zn1   N3    1.990029 S    
C45   N15   1.438405 S    
C34   C38   1.388704 A    
C32   C62   1.445501 S    
C50   C58   1.438439 S    
C16   C18   1.390921 A    
N17   O21   1.301156 A    
C49   N3    1.371416 A    
C32   C42   1.405592 A    
C45   C49   1.422209 A    
C24   C26   1.412008 A    
N10   O15   1.300922 A    
N1    C7    1.367485 A    
N2    C8    1.368732 A    
C11   C13   1.408472 A    
O4    Zn2   1.981943 S    
O2    Zn2   1.980946 S    
O7    C4    1.279934 A    
C26   N10   1.440460 S    
C49   C57   1.440299 S    
O8    C3    1.285791 A    
C11   C12   1.405563 A    
C25   N9    1.436831 S    
C35   H11   1.083603 S    
O5    Zn1   1.996116 S    
C19   H5    1.083154 S    
C14   C17   1.404336 A    
C6    N2    1.368343 A    
C17   H3    1.083136 S    
C61   N11   1.157100 T    
C57   N5    1.157451 T    
C64   N14   1.157101 T    
C21   C23   1.403730 A    
C22   C24   1.400657 A    
