data_mof_unit_59892.cif
_audit_creation_date              2012-12-11T15:39:31-0500
_audit_creation_method            fapswitch 2.2
_symmetry_space_group_name_H-M    P1
_symmetry_Int_Tables_number       1
_space_group_crystal_system       triclinic
_cell_length_a                    14.344757
_cell_length_b                    14.799986
_cell_length_c                    33.216442
_cell_angle_alpha                 97.704684
_cell_angle_beta                  90.329932
_cell_angle_gamma                 118.900101
_cell_volume                      6097.70548277

loop_
_atom_site_label
_atom_site_type_symbol
_atom_type_description
_atom_site_fract_x
_atom_site_fract_y
_atom_site_fract_z
_atom_type_partial_charge
C1    C     C_R   0.616959 0.910272 0.437006 0.542938
C2    C     C_R   0.712028 0.437344 0.949320 0.534642
C3    C     C_R   0.727608 0.821516 0.768904 -0.162800
C4    C     C_R   0.722764 0.844166 0.729989 -0.132224
C5    C     C_R   0.677142 0.763642 0.696563 -0.010764
C6    C     C_R   0.635742 0.659409 0.702937 -0.077146
C7    C     C_R   0.640547 0.636197 0.742207 0.251770
C8    C     C_R   0.686922 0.717885 0.775491 0.039156
C9    C     C_R   0.571356 0.732192 0.631246 -0.118884
C10   C     C_R   0.556033 0.767044 0.596114 -0.125683
C11   C     C_R   0.735550 0.914275 0.608175 -0.127643
C12   C     C_3   0.284328 0.707809 0.287884 -0.012847
C13   C     C_R   0.742802 0.716671 0.945843 0.566892
C14   C     C_3   0.269406 0.627121 0.251256 -0.370978
C15   C     C_R   0.830242 0.441306 0.165351 -0.115749
C16   C     C_R   0.828177 0.454287 0.124587 -0.125096
C17   C     C_R   0.781719 0.356797 0.246515 -0.106418
C18   C     C_R   0.774244 0.343664 0.287349 -0.104956
C19   C     C_R   0.732779 0.395041 0.313985 0.033547
C20   C     C_R   0.704740 0.464350 0.299648 -0.111481
C21   C     C_R   0.711654 0.476970 0.258794 -0.108639
C22   C     C_R   0.747163 0.420870 0.231734 0.033751
C23   C     C_R   0.742643 0.425385 0.187866 0.031181
C24   C     C_R   0.606499 0.345011 0.368427 -0.119654
C25   C     C_R   0.594027 0.205494 0.456618 0.544370
C26   C     C_R   0.572251 0.298467 0.403150 -0.126048
C27   C     C_R   0.740395 0.299469 0.412812 -0.127270
C28   C     C_R   0.774745 0.346327 0.378141 -0.120005
C29   C     C_R   0.706513 0.365913 0.354828 0.032276
C30   C     C_R   0.637288 0.271631 0.424728 0.021755
C31   C     C_R   0.245069 0.878143 0.393354 -0.023082
C32   C     C_R   0.233671 0.959608 0.380734 -0.145583
C33   C     C_R   0.209490 0.957074 0.339701 -0.169583
C34   C     C_R   0.751020 0.879057 0.643211 -0.115925
C35   C     C_R   0.196492 0.873346 0.310704 0.047135
C36   C     C_R   0.202592 0.788996 0.322994 0.280283
C37   C     C_R   0.295606 0.892765 0.434395 0.545513
C38   C     C_R   0.224639 0.790810 0.364448 -0.114920
C39   C     C_R   0.195561 0.808295 0.163285 -0.107453
C40   C     C_R   0.167571 0.786602 0.121428 -0.125089
C41   C     C_R   0.089698 0.900763 0.129685 -0.127163
C42   C     C_R   0.117211 0.921828 0.171664 -0.117202
C43   C     C_R   0.166726 0.872613 0.188624 0.037451
C44   C     C_1   0.177764 0.878243 0.232006 -0.018750
C45   C     C_R   0.667741 0.789746 0.655832 0.034549
C46   C     C_1   0.185398 0.877603 0.268056 0.012080
C47   C     C_R   0.110205 0.829025 0.104460 0.021214
C48   C     C_R   0.638127 0.878420 0.395585 0.021728
C49   C     C_R   0.614020 0.904893 0.551506 0.544360
C50   C     C_R   0.554854 0.796766 0.368861 -0.135150
C51   C     C_R   0.567334 0.783401 0.327195 -0.125328
C52   C     C_R   0.662806 0.851271 0.311976 0.039872
C53   C     C_R   0.748589 0.927618 0.338643 -0.113157
C54   C     C_R   0.736606 0.940914 0.380274 -0.124821
C55   C     C_R   0.779054 0.918011 0.175114 -0.114598
C56   C     C_R   0.636721 0.860335 0.584985 0.019725
C57   C     C_R   0.794211 0.905802 0.133664 -0.128459
C58   C     C_R   0.618389 0.752365 0.121479 -0.124087
C59   C     C_R   0.603336 0.764952 0.162847 -0.115320
C60   C     C_R   0.685147 0.845454 0.189845 0.039715
C61   C     C_R   0.589257 0.198661 0.571051 0.542874
C62   C     C_1   0.676493 0.847758 0.232841 -0.034790
C63   C     C_1   0.670133 0.848406 0.268907 -0.035885
C64   C     C_R   0.715784 0.820095 0.106780 0.022113
C65   C     C_R   0.620569 0.245920 0.614390 0.017850
C66   C     C_R   0.548773 0.264483 0.638064 -0.128375
C67   C     C_R   0.052056 0.781312 0.063812 0.541332
C68   C     C_R   0.564562 0.283856 0.680471 -0.080711
C69   C     C_R   0.652927 0.286544 0.699755 0.054277
C70   C     C_R   0.728639 0.275147 0.676524 -0.118184
C71   C     C_R   0.712665 0.254969 0.634004 -0.127698
C72   C     C_R   0.757097 0.329341 0.846751 -0.096709
C73   C     C_R   0.288950 0.886862 0.548473 0.545246
C74   C     C_R   0.766592 0.358841 0.888982 -0.097875
C75   C     C_R   0.594341 0.351792 0.884738 -0.126150
C76   C     C_R   0.584969 0.322167 0.842610 -0.094986
C77   C     C_R   0.668023 0.314738 0.823441 0.036571
C78   C     C_R   0.744062 0.487035 0.066258 0.543096
C79   C     C_1   0.665755 0.302490 0.779829 0.010452
C80   C     C_1   0.661866 0.295286 0.743294 0.019529
C81   C     C_R   0.687661 0.375369 0.908130 0.011991
C82   C     C_R   0.072510 0.756792 0.908898 0.028729
C83   C     C_R   0.103108 0.855794 0.898378 -0.181152
C84   C     C_R   0.127083 0.874834 0.858849 -0.144028
C85   C     C_R   0.738210 0.451026 0.105836 0.021153
C86   C     C_R   0.122598 0.795703 0.829327 -0.011024
C87   C     C_R   0.101857 0.700167 0.840508 -0.074341
C88   C     C_R   0.077520 0.680083 0.879938 0.239614
C89   C     C_R   0.743004 0.789215 0.066435 0.553376
C90   C     C_R   0.189080 0.770936 0.762191 -0.112069
C91   C     C_R   0.190177 0.774685 0.720694 -0.109376
C92   C     C_R   0.134483 0.816904 0.702584 0.031355
C93   C     C_R   0.078772 0.856831 0.726617 -0.107713
C94   C     C_R   0.077217 0.852600 0.768275 -0.101669
C95   C     C_R   0.131843 0.808917 0.786250 0.034261
C96   C     C_R   0.178998 0.924842 0.647377 -0.120651
C97   C     C_R   0.648106 0.428176 0.127806 -0.122910
C98   C     C_R   0.218060 0.942405 0.609306 -0.128165
C99   C     C_R   0.175824 0.761158 0.593258 -0.126919
C100  C     C_R   0.021593 0.731894 0.947270 0.555466
C101  C     C_R   0.136580 0.743652 0.631229 -0.120408
C102  C     C_R   0.143962 0.826918 0.659327 0.031295
C103  C     C_R   0.222606 0.862139 0.583045 0.022032
C104  C     C_R   0.724073 0.702689 0.901349 0.016507
C105  C     C_R   0.622436 0.641735 0.880368 -0.126223
C106  C     C_R   0.609711 0.641385 0.838423 -0.072882
C107  C     C_R   0.698836 0.699903 0.817311 0.071017
C108  C     C_R   0.800605 0.754111 0.837965 -0.110317
C109  C     C_R   0.650508 0.415833 0.168499 -0.121222
C110  C     C_R   0.812838 0.756059 0.879509 -0.124611
Cl1   Cl    Cl    0.046734 0.554732 0.889588 -0.629065
Cl2   Cl    Cl    0.592033 0.505151 0.748420 -0.681270
Cr1   Cr    Cr6+3 0.424820 0.846020 0.489780 1.009484
Cr2   Cr    Cr6+3 0.657880 0.078580 0.505700 1.009847
Cr3   Cr    Cr6+3 0.417280 0.075360 0.504550 1.010475
Cr4   Cr    Cr6+3 0.903360 0.812540 0.006510 1.006782
Cr5   Cr    Cr6+3 0.914630 0.587050 0.006280 1.050294
Cr6   Cr    Cr6+3 0.673560 0.582680 0.008540 1.016692
H1    H     H_    0.577445 0.424716 0.114187 0.130414
H2    H     H_    0.044720 0.933881 0.117608 0.124611
H3    H     H_    0.898940 0.472059 0.108448 0.129754
H4    H     H_    0.205303 0.022526 0.330382 0.112837
H5    H     H_    0.870232 0.958794 0.123304 0.120773
H6    H     H_    0.842699 0.980737 0.195913 0.104267
H7    H     H_    0.823052 0.980026 0.327063 0.106465
H8    H     H_    0.802362 0.004222 0.400057 0.127092
H9    H     H_    0.478023 0.747495 0.379662 0.120456
H10   H     H_    0.530197 0.708767 0.174043 0.102915
H11   H     H_    0.556478 0.685781 0.101469 0.123295
H12   H     H_    0.492516 0.278168 0.411673 0.126629
H13   H     H_    0.501082 0.723359 0.306650 0.095124
H14   H     H_    0.838912 0.375569 0.906203 0.179854
H15   H     H_    0.852883 0.363308 0.368601 0.107628
H16   H     H_    0.821638 0.323341 0.832130 0.137290
H17   H     H_    0.797568 0.277560 0.691253 0.108991
H18   H     H_    0.769248 0.240716 0.616679 0.126467
H19   H     H_    0.476854 0.257633 0.624021 0.129115
H20   H     H_    0.515602 0.310798 0.824759 0.137424
H21   H     H_    0.532078 0.363824 0.898424 0.134548
H22   H     H_    0.505398 0.292401 0.698226 0.161048
H23   H     H_    0.901901 0.448431 0.179774 0.112649
H24   H     H_    0.102310 0.916865 0.920117 0.131429
H25   H     H_    0.107784 0.667015 0.639825 0.110069
H26   H     H_    0.795045 0.288625 0.297464 0.103190
H27   H     H_    0.236523 0.746516 0.702835 0.110331
H28   H     H_    0.233129 0.738472 0.775516 0.110828
H29   H     H_    0.145490 0.950098 0.850989 0.119857
H30   H     H_    0.036151 0.890468 0.713117 0.104898
H31   H     H_    0.031665 0.881470 0.786227 0.097461
H32   H     H_    0.185218 0.990019 0.668713 0.106634
H33   H     H_    0.252631 0.020799 0.601941 0.126552
H34   H     H_    0.792820 0.280863 0.429191 0.124073
H35   H     H_    0.098548 0.638422 0.817925 0.143625
H36   H     H_    0.176340 0.697446 0.573150 0.127167
H37   H     H_    0.552871 0.598975 0.896549 0.130972
H38   H     H_    0.809187 0.312779 0.226074 0.103291
H39   H     H_    0.891798 0.802748 0.894985 0.134015
H40   H     H_    0.826956 0.923740 0.661259 0.103387
H41   H     H_    0.752765 0.924918 0.726214 0.116719
H42   H     H_    0.762923 0.885397 0.794178 0.116653
H43   H     H_    0.530268 0.599811 0.822938 0.149685
H44   H     H_    0.600715 0.596278 0.677413 0.136399
H45   H     H_    0.184390 0.731098 0.102786 0.126832
H46   H     H_    0.505607 0.663570 0.640368 0.106812
H47   H     H_    0.479016 0.723383 0.578768 0.128429
H48   H     H_    0.870219 0.799275 0.822221 0.108544
H49   H     H_    0.581105 0.401061 0.185161 0.104971
H50   H     H_    0.799576 0.985700 0.600120 0.126055
H51   H     H_    0.674182 0.506067 0.319735 0.106349
H52   H     H_    0.686861 0.528676 0.248068 0.109712
H53   H     H_    0.551766 0.358283 0.350795 0.102617
H54   H     H_    0.313543 0.688770 0.314898 0.119115
H55   H     H_    0.345859 0.786034 0.281463 0.131494
H56   H     H_    0.234203 0.770104 0.176148 0.108121
H57   H     H_    0.240434 0.644234 0.223713 0.153260
H58   H     H_    0.346732 0.629337 0.245767 0.086390
H59   H     H_    0.210328 0.547702 0.256923 0.158067
H60   H     H_    0.231371 0.726481 0.373547 0.129074
H61   H     H_    0.248905 0.028027 0.402217 0.137051
H62   H     H_    0.094488 0.971694 0.191077 0.104479
O1    O     O_R   0.318160 0.824460 0.443680 -0.521847
O2    O     O_R   0.668160 0.499860 0.053480 -0.517509
O3    O     O_R   0.689170 0.693840 0.050110 -0.494775
O4    O     O_R   0.525040 0.857250 0.449830 -0.502768
O5    O     O_R   0.803860 0.812940 0.962540 -0.507726
O6    O     O_R   0.982950 0.787950 0.964120 -0.542283
O7    O     O_R   0.007050 0.649970 0.960540 -0.437828
O8    O     O_R   0.807910 0.482370 0.965590 -0.487523
O9    O     O_R   0.643310 0.460980 0.963840 -0.526035
O10   O     O_R   0.666140 0.657800 0.967020 -0.497152
O11   O     O_3   0.830520 0.660760 0.007110 -0.269157
O12   O     O_R   0.645130 0.163230 0.552140 -0.501567
O13   O     O_R   0.684760 0.998800 0.456360 -0.518912
O14   O     O_R   0.647540 0.166310 0.470260 -0.501816
O15   O     O_R   0.500960 0.181750 0.467450 -0.519557
O16   O     O_R   0.331100 0.981120 0.457080 -0.498686
O17   O     O_R   0.315560 0.821140 0.532010 -0.519534
O18   O     O_R   0.522630 0.854180 0.531710 -0.501456
O19   O     O_R   0.682160 0.995480 0.544690 -0.518995
O20   O     O_3   0.185531 0.704406 0.294336 -0.552397
O21   O     O_R   0.498360 0.178430 0.555780 -0.519513
O22   O     O_R   0.328690 0.978040 0.538950 -0.502745
O23   O     O_3   0.499990 0.999990 0.500010 -0.234504
O24   O     O_R   0.828710 0.851830 0.052170 -0.514126
O25   O     O_R   0.005980 0.823990 0.047210 -0.503060
O26   O     O_R   0.031900 0.688850 0.050170 -0.514285
O27   O     O_R   0.830940 0.518420 0.048680 -0.500779

loop_
_geom_bond_atom_site_label_1
_geom_bond_atom_site_label_2
_ccdc_geom_bond_type
C40   C47   A    
C99   C103  A    
Cr3   O16   S    
C99   H36   S    
C9    C45   A    
C27   H34   S    
C38   H60   S    
Cr2   O13   S    
C96   C102  A    
C101  H25   S    
C41   C42   A    
C105  C106  A    
C66   C68   A    
C19   C20   A    
C2    O9    A    
C91   H27   S    
C75   C76   A    
C90   C91   A    
C7    C8    A    
C12   H54   S    
C31   C32   A    
Cr6   O3    S    
C94   H31   S    
C48   C54   A    
C54   H8    S    
C93   C94   A    
C89   O3    A    
C28   C29   A    
C84   C86   A    
C26   H12   S    
C74   H14   S    
C5    C6    A    
Cr6   O9    S    
C4    H41   S    
C106  C107  A    
C58   H11   S    
C15   C16   A    
Cr3   O22   S    
C7    Cl2   S    
C93   H30   S    
C60   C62   S    
C18   C19   A    
C109  H49   S    
C106  H43   S    
C28   H15   S    
C24   H53   S    
C78   O27   A    
C14   H58   S    
Cr5   O11   S    
C61   O21   A    
C105  H37   S    
C15   H23   S    
C88   Cl1   S    
Cr1   O1    S    
C35   C36   A    
C53   C54   A    
C42   H62   S    
C68   C69   A    
Cr3   O23   S    
C98   C103  A    
C61   O12   A    
C107  C108  A    
C87   H35   S    
C32   H61   S    
C70   C71   A    
C10   C56   A    
C9    C10   A    
C17   H38   S    
Cr4   O25   S    
C67   O25   A    
C92   C102  S    
C98   H33   S    
C15   C23   A    
C77   C79   S    
C20   H51   S    
C37   O1    A    
C59   C60   A    
C55   C60   A    
C27   C30   A    
C94   C95   A    
C64   C89   S    
C39   H56   S    
C47   C67   S    
C104  C105  A    
Cr4   O24   S    
C1    O4    A    
C44   C46   T    
C50   C51   A    
C49   O18   A    
Cr6   O2    S    
C58   C64   A    
C23   C109  A    
C13   O5    A    
C51   C52   A    
C101  C102  A    
C6    H44   S    
C90   C95   A    
C100  O7    A    
Cr2   O12   S    
C76   C77   A    
C40   H45   S    
C72   C74   A    
Cr5   O26   S    
Cr5   O7    S    
C91   C92   A    
C51   H13   S    
C86   C87   A    
C75   C81   A    
C39   C43   A    
C59   H10   S    
C65   C71   A    
Cr4   O6    S    
Cr5   O8    S    
C13   O10   A    
C31   C37   S    
C73   O17   A    
C78   O2    A    
C14   H57   S    
C2    C81   S    
C97   H1    S    
C9    H46   S    
C1    O13   A    
C16   H3    S    
C37   O16   A    
C72   C77   A    
C57   H5    S    
C97   C109  A    
Cr6   O11   S    
C72   H16   S    
C83   C84   A    
C96   C98   A    
C73   C103  S    
Cr1   O18   S    
C96   H32   S    
C62   C63   T    
C17   C18   A    
C41   C47   A    
C108  H48   S    
C34   C45   A    
C13   C104  S    
C110  H39   S    
C67   O26   A    
C53   H7    S    
C34   H40   S    
C78   C85   S    
C12   O20   S    
Cr4   O11   S    
C12   C14   S    
C3    C8    A    
Cr2   O19   S    
C55   C57   A    
C43   C44   S    
C16   C85   A    
C68   H22   S    
C42   C43   A    
C74   C81   A    
C3    C4    A    
C19   C29   S    
C8    C107  S    
C39   C40   A    
C52   C53   A    
C57   C64   A    
C11   H50   S    
C49   O19   A    
C84   H29   S    
C25   C30   S    
Cr3   O15   S    
C55   H6    S    
Cr2   O14   S    
C99   C101  A    
C22   C23   S    
C82   C100  S    
C11   C34   A    
C36   O20   S    
C24   C26   A    
C4    C5    A    
Cr5   O27   S    
C52   C63   S    
C25   O15   A    
C83   H24   S    
C1    C48   S    
C26   C30   A    
C6    C7    A    
C76   H20   S    
C49   C56   S    
Cr4   O5    S    
C17   C22   A    
C31   C38   A    
C100  O6    A    
C32   C33   A    
C18   H26   S    
C58   C59   A    
C90   H28   S    
C75   H21   S    
C36   C38   A    
C104  C110  A    
Cr6   O10   S    
C73   O22   A    
C3    H42   S    
C33   H4    S    
C66   H19   S    
C5    C45   S    
C10   H47   S    
C82   C88   A    
Cr3   O21   S    
C48   C50   A    
C92   C93   A    
C33   C35   A    
C108  C110  A    
Cr1   O23   S    
C41   H2    S    
C69   C70   A    
C2    O8    A    
C71   H18   S    
C14   H59   S    
C85   C97   A    
C86   C95   S    
C11   C56   A    
C79   C80   T    
Cr1   O4    S    
C61   C65   S    
C24   C29   A    
C89   O24   A    
C20   C21   A    
C87   C88   A    
C65   C66   A    
C70   H17   S    
C27   C28   A    
Cr1   O17   S    
Cr2   O23   S    
C69   C80   S    
C50   H9    S    
C82   C83   A    
C21   C22   A    
C35   C46   S    
C25   O14   A    
C21   H52   S    
C12   H55   S    
