data_mof_unit_67295.cif
_audit_creation_date              2013-03-05T16:02:15-0500
_audit_creation_method            fapswitch 2.2
_symmetry_space_group_name_H-M    P1
_symmetry_Int_Tables_number       1
_space_group_crystal_system       triclinic
_cell_length_a                    8.284838
_cell_length_b                    14.700184
_cell_length_c                    15.11864
_cell_angle_alpha                 94.950285
_cell_angle_beta                  97.337261
_cell_angle_gamma                 92.673062
_cell_volume                      1816.28971932

loop_
_atom_site_label
_atom_site_type_symbol
_atom_site_description
_atom_site_fract_x
_atom_site_fract_y
_atom_site_fract_z
_atom_type_partial_charge
P1    P     P_3+3 0.018600 0.416790 0.295970 0.525515
O1    O     O_2   0.841230 0.444160 0.280430 -0.307316
O2    O     O_3   0.112860 0.447350 0.393710 -0.420654
O3    O     O_3   0.597940 0.615700 0.327690 -0.348441
O4    O     O_2   0.708997 0.552977 0.180403 -0.280417
O5    O     O_3   0.995051 0.297405 0.285179 -0.533254
O6    O     O_3   0.598468 0.715772 0.182019 -0.555300
C1    C     C_3   0.495178 0.864136 0.189124 0.417516
H1    H     H_    0.607219 0.887922 0.163781 0.160149
H2    H     H_    0.397970 0.850887 0.131255 0.075221
P2    P     P_3+3 0.635660 0.716530 0.560900 0.572229
P3    P     P_3+3 0.038739 0.782422 0.366017 0.644169
O7    O     O_2   0.802240 0.729740 0.532850 -0.343902
O8    O     O_3   0.017180 0.664790 0.371080 -0.332863
O9    O     O_2   0.928946 0.823317 0.432381 -0.270851
O10   O     O_3   0.671622 0.737482 0.677793 -0.478783
O11   O     O_3   0.934246 0.806214 0.262634 -0.476251
C2    C     C_3   0.040724 0.822445 0.199372 0.507204
H3    H     H_    0.158176 0.856816 0.231111 -0.040205
C3    C     C_3   0.961935 0.886334 0.132562 0.736225
C4    C     C_3   0.134324 0.760932 0.729606 0.479496
H4    H     H_    0.015313 0.744477 0.687856 0.060980
C5    C     C_3   0.114814 0.768809 0.829732 0.442871
H5    H     H_    0.051167 0.706520 0.847026 -0.063400
H6    H     H_    0.235772 0.778178 0.871599 0.116223
Ba1   Ba    Ba6+2 0.833400 0.543310 0.453520 1.778795
C6    C     C_3   0.976374 0.264899 0.367600 0.120651
H7    H     H_    0.872966 0.296383 0.394976 0.079287
H8    H     H_    0.088108 0.280455 0.416222 0.116596
C7    C     C_3   0.944120 0.161627 0.352513 0.541445
H9    H     H_    0.823374 0.145165 0.311877 0.149321
H10   H     H_    0.945613 0.131322 0.416788 -0.045347
C8    C     C_3   0.707964 0.657904 0.719142 0.378862
H11   H     H_    0.831894 0.638949 0.709326 -0.042123
H12   H     H_    0.621852 0.599127 0.693659 0.141143
C9    C     C_3   0.696705 0.677582 0.818300 -0.677577
H13   H     H_    0.776678 0.737965 0.847249 0.308846
H14   H     H_    0.731959 0.617916 0.854622 0.201587
H15   H     H_    0.570215 0.693387 0.827238 0.258497
P4    P     P_3+3 0.171090 0.583290 0.704030 0.453975
O12   O     O_2   0.348480 0.555870 0.719620 -0.346711
O13   O     O_3   0.076830 0.552730 0.606300 -0.368005
O14   O     O_3   0.591760 0.384380 0.672320 -0.310375
O15   O     O_3   0.244369 0.696601 0.709458 -0.611567
P5    P     P_3+3 0.142335 0.217002 0.628050 0.675792
O16   O     O_3   0.629090 0.386350 0.459240 -0.319694
O17   O     O_3   0.172520 0.335290 0.628920 -0.261228
O18   O     O_2   0.245617 0.173878 0.559330 -0.288118
O19   O     O_3   0.240538 0.186636 0.729742 -0.489443
Ba2   Ba    Ba6+2 0.356420 0.456770 0.546480 1.767975
P6    P     P_3+3 0.565420 0.604660 0.211633 0.641637
C10   C     C_3   0.522552 0.778256 0.236767 1.436719
O20   O     O_3   0.560610 0.613730 0.540770 -0.426367
C11   C     C_3   0.374402 0.263762 0.279836 0.237112
H16   H     H_    0.282172 0.239515 0.319827 0.150796
H17   H     H_    0.366758 0.338565 0.276731 0.007732
C12   C     C_3   0.326518 0.212124 0.186675 0.366502
H18   H     H_    0.192119 0.214059 0.170197 0.121356
P7    P     P_3+3 0.559165 0.270415 0.434026 0.574565
O21   O     O_2   0.387460 0.270290 0.467210 -0.345168
O22   O     O_3   0.532337 0.244661 0.316904 -0.532390
H19   H     H_    0.051968 0.903718 0.087121 0.080705
C13   C     C_3   0.148073 0.211201 0.798442 0.966616
H20   H     H_    0.023190 0.179719 0.782298 -0.078423
C14   C     C_3   0.227898 0.177663 0.886484 0.205412
H21   H     H_    0.348676 0.214749 0.904038 0.125994
P8    P     P_3+3 0.631143 0.396388 0.789585 0.525678
C15   C     C_3   0.669484 0.222597 0.805652 0.552570
H22   H     H_    0.784404 0.247447 0.782520 -0.031342
O23   O     O_2   0.508220 0.462548 0.822873 -0.343775
O24   O     O_3   0.571397 0.293873 0.830283 -0.557436
C16   C     C_3   0.717264 0.171662 0.889315 -0.168526
H23   H     H_    0.609872 0.162511 0.924381 0.211331
H24   H     H_    0.808376 0.214916 0.936348 0.156741
C17   C     C_R   0.840061 0.444587 0.832824 0.121174
C18   C     C_R   0.907965 0.450913 0.924290 0.015353
C19   C     C_R   0.051458 0.455347 0.108209 -0.068430
C20   C     C_R   0.902072 0.405104 0.074882 0.381649
C21   C     C_R   0.828500 0.409362 0.987307 -0.171947
C22   C     C_R   0.119276 0.464268 0.201444 0.191681
H25   H     H_    0.711563 0.373045 0.968182 0.187194
C23   C     C_R   0.271842 0.511108 0.225646 -0.329078
C24   C     C_R   0.077288 0.529975 0.795842 0.177501
C25   C     C_R   0.145095 0.537475 0.887851 -0.022142
C26   C     C_R   0.063300 0.495689 0.952236 0.114055
C27   C     C_R   0.292833 0.585213 0.916686 -0.207087
C28   C     C_R   0.370404 0.587000 0.003927 0.350828
C29   C     C_R   0.293472 0.545092 0.071115 -0.089594
C30   C     C_R   0.135711 0.499499 0.044396 0.106521
C31   C     C_R   0.362083 0.548690 0.163358 0.242920
C32   C     C_R   0.928697 0.480575 0.770248 -0.345247
H26   H     H_    0.353863 0.621380 0.870640 0.159041
H27   H     H_    0.323681 0.516955 0.295456 0.132768
H28   H     H_    0.876710 0.474037 0.700452 0.173268
C33   C     C_R   0.686802 0.944936 0.558665 0.366555
C34   C     C_R   0.506804 0.802876 0.502221 0.314145
C35   C     C_R   0.356324 0.768739 0.454562 -0.232777
C36   C     C_R   0.250105 0.825740 0.408888 0.181668
C37   C     C_R   0.298241 0.916942 0.404684 0.017294
C38   C     C_R   0.448635 0.954667 0.449629 -0.066924
C39   C     C_R   0.550996 0.899679 0.503069 -0.175997
H29   H     H_    0.318178 0.697561 0.456203 0.128473
C40   C     C_R   0.634680 0.091535 0.494680 -0.310932
C41   C     C_R   0.738748 0.036487 0.546430 -0.215961
C42   C     C_R   0.677984 0.187948 0.497894 0.122686
C43   C     C_R   0.817590 0.225486 0.554072 0.397662
C44   C     C_R   0.930581 0.169170 0.592855 -0.161617
C45   C     C_R   0.893638 0.074602 0.586599 0.271565
C46   C     C_R   0.490091 0.048613 0.445837 0.911761
H30   H     H_    0.213982 0.959345 0.368708 0.211062
F1    F     F_    0.622884 0.801049 0.316674 -0.656572
F2    F     F_    0.023627 0.842225 0.850135 -0.551991
F3    F     F_    0.063415 0.122720 0.308381 -0.605520
F4    F     F_    0.372867 0.743592 0.254277 -0.808775
F5    F     F_    0.451265 0.932171 0.248150 -0.648129
N1    N     N_R   0.400703 0.256531 0.117942 0.257495
O25   O     O_R   0.366707 0.339659 0.102822 -0.411007
O26   O     O_R   0.485762 0.210793 0.064703 -0.312283
N2    N     N_R   0.369199 0.116626 0.186684 0.310529
O27   O     O_R   0.521297 0.096283 0.197948 -0.225943
O28   O     O_R   0.255862 0.051374 0.166030 -0.291647
F6    F     F_    0.142069 0.305578 0.809330 -0.691926
N3    N     N_R   0.131135 0.200402 0.958570 0.214398
O29   O     O_R   0.084651 0.138373 0.007842 -0.278776
O30   O     O_R   0.105737 0.285321 0.980007 -0.409633
N4    N     N_R   0.249552 0.079021 0.877657 0.266516
O31   O     O_R   0.386736 0.047841 0.910252 -0.266946
O32   O     O_R   0.123488 0.021886 0.856963 -0.185343
N5    N     N_R   0.575633 0.163255 0.732723 0.248277
O33   O     O_R   0.538303 0.196157 0.656566 -0.355295
O34   O     O_R   0.504870 0.085713 0.746210 -0.256728
N6    N     N_R   0.781974 0.082169 0.870306 0.307055
O35   O     O_R   0.792576 0.025207 0.931714 -0.151040
O36   O     O_R   0.823906 0.056909 0.792366 -0.317742
N7    N     N_R   0.069777 0.736055 0.149766 0.248178
O37   O     O_R   0.998793 0.659722 0.166169 -0.315729
O38   O     O_R   0.154993 0.736059 0.083209 -0.463038
N8    N     N_R   0.832120 0.337667 0.122683 0.247108
O39   O     O_R   0.879452 0.254674 0.113616 -0.284992
O40   O     O_R   0.689295 0.350091 0.146251 -0.309578
N9    N     N_R   0.529202 0.631681 0.018973 0.247779
O41   O     O_R   0.543171 0.717839 0.005583 -0.340451
O42   O     O_R   0.653107 0.582380 0.009703 -0.368430
N10   N     N_R   0.025223 0.016496 0.598548 0.282817
O43   O     O_R   0.116878 0.020858 0.675152 -0.243768
O44   O     O_R   0.078393 0.979415 0.527663 -0.366435
F7    F     F_    0.853254 0.317111 0.563351 -0.683016
N11   N     N_R   0.728147 0.914327 0.645362 0.265258
O45   O     O_R   0.619285 0.914002 0.700173 -0.220666
O46   O     O_R   0.872164 0.887765 0.670893 -0.303045
F8    F     F_    0.386926 0.096676 0.393717 -0.648739
F9    F     F_    0.827616 0.841634 0.080195 -0.607415
N12   N     N_R   0.913530 0.971508 0.176672 0.239312
O47   O     O_R   0.894628 0.041953 0.130736 -0.205406
O48   O     O_R   0.855007 0.972323 0.252597 -0.354444
N13   N     N_R   0.203690 0.846365 0.704976 0.309802
O49   O     O_R   0.307138 0.896835 0.763165 -0.212525
O50   O     O_R   0.214780 0.851406 0.620589 -0.347425

loop_
_geom_bond_atom_site_label_1
_geom_bond_atom_site_label_2
_geom_bond_distance
_ccdc_geom_bond_type
P2    C34   1.901749 S    
C28   C29   1.433290 A    
C13   C14   1.539822 S    
N4    O31   1.299692 A    
O19   C13   1.400121 S    
O16   P7    1.767724 S    
C6    H8    1.107707 S    
P2    O7    1.503628 D    
C18   C21   1.391880 A    
C45   N10   1.419102 S    
C35   C36   1.402432 A    
N3    O29   1.300923 A    
C19   C20   1.422097 A    
C5    F2    1.381574 S    
C19   C30   1.441208 A    
P7    C42   1.855139 S    
N13   O49   1.301676 A    
C46   F8    1.353151 S    
N11   O46   1.294954 A    
O6    C10   1.407134 S    
C2    H3    1.106999 S    
Ba1   Ba2   4.524133 S    
P6    C31   1.870991 S    
C7    H9    1.109734 S    
N3    O30   1.296046 A    
N10   O44   1.296861 A    
C43   C44   1.386118 A    
C8    C9    1.517626 S    
N1    O25   1.299511 A    
C2    C3    1.543004 S    
P1    O1    1.536143 D    
C1    F5    1.375430 S    
O5    C6    1.396473 S    
N1    O26   1.300849 A    
C15   H22   1.112146 S    
P3    O11   1.758335 S    
C44   C45   1.401932 A    
C12   N1    1.458250 S    
C1    C10   1.518536 S    
P4    O15   1.737593 S    
P3    C36   1.851197 S    
C35   H29   1.082096 S    
P2    O20   1.596102 S    
C17   C32   1.393459 A    
C12   N2    1.463592 S    
P4    O13   1.597751 S    
P7    O21   1.567662 D    
C23   H27   1.082073 S    
C34   C39   1.451298 A    
C6    C7    1.521503 S    
P4    C24   1.884519 S    
C20   N8    1.420546 S    
O2    Ba2   2.855495 S    
C16   N6    1.463082 S    
O17   Ba2   2.771127 S    
P5    O17   1.743836 S    
C11   H17   1.109066 S    
P7    O22   1.761858 S    
Ba2   O20   2.810812 S    
C3    N12   1.464332 S    
O3    P6    1.733102 S    
P1    O5    1.747896 S    
N7    O37   1.300081 A    
C25   C26   1.420185 A    
C16   H23   1.101081 S    
C16   H24   1.104456 S    
C21   H25   1.077389 S    
C26   C30   1.440241 A    
C20   C21   1.392904 A    
C1    H1    1.101995 S    
C10   F1    1.382159 S    
C37   H30   1.083432 S    
C9    H15   1.106300 S    
C28   N9    1.425191 S    
C43   F7    1.356767 S    
C3    F9    1.383450 S    
P1    O2    1.597879 S    
C17   C18   1.418321 A    
O14   P8    1.753173 S    
O10   C8    1.400320 S    
C4    O15   1.385614 S    
P2    O10   1.752098 S    
C24   C25   1.425103 A    
P3    O9    1.541268 D    
P5    O19   1.748640 S    
C15   C16   1.542873 S    
C34   C35   1.405373 A    
O11   C2    1.408955 S    
C2    N7    1.464039 S    
C40   C42   1.440839 A    
O8    Ba1   2.770554 S    
N2    O28   1.299504 A    
N8    O40   1.295031 A    
O13   Ba2   2.965300 S    
N6    O36   1.299292 A    
C22   C23   1.401026 A    
P4    O12   1.536576 D    
C29   C31   1.432755 A    
C36   C37   1.389888 A    
C4    C5    1.537873 S    
P1    Ba1   3.452841 S    
O7    Ba1   2.931478 S    
N12   O48   1.301227 A    
C9    H14   1.105539 S    
Ba1   O20   2.943355 S    
O12   Ba2   2.893683 S    
C41   C45   1.415838 A    
C13   F6    1.386887 S    
C33   C41   1.428262 A    
Ba1   O13   2.854955 S    
N5    O33   1.293987 A    
P5    O18   1.541909 D    
N7    O38   1.300940 A    
C11   H16   1.098293 S    
C9    H13   1.105658 S    
N4    O32   1.297499 A    
C27   C28   1.389004 A    
O2    Ba1   2.964337 S    
O4    P6    1.543030 D    
C33   N11   1.428046 S    
P3    O8    1.739383 S    
N10   O43   1.296160 A    
C23   C31   1.407866 A    
O1    Ba1   2.893199 S    
O3    Ba1   2.855170 S    
N2    O27   1.302084 A    
O14   Ba2   2.854649 S    
C11   O22   1.406812 S    
C10   F4    1.384132 S    
C24   C32   1.392477 A    
C42   C43   1.404385 A    
O16   Ba2   2.942441 S    
P2    Ba1   3.486882 S    
C37   C38   1.405709 A    
C40   C46   1.414758 A    
P8    O23   1.541142 D    
Ba2   O21   2.931651 S    
C14   N4    1.466161 S    
N9    O42   1.298949 A    
O6    P6    1.749035 S    
C27   H26   1.073147 S    
N9    O41   1.301951 A    
C32   H28   1.082035 S    
C7    H10   1.102292 S    
C19   C22   1.441788 A    
C12   H18   1.111767 S    
C15   O24   1.409348 S    
P4    Ba2   3.453439 S    
N13   O50   1.298946 A    
C38   C39   1.423724 A    
C8    H12   1.103998 S    
C4    N13   1.454037 S    
C8    H11   1.101059 S    
N6    O35   1.300391 A    
P8    O24   1.750095 S    
N11   O45   1.300512 A    
C14   N3    1.458568 S    
C3    H19   1.112243 S    
C15   N5    1.460470 S    
N8    O39   1.300177 A    
Ba1   O16   2.811403 S    
C5    H5    1.102877 S    
C13   H20   1.102522 S    
C33   C39   1.416740 A    
C38   C46   1.415250 A    
C5    H6    1.110818 S    
P8    C17   1.855235 S    
C29   C30   1.434365 A    
C1    H2    1.108135 S    
C14   H21   1.106885 S    
C40   C41   1.418583 A    
P1    C22   1.909831 S    
C25   C27   1.382551 A    
N5    O34   1.301132 A    
N12   O47   1.300262 A    
C4    H4    1.105235 S    
C18   C26   1.414940 A    
C11   C12   1.536901 S    
P5    C44   1.853976 S    
C6    H7    1.101803 S    
C7    F3    1.379993 S    
