data_mof_unit_52409.cif
_audit_creation_date              2012-12-11T16:45:49-0500
_audit_creation_method            fapswitch 2.2
_symmetry_space_group_name_H-M    P1
_symmetry_Int_Tables_number       1
_space_group_crystal_system       triclinic
_cell_length_a                    19.985645
_cell_length_b                    17.41515
_cell_length_c                    15.359927
_cell_angle_alpha                 89.91178
_cell_angle_beta                  52.210733
_cell_angle_gamma                 89.82893
_cell_volume                      4224.81763632

loop_
_atom_site_label
_atom_site_type_symbol
_atom_type_description
_atom_site_fract_x
_atom_site_fract_y
_atom_site_fract_z
_atom_type_partial_charge
C1    C     C_R   0.849328 0.679692 0.029265 -0.242686
C2    C     C_R   0.188714 0.328253 0.011914 0.109642
C3    C     C_3   0.579610 0.708480 0.840340 -0.330025
C4    C     C_3   0.725425 0.452050 0.094743 -0.308282
C5    C     C_3   0.273011 0.467352 0.891051 -0.302352
C6    C     C_3   0.225426 0.952051 0.094745 -0.308276
C7    C     C_3   0.773013 0.967355 0.891049 -0.302359
C8    C     C_3   0.960652 0.531452 0.369330 -0.332556
C9    C     C_3   0.034594 0.531270 0.635852 -0.308281
C10   C     C_3   0.460652 0.031452 0.369330 -0.332555
C11   C     C_3   0.534594 0.031270 0.635851 -0.308286
C12   C     C_3   0.796807 0.786301 0.248389 0.342613
C13   C     C_R   0.328839 0.820772 0.958988 0.093295
C14   C     C_3   0.783856 0.861487 0.209236 -0.920668
C15   C     C_3   0.203565 0.785503 0.750377 0.331693
C16   C     C_3   0.216513 0.860995 0.788475 -0.903610
C17   C     C_3   0.296807 0.286301 0.248390 0.342614
C18   C     C_3   0.283857 0.361488 0.209236 -0.920667
C19   C     C_3   0.703563 0.285504 0.750378 0.331690
C20   C     C_3   0.716511 0.360996 0.788477 -0.903606
C21   C     C_3   0.825544 0.544436 0.800262 -0.289345
C22   C     C_3   0.164434 0.534291 0.205452 -0.304488
C23   C     C_3   0.325545 0.044434 0.800261 -0.289345
C24   C     C_R   0.688718 0.828256 0.011906 0.109643
C25   C     C_3   0.664434 0.034291 0.205453 -0.304491
C26   C     C_3   0.513232 0.341589 0.225414 -0.103902
C27   C     C_3   0.487963 0.345837 0.768681 -0.107975
C28   C     C_3   0.013232 0.841589 0.225415 -0.103900
C29   C     C_3   0.987964 0.845838 0.768681 -0.107977
C30   C     C_R   0.888489 0.685352 0.306475 -0.188052
C31   C     C_R   0.111288 0.685214 0.693242 -0.186670
C32   C     C_R   0.388488 0.185352 0.306476 -0.188052
C33   C     C_R   0.611287 0.185215 0.693242 -0.186670
C34   C     C_R   0.846744 0.712483 0.490636 0.225475
C35   C     C_R   0.154985 0.712106 0.507841 0.207438
C36   C     C_R   0.346743 0.212483 0.490636 0.225474
C37   C     C_R   0.150756 0.679262 0.971362 -0.268709
C38   C     C_R   0.654985 0.212106 0.507841 0.207440
C39   C     C_R   0.873639 0.741180 0.389107 -0.218937
C40   C     C_R   0.127634 0.740954 0.609482 -0.207528
C41   C     C_R   0.373638 0.241180 0.389107 -0.218936
C42   C     C_R   0.627634 0.240954 0.609482 -0.207528
C43   C     C_R   0.376219 0.322162 0.376249 0.427323
C44   C     C_R   0.624697 0.321966 0.622184 0.422875
C45   C     C_R   0.876219 0.822162 0.376249 0.427324
C46   C     C_R   0.124698 0.821966 0.622184 0.422876
C47   C     C_R   0.318993 0.367548 0.471575 0.426784
C48   C     C_R   0.349328 0.179692 0.029267 -0.242690
C49   C     C_R   0.680462 0.367693 0.526946 0.424385
C50   C     C_R   0.818993 0.867548 0.471575 0.426783
C51   C     C_R   0.180462 0.867693 0.526946 0.424385
C52   C     C_R   0.272507 0.331156 0.575649 -0.199081
C53   C     C_R   0.726587 0.331613 0.422822 -0.188330
C54   C     C_R   0.772506 0.831156 0.575649 -0.199082
C55   C     C_R   0.226587 0.831613 0.422822 -0.188328
C56   C     C_R   0.797636 0.758608 0.583314 0.188489
C57   C     C_R   0.202810 0.758483 0.415236 0.163836
C58   C     C_R   0.297636 0.258608 0.583315 0.188486
C59   C     C_R   0.650756 0.179263 0.971362 -0.268707
C60   C     C_R   0.702810 0.258483 0.415236 0.163838
C61   C     C_3   0.852134 0.745070 0.617618 -0.477108
C62   C     C_3   0.147960 0.743458 0.381851 -0.461392
C63   C     C_3   0.352134 0.245070 0.617618 -0.477108
C64   C     C_3   0.647960 0.243457 0.381850 -0.461389
C65   C     C_R   0.853218 0.326772 0.221046 0.606666
C66   C     C_R   0.145262 0.324810 0.777218 0.592378
C67   C     C_R   0.353218 0.826772 0.221046 0.606666
C68   C     C_R   0.645261 0.824810 0.777218 0.592375
C69   C     C_3   0.905469 0.695135 0.518087 -0.484258
C70   C     C_R   0.806376 0.361306 0.323719 -0.009749
C71   C     C_3   0.096334 0.693039 0.480992 -0.470171
C72   C     C_3   0.405469 0.195135 0.518087 -0.484256
C73   C     C_3   0.596334 0.193039 0.480992 -0.470175
C74   C     C_2   0.765663 0.197570 0.985642 0.643334
C75   C     C_2   0.239022 0.204163 0.009541 0.645645
C76   C     C_2   0.265663 0.697570 0.985641 0.643336
C77   C     C_2   0.739024 0.704165 0.009539 0.645643
C78   C     C_2   0.258328 0.774120 0.990295 -0.359975
C79   C     C_2   0.755877 0.779287 0.987752 -0.373421
C80   C     C_2   0.758328 0.274120 0.990294 -0.359972
C81   C     C_R   0.192552 0.360500 0.675190 0.004500
C82   C     C_2   0.255874 0.279285 0.987757 -0.373421
C83   C     C_R   0.840157 0.398868 0.933746 0.497020
C84   C     C_R   0.169414 0.404019 0.048460 0.501024
C85   C     C_R   0.340156 0.898868 0.933747 0.497017
C86   C     C_R   0.669416 0.904020 0.048457 0.501030
C87   C     C_R   0.907010 0.608746 0.304273 0.573644
C88   C     C_R   0.092196 0.608722 0.696108 0.573150
C89   C     C_R   0.407010 0.108746 0.304273 0.573643
C90   C     C_R   0.592196 0.108722 0.696108 0.573150
C91   C     C_R   0.873555 0.302604 0.995909 -0.168745
C92   C     C_R   0.306376 0.861306 0.323719 -0.009751
C93   C     C_R   0.138670 0.306711 0.985264 -0.170936
C94   C     C_R   0.373554 0.802604 0.995910 -0.168745
C95   C     C_R   0.638673 0.806713 0.985259 -0.170942
C96   C     C_R   0.894001 0.696621 0.212601 0.457456
C97   C     C_R   0.105971 0.696467 0.787055 0.462871
C98   C     C_R   0.394001 0.196621 0.212602 0.457455
C99   C     C_R   0.605971 0.196467 0.787055 0.462871
C100  C     C_R   0.855279 0.421821 0.315704 -0.236032
C101  C     C_R   0.144255 0.422006 0.684150 -0.240949
C102  C     C_R   0.355279 0.921821 0.315704 -0.236032
C103  C     C_R   0.692551 0.860499 0.675190 0.004503
C104  C     C_R   0.644255 0.922006 0.684150 -0.240948
C105  C     C_R   0.845902 0.593990 0.922276 0.639643
C106  C     C_R   0.153878 0.593024 0.078324 0.701563
C107  C     C_R   0.345901 0.093990 0.922276 0.639647
C108  C     C_R   0.653877 0.093024 0.078325 0.701574
C109  C     C_R   0.805357 0.656859 0.992477 -0.177050
C110  C     C_R   0.194536 0.655478 0.008664 -0.176566
C111  C     C_R   0.305356 0.156858 0.992478 -0.177048
C112  C     C_R   0.694535 0.155478 0.008665 -0.176574
C113  C     C_3   0.292960 0.470272 0.400725 -0.164223
C114  C     C_R   0.828839 0.320772 0.958987 0.093293
C115  C     C_3   0.704715 0.471003 0.598551 -0.147542
C116  C     C_3   0.792960 0.970271 0.400725 -0.164219
C117  C     C_3   0.204716 0.971003 0.598550 -0.147543
C118  C     C_3   0.856629 0.113835 0.983100 -0.325781
C119  C     C_3   0.135909 0.118920 0.048821 -0.322169
C120  C     C_3   0.356629 0.613835 0.983100 -0.325779
C121  C     C_3   0.635908 0.618923 0.048825 -0.322166
C122  C     C_3   0.901467 0.204267 0.185634 -0.350831
C123  C     C_3   0.079614 0.208479 0.840335 -0.330028
C124  C     C_3   0.401465 0.704266 0.185638 -0.350829
H1    H     H_    0.845586 0.734247 0.062867 0.192181
H2    H     H_    0.181493 0.711089 0.303113 0.243441
H3    H     H_    0.202376 0.854409 0.869988 0.255385
H4    H     H_    0.283207 0.880055 0.728253 0.192633
H5    H     H_    0.173946 0.905907 0.795712 0.268805
H6    H     H_    0.272796 0.294447 0.334656 0.066952
H7    H     H_    0.256820 0.241234 0.249559 0.065672
H8    H     H_    0.296492 0.354037 0.128703 0.252035
H9    H     H_    0.217508 0.381521 0.270131 0.194742
H10   H     H_    0.327342 0.406101 0.199740 0.270092
H11   H     H_    0.727669 0.293019 0.663975 0.067019
H12   H     H_    0.743510 0.240440 0.749788 0.062751
H13   H     H_    0.318730 0.212676 0.696300 0.241042
H14   H     H_    0.702374 0.354409 0.869990 0.255385
H15   H     H_    0.783205 0.380056 0.728255 0.192633
H16   H     H_    0.673944 0.405908 0.795713 0.268805
H17   H     H_    0.857627 0.487956 0.778962 0.158356
H18   H     H_    0.829534 0.562804 0.728045 0.156026
H19   H     H_    0.757623 0.539087 0.869540 0.183621
H20   H     H_    0.129821 0.480916 0.217946 0.146598
H21   H     H_    0.153904 0.546044 0.283976 0.153648
H22   H     H_    0.233033 0.525501 0.143257 0.188825
H23   H     H_    0.357630 0.987954 0.778963 0.158352
H24   H     H_    0.681493 0.211089 0.303112 0.243441
H25   H     H_    0.329537 0.062801 0.728043 0.156025
H26   H     H_    0.257624 0.039084 0.869538 0.183623
H27   H     H_    0.629822 0.980916 0.217945 0.146600
H28   H     H_    0.653903 0.046043 0.283977 0.153648
H29   H     H_    0.733033 0.025502 0.143257 0.188825
H30   H     H_    0.529492 0.279998 0.203267 0.137929
H31   H     H_    0.529158 0.360137 0.280116 0.095309
H32   H     H_    0.553347 0.374964 0.147873 0.155339
H33   H     H_    0.468755 0.284719 0.790605 0.135816
H34   H     H_    0.475645 0.366694 0.711053 0.099169
H35   H     H_    0.970078 0.717992 0.454720 0.197260
H36   H     H_    0.447766 0.380216 0.845342 0.160158
H37   H     H_    0.029493 0.779999 0.203267 0.137929
H38   H     H_    0.029157 0.860137 0.280117 0.095309
H39   H     H_    0.053347 0.874965 0.147874 0.155339
H40   H     H_    0.968756 0.784720 0.790605 0.135816
H41   H     H_    0.975647 0.866696 0.711053 0.099168
H42   H     H_    0.947767 0.880217 0.845342 0.160157
H43   H     H_    0.031156 0.714764 0.544907 0.198045
H44   H     H_    0.470078 0.217991 0.454719 0.197260
H45   H     H_    0.531156 0.214764 0.544906 0.198044
H46   H     H_    0.903250 0.634097 0.540637 0.214961
H47   H     H_    0.100195 0.631882 0.457944 0.216145
H48   H     H_    0.403249 0.134096 0.540637 0.214961
H49   H     H_    0.156128 0.733144 0.935137 0.193851
H50   H     H_    0.600196 0.131882 0.457943 0.216146
H51   H     H_    0.198545 0.802503 0.023718 0.129605
H52   H     H_    0.818069 0.803324 0.949931 0.118393
H53   H     H_    0.698546 0.302503 0.023717 0.129605
H54   H     H_    0.318065 0.303323 0.949937 0.118397
H55   H     H_    0.880026 0.248309 0.022139 0.203334
H56   H     H_    0.135068 0.251904 0.957727 0.200757
H57   H     H_    0.380026 0.748309 0.022139 0.203335
H58   H     H_    0.635073 0.751905 0.957721 0.200757
H59   H     H_    0.837916 0.457879 0.382264 0.236629
H60   H     H_    0.345584 0.234246 0.062869 0.192181
H61   H     H_    0.161642 0.459103 0.618405 0.237210
H62   H     H_    0.337916 0.957879 0.382264 0.236630
H63   H     H_    0.661642 0.959103 0.618405 0.237211
H64   H     H_    0.244740 0.431970 0.409169 0.104096
H65   H     H_    0.349708 0.475934 0.313556 0.180782
H66   H     H_    0.264296 0.528352 0.427589 0.182556
H67   H     H_    0.752954 0.432907 0.590900 0.099433
H68   H     H_    0.647629 0.476921 0.685493 0.181072
H69   H     H_    0.733000 0.529077 0.571555 0.185688
H70   H     H_    0.744739 0.931970 0.409169 0.104096
H71   H     H_    0.656127 0.233144 0.935138 0.193850
H72   H     H_    0.849707 0.975933 0.313555 0.180782
H73   H     H_    0.764296 0.028352 0.427589 0.182556
H74   H     H_    0.252955 0.932907 0.590900 0.099433
H75   H     H_    0.147630 0.976921 0.685493 0.181072
H76   H     H_    0.233001 0.029077 0.571554 0.185688
H77   H     H_    0.844549 0.054106 0.972886 0.202761
H78   H     H_    0.818034 0.129629 0.071927 0.154043
H79   H     H_    0.923897 0.115863 0.949887 0.160700
H80   H     H_    0.166169 0.066794 0.049947 0.185860
H81   H     H_    0.154467 0.128672 0.965152 0.137908
H82   H     H_    0.885420 0.797631 0.613704 0.180737
H83   H     H_    0.066503 0.109501 0.105457 0.176772
H84   H     H_    0.344548 0.554106 0.972887 0.202758
H85   H     H_    0.318035 0.629629 0.071927 0.154043
H86   H     H_    0.423897 0.615862 0.949887 0.160700
H87   H     H_    0.666171 0.566797 0.049950 0.185855
H88   H     H_    0.654463 0.628672 0.965158 0.137906
H89   H     H_    0.566503 0.609502 0.105465 0.176773
H90   H     H_    0.894965 0.200656 0.262888 0.169524
H91   H     H_    0.966814 0.221951 0.115814 0.157322
H92   H     H_    0.891177 0.145854 0.167241 0.167423
H93   H     H_    0.113186 0.795324 0.386606 0.178911
H94   H     H_    0.057653 0.214385 0.789232 0.177519
H95   H     H_    0.029522 0.227456 0.926026 0.147046
H96   H     H_    0.091561 0.146630 0.843232 0.170991
H97   H     H_    0.394959 0.700656 0.262895 0.169522
H98   H     H_    0.466813 0.721951 0.115821 0.157324
H99   H     H_    0.391176 0.645854 0.167243 0.167423
H100  H     H_    0.557644 0.714387 0.789242 0.177522
H101  H     H_    0.529521 0.727458 0.926032 0.147047
H102  H     H_    0.591556 0.646630 0.843236 0.170992
H103  H     H_    0.751175 0.501503 0.111067 0.163215
H104  H     H_    0.385421 0.297631 0.613703 0.180736
H105  H     H_    0.727219 0.400161 0.135712 0.152727
H106  H     H_    0.657359 0.462516 0.136417 0.161126
H107  H     H_    0.318214 0.515658 0.858344 0.195881
H108  H     H_    0.225783 0.482740 0.877703 0.151236
H109  H     H_    0.309570 0.415789 0.841550 0.149167
H110  H     H_    0.251177 0.001503 0.111069 0.163215
H111  H     H_    0.227220 0.900161 0.135714 0.152726
H112  H     H_    0.157359 0.962517 0.136421 0.161127
H113  H     H_    0.818201 0.015673 0.858351 0.195888
H114  H     H_    0.725785 0.982725 0.877695 0.151231
H115  H     H_    0.613186 0.295323 0.386606 0.178911
H116  H     H_    0.809589 0.915798 0.841547 0.149170
H117  H     H_    0.003010 0.573144 0.367754 0.214926
H118  H     H_    0.993638 0.498046 0.292070 0.168713
H119  H     H_    0.940074 0.490056 0.436402 0.148678
H120  H     H_    0.993918 0.571713 0.631507 0.211037
H121  H     H_    0.999075 0.502212 0.716730 0.168552
H122  H     H_    0.054743 0.486081 0.573321 0.142167
H123  H     H_    0.503010 0.073144 0.367755 0.214926
H124  H     H_    0.493638 0.998046 0.292070 0.168713
H125  H     H_    0.440073 0.990056 0.436402 0.148677
H126  H     H_    0.818729 0.712677 0.696300 0.241041
H127  H     H_    0.493918 0.071714 0.631508 0.211038
H128  H     H_    0.499076 0.002211 0.716729 0.168551
H129  H     H_    0.554743 0.986083 0.573319 0.142168
H130  H     H_    0.772795 0.794446 0.334656 0.066952
H131  H     H_    0.756820 0.741234 0.249558 0.065674
H132  H     H_    0.796492 0.854037 0.128704 0.252034
H133  H     H_    0.717507 0.881521 0.270132 0.194742
H134  H     H_    0.827342 0.906101 0.199740 0.270093
H135  H     H_    0.227670 0.793018 0.663974 0.067019
H136  H     H_    0.243511 0.740439 0.749788 0.062751
N1    N     N_R   0.908660 0.628630 0.995840 -0.057980
N2    N     N_R   0.096530 0.421430 0.063580 -0.115911
N3    N     N_R   0.403470 0.921430 0.936420 -0.111898
N4    N     N_R   0.596530 0.921430 0.063580 -0.115910
N5    N     N_R   0.927500 0.575670 0.211370 -0.136101
N6    N     N_R   0.072500 0.575670 0.788630 -0.137502
N7    N     N_R   0.427500 0.075670 0.211370 -0.136101
N8    N     N_R   0.572500 0.075670 0.788630 -0.137502
N9    N     N_R   0.908660 0.365680 0.995820 -0.087064
N10   N     N_R   0.091340 0.365680 0.004180 -0.091840
N11   N     N_R   0.408660 0.865680 0.995820 -0.087064
N12   N     N_R   0.091340 0.628630 0.004160 -0.057584
N13   N     N_R   0.591340 0.865680 0.004180 -0.091841
N14   N     N_R   0.922310 0.631420 0.151980 -0.118770
N15   N     N_R   0.077690 0.631420 0.848020 -0.119321
N16   N     N_R   0.422310 0.131420 0.151980 -0.118770
N17   N     N_R   0.577690 0.131420 0.848020 -0.119321
N18   N     N_R   0.927500 0.426330 0.211360 -0.085889
N19   N     N_R   0.072500 0.426330 0.788640 -0.087979
N20   N     N_R   0.427500 0.926330 0.211360 -0.085889
N21   N     N_R   0.572500 0.926330 0.788640 -0.087979
N22   N     N_R   0.903470 0.570760 0.936440 -0.106011
N23   N     N_R   0.408660 0.128630 0.995840 -0.057980
N24   N     N_R   0.096530 0.570760 0.063560 -0.109790
N25   N     N_R   0.403470 0.070760 0.936440 -0.106012
N26   N     N_R   0.596530 0.070760 0.063560 -0.109788
N27   N     N_R   0.591340 0.128630 0.004160 -0.057583
N28   N     N_R   0.922310 0.368460 0.151950 -0.101515
N29   N     N_R   0.077690 0.368460 0.848050 -0.105084
N30   N     N_R   0.422310 0.868460 0.151950 -0.101514
N31   N     N_R   0.577690 0.868460 0.848050 -0.105084
N32   N     N_R   0.903470 0.421430 0.936420 -0.111898
Ni1   Ni    Ni4+2 1.000000 0.630300 0.000000 0.260932
Ni2   Ni    Ni4+2 0.500000 0.130300 0.000000 0.260933
Ni3   Ni    Ni4+2 1.000000 0.369700 0.000000 0.176408
Ni4   Ni    Ni4+2 0.500000 0.869700 0.000000 0.176408
Ni5   Ni    Ni4+2 0.988090 0.497570 0.863760 0.186654
Ni6   Ni    Ni4+2 0.011910 0.497570 0.136240 0.186646
Ni7   Ni    Ni4+2 0.488090 0.997570 0.863760 0.186653
Ni8   Ni    Ni4+2 0.511910 0.997570 0.136240 0.186648
O1    O     O_3   0.316129 0.447030 0.467061 -0.600628
O2    O     O_3   0.155374 0.249076 0.794370 -0.655018
O3    O     O_3   0.340196 0.754145 0.198652 -0.655439
O4    O     O_3   0.655372 0.749074 0.794369 -0.655018
O5    O     O_3   0.768587 0.443760 0.979457 -0.660733
O6    O     O_3   0.234886 0.456007 0.004259 -0.669158
O7    O     O_3   0.268586 0.943760 0.979459 -0.660735
O8    O     O_3   0.734886 0.956010 0.004258 -0.669160
O9    O     O_3   0.888937 0.569848 0.394884 -0.646651
O10   O     O_3   0.107111 0.569916 0.607216 -0.649759
O11   O     O_3   0.388937 0.069848 0.394884 -0.646651
O12   O     O_3   0.682304 0.447234 0.531697 -0.600392
O13   O     O_3   0.607111 0.069916 0.607215 -0.649759
O14   O     O_3   0.883877 0.765584 0.177323 -0.581983
O15   O     O_3   0.116468 0.765309 0.821837 -0.579858
O16   O     O_3   0.383877 0.265584 0.177323 -0.581982
O17   O     O_3   0.616467 0.265309 0.821838 -0.579858
O18   O     O_3   0.867750 0.599241 0.817800 -0.668266
O19   O     O_3   0.133029 0.597197 0.182485 -0.673551
O20   O     O_3   0.367749 0.099241 0.817801 -0.668266
O21   O     O_3   0.633029 0.097197 0.182486 -0.673552
O22   O     O_3   0.427577 0.356604 0.273663 -0.580357
O23   O     O_3   0.816128 0.947030 0.467061 -0.600628
O24   O     O_3   0.573266 0.356202 0.724776 -0.579399
O25   O     O_3   0.927577 0.856604 0.273663 -0.580357
O26   O     O_3   0.073267 0.856202 0.724776 -0.579398
O27   O     O_3   0.182304 0.947234 0.531697 -0.600392
O28   O     O_3   0.845772 0.164052 0.920484 -0.617858
O29   O     O_3   0.154945 0.181874 0.087152 -0.614025
O30   O     O_3   0.345772 0.664052 0.920484 -0.617858
O31   O     O_3   0.654946 0.681878 0.087152 -0.614025
O32   O     O_3   0.840195 0.254145 0.198652 -0.655438

loop_
_geom_bond_atom_site_label_1
_geom_bond_atom_site_label_2
_ccdc_geom_bond_type
C123  H96   S    
C34   C56   A    
C3    H100  S    
C17   H7    S    
C72   H44   S    
C18   H8    S    
C19   C20   S    
C27   H34   S    
C40   C46   A    
C102  H62   S    
C25   H28   S    
C72   H48   S    
N8    Ni7   S    
C74   C112  S    
C83   O5    S    
N23   Ni2   S    
C122  H91   S    
C18   H9    S    
C30   C96   A    
C7    H113  S    
C61   H126  S    
N19   N29   A    
C5    H107  S    
C119  H81   S    
C37   N12   A    
C117  H75   S    
C92   C102  A    
C61   H82   S    
C85   O7    S    
C115  H67   S    
C86   O8    S    
C75   O29   S    
C35   C71   S    
C41   C43   A    
C83   C114  A    
C84   N2    A    
N32   Ni5   S    
C47   O1    S    
C42   C44   A    
C85   N3    A    
C89   O11   S    
C86   N4    A    
C93   H56   S    
C77   C79   D    
C120  H86   S    
C120  H84   S    
C54   C103  S    
N9    N32   A    
C62   H2    S    
C59   H71   S    
C19   H12   S    
C11   O13   S    
C113  H64   S    
C59   N27   A    
N8    N17   A    
C67   O3    S    
N13   Ni4   S    
C121  H89   S    
C29   H42   S    
C55   C92   S    
C90   O13   S    
C104  N21   A    
N16   Ni2   S    
N6    N15   A    
C82   H54   S    
C9    H122  S    
C97   N15   A    
C34   C69   S    
C65   O32   S    
C52   C58   A    
N21   N31   A    
C123  H94   S    
C124  H98   S    
C55   C57   A    
N20   Ni8   S    
C121  O31   S    
C6    H112  S    
C119  H80   S    
C14   H133  S    
C47   C52   A    
C13   C94   A    
C60   C64   S    
C80   H53   S    
C35   C40   A    
C116  H73   S    
N18   Ni6   S    
C45   C50   A    
C49   C53   A    
C67   C92   A    
C32   C98   A    
C115  O12   S    
C51   C55   A    
N9    Ni3   S    
C108  N26   A    
C14   H132  S    
C68   N31   A    
C13   C85   A    
C30   C87   A    
C43   C47   A    
N12   N24   A    
N1    Ni1   S    
C96   N14   A    
C68   C103  A    
C81   C101  A    
C113  H66   S    
N5    Ni6   S    
N29   Ni3   S    
N30   Ni4   S    
C33   C42   S    
C20   H15   S    
N14   Ni1   S    
C76   C78   D    
C21   H18   S    
C5    O6    S    
C44   O24   S    
C29   H41   S    
C65   C70   A    
C29   O26   S    
C4    H103  S    
C99   O17   S    
C100  H59   S    
C15   O15   S    
C22   H22   S    
C32   C41   S    
C124  H99   S    
C94   H57   S    
C106  N24   A    
C39   C45   A    
C116  H70   S    
N3    N11   A    
C6    H110  S    
C71   H43   S    
C64   H24   S    
C63   H13   S    
C26   H31   S    
C118  H78   S    
C101  H61   S    
C53   C60   A    
C28   H37   S    
C76   O30   S    
C34   C39   A    
C62   H93   S    
C122  O32   S    
C46   C51   A    
C33   C99   A    
C24   C79   S    
C28   O25   S    
C17   C18   S    
C25   O21   S    
C124  H97   S    
C77   C109  S    
C3    H102  S    
C38   C60   A    
C113  O1    S    
C78   H51   S    
C71   H47   S    
C22   H20   S    
C96   O14   S    
C3    O4    S    
C105  C109  A    
C13   C78   S    
C27   O24   S    
C17   H6    S    
C107  C111  A    
C79   H52   S    
N4    Ni8   S    
C12   C14   S    
C75   C82   D    
C6    O7    S    
C27   H33   S    
C120  O30   S    
N12   Ni1   S    
C11   H128  S    
N19   Ni5   S    
C91   C114  A    
C25   H27   S    
C12   O14   S    
C4    H105  S    
C124  O3    S    
C84   O6    S    
C99   N17   A    
C51   O27   S    
C8    H117  S    
N24   Ni6   S    
C69   H35   S    
C122  H92   S    
C62   C71   S    
C18   H10   S    
C23   H25   S    
C52   C81   S    
C16   H3    S    
C45   O25   S    
C116  H72   S    
C10   H124  S    
C7    H116  S    
N2    Ni6   S    
C10   H123  S    
C116  O23   S    
C24   C86   A    
C105  O18   S    
C15   H136  S    
C36   C72   S    
C28   H39   S    
C107  O20   S    
C87   O9    S    
C2    C84   A    
C50   C54   A    
N18   N28   A    
C107  N25   A    
C19   H11   S    
C31   C40   S    
C121  H88   S    
C20   H14   S    
C73   H50   S    
C123  H95   S    
N15   Ni1   S    
C1    C109  A    
N17   Ni2   S    
C66   N29   A    
N3    Ni7   S    
C49   O12   S    
C9    H121  S    
C108  O21   S    
C12   H131  S    
C74   C80   D    
N6    Ni5   S    
C29   H40   S    
C36   C41   A    
C19   O17   S    
C43   O22   S    
C53   C70   S    
C48   N23   A    
C74   O28   S    
N7    N16   A    
C25   H29   S    
C123  O2    S    
C14   H134  S    
C24   C95   A    
C9    O10   S    
C8    H119  S    
C23   H23   S    
N20   N30   A    
C122  H90   S    
C89   N7    A    
C90   N8    A    
N2    N10   A    
C32   C89   A    
C117  O27   S    
C7    H114  S    
C59   C112  A    
C5    H108  S    
C37   C110  A    
C117  H76   S    
C106  O19   S    
C87   N5    A    
C115  H68   S    
C23   H26   S    
C2    C82   S    
C73   H45   S    
C48   H60   S    
C120  H85   S    
C66   O2    S    
C31   C88   A    
C100  N18   A    
C101  N19   A    
C102  N20   A    
C83   N32   A    
C63   H104  S    
C113  H65   S    
C50   O23   S    
C75   C111  S    
N4    N13   A    
C95   N13   A    
C35   C57   A    
C20   H16   S    
N31   Ni4   S    
C21   H17   S    
C66   C81   A    
C11   H129  S    
C31   C97   A    
C26   O22   S    
C108  C112  A    
C63   C72   S    
C76   C110  S    
C103  C104  A    
C56   C61   S    
C44   C49   A    
C6    H111  S    
N23   N25   A    
C26   H32   S    
C118  H79   S    
N21   Ni7   S    
C28   H38   S    
C57   C62   S    
C10   O11   S    
C67   N30   A    
C21   O18   S    
C65   N28   A    
C77   O31   S    
C23   O20   S    
C1    H1    S    
C38   C42   A    
C36   C58   A    
N26   N27   A    
C15   C16   S    
N28   Ni3   S    
C64   H115  S    
N10   Ni3   S    
C93   N10   A    
C91   H55   S    
C8    O9    S    
C30   C39   S    
C3    H101  S    
C4    O5    S    
C118  O28   S    
C115  H69   S    
C5    H109  S    
N25   Ni7   S    
N26   Ni8   S    
C70   C100  A    
C105  N22   A    
C54   C56   A    
C46   O26   S    
C12   H130  S    
C17   O16   S    
C21   H19   S    
C27   H36   S    
C11   H127  S    
C4    H106  S    
C16   H5    S    
C22   H21   S    
C8    H118  S    
C64   C73   S    
N7    Ni8   S    
C16   H4    S    
C98   N16   A    
C1    N1    A    
C80   C114  S    
C7    O8    S    
C26   H30   S    
C118  H77   S    
C119  H83   S    
C15   H135  S    
C106  C110  A    
C61   C69   S    
C58   C63   S    
C104  H63   S    
C22   O19   S    
C2    C93   A    
C91   N9    A    
C95   H58   S    
C88   O10   S    
C119  O29   S    
N27   Ni2   S    
C10   H125  S    
C33   C90   A    
C88   N6    A    
C94   N11   A    
C69   H46   S    
C121  H87   S    
C68   O4    S    
N11   Ni4   S    
C117  H74   S    
C37   H49   S    
N1    N22   A    
N5    N14   A    
C48   C111  A    
N22   Ni5   S    
C97   O15   S    
C98   O16   S    
C9    H120  S    
C38   C73   S    
