data_mof_unit_39235.cif
_audit_creation_date              2013-03-05T16:44:37-0500
_audit_creation_method            fapswitch 2.2
_symmetry_space_group_name_H-M    P1
_symmetry_Int_Tables_number       1
_space_group_crystal_system       triclinic
_cell_length_a                    27.641421
_cell_length_b                    10.751597
_cell_length_c                    9.90217
_cell_angle_alpha                 89.529642
_cell_angle_beta                  88.744154
_cell_angle_gamma                 92.138061
_cell_volume                      2939.94505409

loop_
_atom_site_label
_atom_site_type_symbol
_atom_site_description
_atom_site_fract_x
_atom_site_fract_y
_atom_site_fract_z
_atom_type_partial_charge
O1    O     O_R   0.500010 0.316790 0.614690 -0.608451
O2    O     O_R   0.500000 0.316760 0.385350 -0.619811
C1    C     C_R   0.500690 0.260560 0.499925 0.914966
O3    O     O_R   0.428760 0.500040 0.614660 -0.617617
O4    O     O_R   0.428750 0.500000 0.385310 -0.612844
C2    C     C_R   0.406056 0.502500 0.501861 0.884127
Zn1   Zn    Zn3+2 0.500000 0.500020 0.653130 1.006007
Zn2   Zn    Zn3+2 0.500000 0.499980 0.346870 1.007933
O5    O     O_R   0.500000 0.683240 0.614650 -0.619518
O6    O     O_R   0.499990 0.683210 0.385310 -0.623699
O7    O     O_R   0.571250 0.500000 0.614690 -0.607300
O8    O     O_R   0.571240 0.499960 0.385340 -0.635309
C3    C     C_R   0.499017 0.739933 0.499225 0.938646
C4    C     C_R   0.593799 0.497933 0.498198 0.970207
C5    C     C_R   0.175333 0.421619 0.571650 0.555461
O9    O     O_2   0.197765 0.312562 0.562782 -0.508756
N1    N     N_R   0.201173 0.530945 0.546454 -0.360010
C6    C     C_R   0.178746 0.641977 0.539082 0.520764
C7    C     C_R   0.277935 0.580253 0.421623 -0.076919
C8    C     C_R   0.328180 0.573780 0.410981 -0.240341
C9    C     C_R   0.328224 0.461194 0.623607 -0.166339
C10   C     C_R   0.278627 0.471645 0.637004 -0.078689
C11   C     C_R   0.252921 0.528421 0.534776 0.275596
C12   C     C_R   0.101325 0.532429 0.573224 -0.068192
C13   C     C_R   0.125360 0.422473 0.601361 -0.065298
C14   C     C_R   0.098766 0.320205 0.661280 -0.061842
C15   C     C_R   0.128233 0.644065 0.546593 -0.010444
C16   C     C_R   0.353384 0.510363 0.509816 -0.054718
H1    H     H_    0.346749 0.414548 0.702650 0.196891
H2    H     H_    0.259954 0.433720 0.726332 0.176078
C17   C     C_R   0.646612 0.499229 0.492372 -0.094826
C18   C     C_R   0.973210 0.414240 0.583383 0.073236
C19   C     C_R   0.976990 0.631477 0.497900 -0.011459
C20   C     C_R   0.949955 0.520470 0.533567 0.057409
C21   C     C_R   0.946125 0.300787 0.594233 -0.154597
C22   C     C_R   0.896170 0.296750 0.584322 -0.100046
C23   C     C_R   0.872271 0.403690 0.548372 -0.014235
C24   C     C_R   0.899350 0.513496 0.514625 -0.051372
C25   C     C_R   0.875845 0.615173 0.459763 -0.072108
C26   C     C_R   0.825548 0.607268 0.445307 0.581491
N2    N     N_R   0.799564 0.502908 0.488070 -0.330197
C27   C     C_R   0.821866 0.402158 0.539817 0.571190
C28   C     C_R   0.721597 0.414265 0.404439 -0.008851
C29   C     C_R   0.670594 0.409331 0.414519 -0.007320
C30   C     C_R   0.673440 0.591793 0.561830 -0.037673
C31   C     C_R   0.723507 0.587359 0.562306 -0.207958
C32   C     C_R   0.747765 0.501402 0.483559 0.267289
O10   O     O_2   0.795283 0.301260 0.583475 -0.554697
C33   C     C_R   0.023491 0.420918 0.607444 0.009376
C34   C     C_R   0.050360 0.530391 0.569044 0.062832
C35   C     C_R   0.026856 0.638870 0.527814 0.068072
C36   C     C_R   0.048056 0.325306 0.674905 0.026943
H3    H     H_    0.876569 0.208505 0.600210 0.198812
H4    H     H_    0.963290 0.213127 0.606797 0.178233
O11   O     O_2   0.205158 0.749453 0.523476 -0.536204
C37   C     C_R   0.104035 0.755135 0.532489 -0.112992
H5    H     H_    0.347316 0.620765 0.327913 0.194826
H6    H     H_    0.258579 0.625896 0.342525 0.170364
H7    H     H_    0.123699 0.844018 0.523991 0.197361
C38   C     C_R   0.953247 0.725921 0.425107 0.125171
C39   C     C_R   0.903123 0.719307 0.413405 -0.134450
O12   O     O_2   0.802682 0.702948 0.389034 -0.528351
C40   C     C_R   0.053834 0.752565 0.527014 -0.165095
H8    H     H_    0.885780 0.793483 0.360434 0.215134
H9    H     H_    0.744358 0.654993 0.619910 0.158589
H10   H     H_    0.036426 0.840598 0.525742 0.176605
C41   C     C_R   0.524901 0.065257 0.600244 -0.017333
C42   C     C_R   0.504302 0.129532 0.495591 -0.096122
C43   C     C_R   0.487818 0.066508 0.381849 -0.176891
H11   H     H_    0.473259 0.116507 0.297298 0.181013
C44   C     C_R   0.485232 0.938371 0.381227 0.166492
C45   C     C_R   0.501022 0.872581 0.495609 -0.145741
C46   C     C_R   0.523340 0.937203 0.601298 0.050021
C47   C     C_3   0.511945 0.933626 0.751050 -0.262797
C48   C     C_3   0.515256 0.075642 0.747875 -0.263294
H12   H     H_    0.474719 0.895162 0.774407 0.196723
H13   H     H_    0.480155 0.117129 0.771042 0.197957
C49   C     C_R   0.472086 0.415093 0.072482 0.224037
N3    N     N_R   0.499670 0.499140 0.142800 -0.139602
C50   C     C_R   0.533590 0.570254 0.068134 0.016610
C51   C     C_R   0.533007 0.569966 0.923994 -0.010396
H14   H     H_    0.559004 0.626437 0.865297 0.167799
N4    N     N_R   0.499670 0.499180 0.857150 -0.135070
C52   C     C_R   0.473606 0.411316 0.931036 0.204617
C53   C     C_3   0.420918 0.378413 0.923104 -0.299897
C54   C     C_3   0.418324 0.388089 0.077153 -0.366155
H15   H     H_    0.401226 0.450034 0.867127 0.200134
H16   H     H_    0.408521 0.299637 0.132003 0.132867
I1    I     I_    0.987148 0.861879 0.291154 -0.300616
C55   C     C_2   0.651165 0.699573 0.627454 0.411338
H17   H     H_    0.668927 0.745332 0.711271 0.087208
O13   O     O_2   0.614525 0.743179 0.583234 -0.612044
I2    I     I_    0.449359 0.860998 0.211356 -0.221395
C56   C     C_2   0.549661 0.875310 0.835077 0.458125
H18   H     H_    0.582977 0.844165 0.789928 0.113520
O14   O     O_2   0.543819 0.869017 0.957387 -0.531637
C57   C     C_2   0.557597 0.138313 0.817095 0.551251
H19   H     H_    0.594465 0.116759 0.788270 0.068347
O15   O     O_2   0.550720 0.213394 0.906504 -0.568694
C58   C     C_2   0.571257 0.647997 0.134290 0.547995
H20   H     H_    0.567198 0.676516 0.237469 0.133039
O16   O     O_2   0.608158 0.682305 0.072479 -0.564871
C59   C     C_2   0.411594 0.247505 0.875773 0.424736
H21   H     H_    0.422504 0.169303 0.936663 0.090926
O17   O     O_2   0.391976 0.227582 0.768554 -0.570559
C60   C     C_2   0.387271 0.493279 0.118473 0.503687
H22   H     H_    0.351366 0.471578 0.160233 0.055495
O18   O     O_2   0.400233 0.601469 0.096736 -0.540146
C61   C     C_2   0.122823 0.214158 0.725052 0.579826
H23   H     H_    0.107348 0.120451 0.715509 0.059473
O19   O     O_2   0.158297 0.231207 0.794877 -0.510903
I3    I     I_    0.629631 0.265372 0.313318 -0.284934
C62   C     C_2   0.747195 0.330614 0.310129 0.512841
H24   H     H_    0.731411 0.240517 0.284236 0.106115
O20   O     O_2   0.786115 0.362546 0.257579 -0.543064
I4    I     I_    0.014092 0.221801 0.841674 -0.301115

loop_
_geom_bond_atom_site_label_1
_geom_bond_atom_site_label_2
_geom_bond_distance
_ccdc_geom_bond_type
Zn1   N4    2.020006 S    
N2    C27   1.367672 A    
C47   C56   1.500168 S    
C21   C22   1.385568 A    
C12   C15   1.408177 A    
C4    C17   1.459230 S    
C57   H19   1.086135 S    
C38   I1    2.141440 S    
Zn1   O7    1.997698 S    
N1    C11   1.433799 S    
C47   H12   1.113338 S    
C22   C23   1.394766 A    
C1    C42   1.416932 S    
C43   H11   1.084165 S    
C61   O19   1.221274 D    
O4    C2    1.302391 A    
O7    C4    1.299823 A    
C54   H16   1.112945 S    
C5    C13   1.406391 A    
C60   H22   1.083312 S    
C5    O9    1.349271 S    
C48   C57   1.509148 S    
C26   O12   1.350105 S    
N1    C6    1.367660 A    
C46   C47   1.509065 S    
C23   C27   1.397192 A    
C43   C44   1.376935 A    
O5    C3    1.292204 A    
C22   H3    1.083474 S    
C51   N4    1.359841 A    
C2    C16   1.461975 S    
C7    C8    1.394921 A    
C42   C43   1.395448 A    
Zn2   N3    2.021049 S    
C41   C46   1.375795 A    
C53   C59   1.502037 S    
C49   C54   1.503121 S    
C36   I4    2.161195 S    
C40   H10   1.077776 S    
C20   C24   1.414689 A    
C9    C10   1.383287 A    
C50   C58   1.478438 S    
C21   H4    1.078375 S    
C54   C60   1.499284 S    
O3    Zn1   2.013870 S    
C57   O15   1.219593 D    
C19   C20   1.422174 A    
C53   H15   1.110836 S    
C7    H6    1.082670 S    
C12   C34   1.409604 A    
C25   C39   1.395046 A    
C17   C29   1.416203 A    
C41   C42   1.385330 A    
C18   C21   1.409305 A    
C35   C40   1.407834 A    
C12   C13   1.406383 A    
C31   H9    1.084566 S    
O3    C2    1.293677 A    
C47   C48   1.526251 S    
C25   C26   1.400263 A    
C15   C37   1.397813 A    
C50   C51   1.427773 A    
C8    C16   1.400865 A    
C13   C14   1.418190 A    
C53   C54   1.530106 S    
C9    H1    1.075464 S    
C51   H14   1.079883 S    
C38   C39   1.392072 A    
O1    C1    1.291700 A    
C18   C20   1.421422 A    
C39   H8    1.083354 S    
C7    C11   1.403956 A    
C28   C29   1.410126 A    
C23   C24   1.407954 A    
C14   C36   1.408376 A    
C55   O13   1.220146 D    
N4    C52   1.364364 A    
Zn2   O8    2.013870 S    
C33   C36   1.422929 A    
C58   O16   1.221448 D    
C34   C35   1.417549 A    
N2    C32   1.432960 S    
C37   C40   1.389137 A    
C59   O17   1.219604 D    
C27   O10   1.350015 S    
C52   C53   1.489774 S    
C56   O14   1.219333 D    
C30   C55   1.480640 S    
C48   H13   1.103242 S    
C14   C61   1.484627 S    
C6    O11   1.349581 S    
C29   I3    2.150889 S    
C26   N2    1.368527 A    
C9    C16   1.400425 A    
O8    C4    1.292038 A    
C19   C38   1.428226 A    
C30   C31   1.386624 A    
C41   C48   1.486076 S    
C62   H24   1.082531 S    
Zn1   O5    2.003346 S    
C31   C32   1.395309 A    
C10   H2    1.083247 S    
O1    Zn1   2.009527 S    
O2    Zn2   2.003347 S    
C6    C15   1.397635 A    
C45   C46   1.402435 A    
O6    C3    1.286953 A    
O4    Zn2   1.997701 S    
C5    N1    1.370684 A    
C44   I2    2.130540 S    
C3    C45   1.425306 S    
C19   C35   1.415640 A    
C37   H7    1.083355 S    
O2    C1    1.281881 A    
C44   C45   1.416073 A    
C61   H23   1.085421 S    
C28   C62   1.487932 S    
C49   N3    1.365633 A    
C55   H17   1.085575 S    
C24   C25   1.403926 A    
C60   O18   1.220320 D    
C58   H20   1.073856 S    
C56   H18   1.080511 S    
C18   C33   1.414522 A    
N3    C50   1.384621 A    
C49   C52   1.401301 A    
Zn2   O6    2.009526 S    
C33   C34   1.413018 A    
C17   C30   1.411366 A    
C59   H21   1.086275 S    
C10   C11   1.398561 A    
C8    H5    1.079688 S    
C28   C32   1.414573 A    
C62   O20   1.221075 D    
