data_mof_unit_56589.cif
_audit_creation_date              2012-12-10T17:16:49-0500
_audit_creation_method            fapswitch 2.2
_symmetry_space_group_name_H-M    P1
_symmetry_Int_Tables_number       1
_space_group_crystal_system       triclinic
_cell_length_a                    23.511498
_cell_length_b                    12.996214
_cell_length_c                    11.667077
_cell_angle_alpha                 100.067866
_cell_angle_beta                  94.048178
_cell_angle_gamma                 90.711551
_cell_volume                      3500.23101937

loop_
_atom_site_label
_atom_site_type_symbol
_atom_type_description
_atom_site_fract_x
_atom_site_fract_y
_atom_site_fract_z
_atom_type_partial_charge
C1    C     C_R   0.500194 0.298992 0.478254 0.817342
C2    C     C_R   0.499679 0.700981 0.521705 0.818546
C3    C     C_R   0.242221 0.505265 0.604763 0.438250
C4    C     C_R   0.756696 0.469571 0.391847 0.423955
C5    C     C_R   0.301714 0.504700 0.604737 -0.325365
C6    C     C_R   0.697327 0.472669 0.393262 -0.324120
C7    C     C_R   0.328268 0.498845 0.499814 -0.160802
C8    C     C_R   0.671639 0.498050 0.499189 -0.149231
C9    C     C_R   0.294601 0.491622 0.394306 -0.304605
C10   C     C_R   0.706030 0.521874 0.604173 -0.331398
C11   C     C_R   0.235065 0.488514 0.392986 0.430167
C12   C     C_R   0.765692 0.519443 0.603736 0.428522
C13   C     C_R   0.208821 0.496566 0.498571 0.174685
C14   C     C_R   0.790808 0.495348 0.496989 0.208217
C15   C     C_R   0.497256 0.814504 0.534559 -0.165548
C16   C     C_R   0.502436 0.185425 0.465248 -0.164089
C17   C     C_R   0.517013 0.014594 0.350594 -0.275408
C18   C     C_R   0.482440 0.985276 0.649085 -0.274334
C19   C     C_R   0.515948 0.122917 0.359323 0.421427
C20   C     C_R   0.483150 0.876924 0.640067 0.422021
C21   C     C_R   0.491814 0.139014 0.561450 -0.302712
C22   C     C_R   0.508197 0.860956 0.438567 -0.299582
C23   C     C_R   0.390852 0.499725 0.500054 0.850308
C24   C     C_R   0.609130 0.499858 0.499849 0.848347
C25   C     C_R   0.493576 0.031268 0.553024 0.108439
C26   C     C_R   0.506302 0.968681 0.446923 0.109269
C27   C     C_R   0.442559 0.408958 0.021076 -0.424720
C28   C     C_R   0.557438 0.590918 0.978952 -0.424528
C29   C     C_R   0.448685 0.414707 0.144336 0.680351
C30   C     C_R   0.551212 0.585418 0.855812 0.675837
C31   C     C_R   0.525500 0.538031 0.156959 -0.066029
C32   C     C_R   0.474541 0.461827 0.843007 -0.067187
C33   C     C_R   0.520995 0.532533 0.034274 0.025572
C34   C     C_R   0.479026 0.467308 0.965723 0.026552
C35   C     C_R   0.879776 0.580722 0.471676 0.624431
C36   C     C_R   0.119556 0.409658 0.519887 0.585652
C37   C     C_R   0.880407 0.409477 0.520190 0.543801
C38   C     C_R   0.119077 0.582280 0.475208 0.580037
C39   C     C_R   0.940030 0.407647 0.520444 -0.015290
C40   C     C_R   0.059391 0.583536 0.473404 -0.030596
C41   C     C_R   0.969675 0.495296 0.496172 -0.014475
C42   C     C_R   0.029710 0.495532 0.496645 -0.018377
C43   C     C_R   0.939436 0.582786 0.471639 -0.039238
C44   C     C_R   0.059920 0.407805 0.520464 -0.032235
C45   C     C_R   0.970577 0.320679 0.544358 -0.171106
C46   C     C_R   0.028832 0.670431 0.449263 -0.160128
C47   C     C_R   0.029907 0.320661 0.544102 -0.165825
C48   C     C_R   0.969453 0.669976 0.448158 -0.162248
Cu1   Cu    Cu3+1 0.504210 0.507730 0.615930 0.979991
Cu2   Cu    Cu3+1 0.495790 0.492270 0.384070 0.983489
H1    H     H_    0.948764 0.252339 0.563204 0.187083
H2    H     H_    0.050663 0.738996 0.431033 0.186943
H3    H     H_    0.442527 0.410874 0.789446 0.144982
H4    H     H_    0.557539 0.588946 0.210492 0.147119
H5    H     H_    0.052144 0.252299 0.562747 0.187188
H6    H     H_    0.947201 0.738200 0.429134 0.186623
H7    H     H_    0.326890 0.509238 0.686986 0.181244
H8    H     H_    0.671528 0.454826 0.311259 0.181633
H9    H     H_    0.518716 0.813315 0.357206 0.170734
H10   H     H_    0.481493 0.186682 0.642942 0.170487
H11   H     H_    0.526276 0.966733 0.268530 0.146771
H12   H     H_    0.472756 0.033039 0.730914 0.146932
N1    N     N_R   0.851713 0.495015 0.495783 -0.425972
N2    N     N_R   0.147768 0.496142 0.497922 -0.436470
N3    N     N_R   0.510550 0.519360 0.790130 -0.213926
N4    N     N_R   0.489450 0.480640 0.209870 -0.214585
O1    O     O_R   0.502990 0.354470 0.582000 -0.602954
O2    O     O_R   0.497010 0.645530 0.418000 -0.601301
O3    O     O_R   0.495870 0.341410 0.386200 -0.509226
O4    O     O_R   0.504130 0.658590 0.613800 -0.510489
O5    O     O_R   0.421440 0.506500 0.597920 -0.607927
O6    O     O_R   0.578560 0.493500 0.402080 -0.606784
O7    O     O_R   0.414320 0.493440 0.402120 -0.535505
O8    O     O_R   0.585680 0.506560 0.597880 -0.537004
O9    O     O_2   0.849997 0.663701 0.448443 -0.525977
O10   O     O_2   0.149164 0.325687 0.540566 -0.536257
O11   O     O_2   0.851254 0.326527 0.543870 -0.584808
O12   O     O_2   0.148310 0.666537 0.455033 -0.537276
O13   O     O_3   0.588644 0.637861 0.797595 -0.563942
C49   C     C_3   0.600675 0.741696 0.854895 0.038210
H13   H     H_    0.632416 0.743083 0.930377 0.132877
H14   H     H_    0.561280 0.781851 0.884387 0.180024
C50   C     C_3   0.627188 0.802172 0.770734 -0.710518
H15   H     H_    0.597738 0.801364 0.692073 0.252687
H16   H     H_    0.636096 0.884480 0.813915 0.195089
H17   H     H_    0.667792 0.766108 0.743458 0.242656
O14   O     O_3   0.411255 0.362674 0.203085 -0.560017
C51   C     C_3   0.396589 0.260460 0.143838 0.040038
H18   H     H_    0.434651 0.218301 0.110032 0.177575
H19   H     H_    0.363683 0.262920 0.071236 0.129300
C52   C     C_3   0.370605 0.199549 0.228221 -0.726125
H20   H     H_    0.331518 0.238193 0.260675 0.225417
H21   H     H_    0.359189 0.118659 0.183223 0.196671
H22   H     H_    0.401476 0.196055 0.303710 0.258438
H23   H     H_    0.409166 0.361073 0.968264 0.135020
H24   H     H_    0.590917 0.638693 0.031623 0.137009
O15   O     O_3   0.216390 0.507894 0.707910 -0.551474
C53   C     C_3   0.214754 0.612791 0.764887 0.045929
H25   H     H_    0.191587 0.661713 0.708198 0.160975
H26   H     H_    0.258664 0.645929 0.790253 0.135827
C54   C     C_3   0.183384 0.617216 0.875181 -0.736495
H27   H     H_    0.205934 0.570486 0.934598 0.251197
H28   H     H_    0.181658 0.699477 0.920805 0.202986
H29   H     H_    0.139164 0.585389 0.852558 0.250633
O16   O     O_3   0.781674 0.448084 0.286901 -0.558788
C55   C     C_3   0.780995 0.338705 0.249650 0.062089
H30   H     H_    0.736797 0.304940 0.240811 0.128838
H31   H     H_    0.807721 0.300537 0.312004 0.176089
C56   C     C_3   0.805354 0.314214 0.130935 -0.778645
H32   H     H_    0.849510 0.347019 0.136320 0.254268
H33   H     H_    0.806171 0.228238 0.101800 0.204429
H34   H     H_    0.778371 0.348618 0.066034 0.242685
H35   H     H_    0.314241 0.488012 0.312506 0.204034
H36   H     H_    0.686720 0.544366 0.686081 0.201041
O17   O     O_3   0.202101 0.483823 0.289273 -0.549628
C57   C     C_3   0.200333 0.379854 0.228342 0.046173
H37   H     H_    0.184451 0.324837 0.283022 0.159452
H38   H     H_    0.243300 0.355943 0.200610 0.145025
C58   C     C_3   0.159756 0.372002 0.119579 -0.735623
H39   H     H_    0.174765 0.424922 0.062212 0.252831
H40   H     H_    0.157960 0.290495 0.070729 0.201206
H41   H     H_    0.116270 0.394326 0.144520 0.249817
O18   O     O_3   0.800558 0.548835 0.705274 -0.564198
C59   C     C_3   0.791435 0.480376 0.784233 0.067463
H42   H     H_    0.786564 0.397141 0.739578 0.167813
H43   H     H_    0.752896 0.502970 0.831840 0.145527
C60   C     C_3   0.842672 0.488597 0.872791 -0.724725
H44   H     H_    0.847961 0.569843 0.921873 0.254864
H45   H     H_    0.836441 0.434865 0.935255 0.198040
H46   H     H_    0.881901 0.466861 0.827375 0.252096
O19   O     O_3   0.472713 0.833162 0.736531 -0.577709
C61   C     C_3   0.413425 0.814606 0.736355 0.082422
H47   H     H_    0.395777 0.767308 0.651910 0.131270
H48   H     H_    0.390785 0.889928 0.752907 0.137337
C62   C     C_3   0.402205 0.753728 0.832928 -0.768192
H49   H     H_    0.419212 0.798401 0.918729 0.241503
H50   H     H_    0.355623 0.740131 0.835095 0.185985
H51   H     H_    0.423186 0.677008 0.816858 0.257371
O20   O     O_3   0.524720 0.166482 0.261906 -0.573656
C63   C     C_3   0.583866 0.182423 0.256306 0.078947
H52   H     H_    0.605474 0.106136 0.238138 0.136027
H53   H     H_    0.603551 0.229604 0.339037 0.127898
C64   C     C_3   0.593367 0.241923 0.157711 -0.774933
H54   H     H_    0.573937 0.319970 0.175789 0.256040
H55   H     H_    0.639750 0.252590 0.149940 0.187771
H56   H     H_    0.573685 0.197817 0.073840 0.242443

loop_
_geom_bond_atom_site_label_1
_geom_bond_atom_site_label_2
_ccdc_geom_bond_type
C31   N4    A    
O14   C51   S    
C16   C21   A    
C62   H51   S    
C41   C42   A    
C6    H8    S    
C27   H23   S    
C63   C64   S    
O15   C53   S    
C62   H49   S    
C39   C41   A    
C40   C46   A    
C12   O18   S    
C35   O9    S    
C54   H27   S    
Cu1   N3    S    
C17   C26   A    
C47   H5    S    
Cu2   O3    S    
C63   H53   S    
C2    O2    A    
C56   H33   S    
C27   C29   A    
C55   H30   S    
C45   H1    S    
C64   H54   S    
C46   H2    S    
C57   H37   S    
C48   H6    S    
C45   C47   A    
Cu2   O6    S    
C36   O10   S    
C17   H11   S    
C15   C22   A    
C64   H55   S    
C61   H47   S    
C31   C33   A    
C11   O17   S    
C43   C48   A    
C10   H36   S    
C44   C47   A    
C39   C45   A    
C40   C42   A    
C54   H28   S    
C41   C43   A    
C61   H48   S    
C18   C25   A    
C42   C44   A    
C23   O7    A    
C49   C50   S    
C37   N1    A    
C38   N2    A    
C58   H40   S    
C27   C34   A    
C16   C19   A    
C15   C20   A    
C46   C48   A    
C23   O5    A    
O18   C59   S    
C63   H52   S    
C21   H10   S    
C49   H14   S    
C56   H34   S    
C52   H20   S    
C5    C7    A    
C18   H12   S    
C6    C8    A    
C38   O12   S    
C25   C26   A    
C37   O11   S    
C1    O3    A    
C29   N4    A    
C32   C34   A    
C60   H45   S    
C52   H21   S    
C9    C11   A    
C3    O15   S    
C50   H15   S    
C51   C52   S    
C58   H39   S    
C33   C34   A    
C1    C16   S    
C2    C15   S    
Cu2   N4    S    
C10   C12   A    
C59   C60   S    
C30   O13   S    
C4    C6    A    
C50   H16   S    
C12   C14   A    
C28   C33   A    
Cu1   Cu2   S    
C54   H29   S    
C53   H26   S    
Cu1   O4    S    
C22   C26   A    
C36   C44   A    
C64   H56   S    
C20   O19   S    
C17   C19   A    
C60   H44   S    
C32   H3    S    
C22   H9    S    
C35   C43   A    
C24   O6    A    
C59   H43   S    
O16   C55   S    
C58   H41   S    
C62   H50   S    
C21   C25   A    
Cu1   O1    S    
C51   H19   S    
C49   H13   S    
C3    C5    A    
C3    C13   A    
O20   C63   S    
C1    O1    A    
C53   C54   S    
C4    O16   S    
C57   C58   S    
C5    H7    S    
C28   H24   S    
C9    H35   S    
C28   C30   A    
C60   H46   S    
C37   C39   A    
C36   N2    A    
C56   H32   S    
C52   H22   S    
C38   C40   A    
C11   C13   A    
C24   O8    A    
O17   C57   S    
C13   N2    S    
C55   H31   S    
C61   C62   S    
C7    C23   S    
C14   N1    S    
Cu2   O7    S    
C8    C24   S    
C57   H38   S    
C18   C20   A    
C31   H4    S    
C4    C14   A    
C29   O14   S    
C30   N3    A    
O13   C49   S    
C7    C9    A    
C50   H17   S    
C51   H18   S    
C8    C10   A    
C53   H25   S    
Cu1   O5    S    
Cu1   O8    S    
C59   H42   S    
C35   N1    A    
C2    O4    A    
Cu2   O2    S    
C19   O20   S    
O19   C61   S    
C32   N3    A    
C55   C56   S    
