data_mof_unit_18289.cif
_audit_creation_date              2012-12-10T20:41:53-0500
_audit_creation_method            fapswitch 2.2
_symmetry_space_group_name_H-M    P1
_symmetry_Int_Tables_number       1
_space_group_crystal_system       triclinic
_cell_length_a                    15.055168
_cell_length_b                    15.28498
_cell_length_c                    9.890801
_cell_angle_alpha                 92.132204
_cell_angle_beta                  88.813172
_cell_angle_gamma                 90.057473
_cell_volume                      2273.98692056

loop_
_atom_site_label
_atom_site_type_symbol
_atom_type_description
_atom_site_fract_x
_atom_site_fract_y
_atom_site_fract_z
_atom_type_partial_charge
C1    C     C_R   0.377749 0.882153 0.499326 0.930539
C2    C     C_R   0.929489 0.466425 0.072217 -0.019339
C3    C     C_R   0.576664 0.010048 0.069976 0.578424
C4    C     C_R   0.074767 0.519549 0.070494 0.584692
C5    C     C_R   0.576738 0.009155 0.926056 0.608338
C6    C     C_R   0.074964 0.518462 0.926654 0.611007
C7    C     C_R   0.424923 0.978695 0.930457 -0.043120
C8    C     C_R   0.929432 0.466514 0.929538 -0.060926
C9    C     C_3   0.341137 0.029665 0.937751 1.084763
C10   C     C_3   0.836817 0.500074 0.934203 1.122246
C11   C     C_3   0.338142 0.022366 0.089363 -0.435809
C12   C     C_R   0.380916 0.121202 0.501921 0.936079
C13   C     C_3   0.836008 0.496816 0.086428 -0.430289
C14   C     C_R   0.618642 0.121043 0.500710 0.921788
C15   C     C_R   0.622922 0.883141 0.497821 0.945348
C16   C     C_R   0.117852 0.622101 0.500739 0.916755
C17   C     C_R   0.118999 0.379563 0.497058 0.914455
C18   C     C_R   0.239738 0.182446 0.586832 -0.052964
C19   C     C_R   0.265568 0.799829 0.621262 0.015508
C20   C     C_R   0.802513 0.745763 0.619756 -0.076842
C21   C     C_R   0.775910 0.289546 0.621000 0.041554
C22   C     C_R   0.314270 0.187611 0.501502 -0.227406
C23   C     C_R   0.880101 0.379882 0.499130 0.933702
C24   C     C_R   0.301473 0.826675 0.498666 -0.247454
C25   C     C_R   0.830818 0.702800 0.499991 -0.200343
C26   C     C_R   0.808823 0.318861 0.498087 -0.259071
C27   C     C_R   0.315208 0.247226 0.396153 0.622421
C28   C     C_R   0.260147 0.801114 0.377080 0.625446
C29   C     C_R   0.809134 0.740283 0.375644 0.636174
C30   C     C_R   0.768584 0.292045 0.376457 0.619124
C31   C     C_R   0.743236 0.803715 0.373823 -0.256837
C32   C     C_R   0.701819 0.230606 0.378949 -0.178872
C33   C     C_R   0.247396 0.307881 0.389418 -0.240198
C34   C     C_R   0.883317 0.623780 0.501414 0.898468
C35   C     C_R   0.195491 0.736834 0.379084 -0.193626
C36   C     C_R   0.701061 0.830583 0.495425 -0.156076
C37   C     C_R   0.677247 0.193681 0.501623 -0.294111
C38   C     C_R   0.179780 0.309201 0.488361 -0.242307
C39   C     C_R   0.172714 0.698228 0.501623 -0.288990
C40   C     C_R   0.737969 0.808512 0.617058 0.021649
C41   C     C_R   0.709968 0.227886 0.623113 0.075595
C42   C     C_R   0.172525 0.242663 0.579399 0.071865
C43   C     C_R   0.201268 0.736602 0.623043 0.063774
C44   C     C_3   0.694635 0.781579 0.745734 0.467983
C45   C     C_3   0.233124 0.186735 0.737803 -0.352112
C46   C     C_3   0.751393 0.181385 0.736145 0.575234
C47   C     C_3   0.156784 0.249404 0.728277 0.443244
C48   C     C_3   0.238826 0.696721 0.745117 0.582713
C49   C     C_3   0.310345 0.766426 0.742480 -0.458077
C50   C     C_3   0.765762 0.712489 0.749041 -0.331233
C51   C     C_3   0.825299 0.248358 0.731951 -0.444690
C52   C     C_R   0.425131 0.977361 0.073145 -0.016120
F1    F     F_    0.384121 0.250514 0.305576 -0.629298
F2    F     F_    0.150559 0.539753 0.136197 -0.601166
F3    F     F_    0.654498 0.017201 0.856490 -0.614143
F4    F     F_    0.151554 0.533864 0.857859 -0.608748
F5    F     F_    0.356373 0.114335 0.901241 -0.689699
F6    F     F_    0.271914 0.987788 0.872082 -0.666180
F7    F     F_    0.833418 0.583849 0.892211 -0.698121
F8    F     F_    0.776350 0.444453 0.872156 -0.643234
F9    F     F_    0.286734 0.831681 0.255659 -0.634826
F10   F     F_    0.845843 0.712133 0.255322 -0.644901
F11   F     F_    0.798163 0.318459 0.254327 -0.638729
F12   F     F_    0.611095 0.745547 0.726651 -0.634266
F13   F     F_    0.700355 0.190057 0.853911 -0.546323
F14   F     F_    0.076162 0.212652 0.765003 -0.629129
F15   F     F_    0.182208 0.707906 0.856488 -0.557566
F16   F     F_    0.654164 0.021547 0.135605 -0.602240
H1    H     H_    0.342188 0.086647 0.145149 0.231020
H2    H     H_    0.772612 0.113194 0.709043 0.104063
H3    H     H_    0.169533 0.314897 0.776677 0.121104
H4    H     H_    0.263879 0.628837 0.726791 0.119217
H5    H     H_    0.291555 0.220476 0.782402 0.231676
H6    H     H_    0.377711 0.739605 0.718325 0.189365
H7    H     H_    0.811954 0.726301 0.833333 0.239331
H8    H     H_    0.890123 0.220130 0.696464 0.197058
H9    H     H_    0.212664 0.123415 0.779811 0.298924
H10   H     H_    0.306664 0.813806 0.830415 0.281743
H11   H     H_    0.738767 0.644999 0.736164 0.280568
H12   H     H_    0.285006 0.978125 0.125945 0.246110
H13   H     H_    0.828550 0.290875 0.825131 0.289342
H14   H     H_    0.829687 0.562038 0.138778 0.247374
H15   H     H_    0.790259 0.446437 0.125133 0.259458
H16   H     H_    0.721464 0.826635 0.277600 0.218058
H17   H     H_    0.674319 0.207806 0.283563 0.248976
H18   H     H_    0.251259 0.357384 0.313837 0.217336
H19   H     H_    0.168586 0.713291 0.283704 0.249341
H20   H     H_    0.697710 0.832393 0.828881 0.125830
N1    N     N_R   0.499140 0.000000 0.142800 -0.174160
N2    N     N_R   0.999140 0.500000 0.142800 -0.172363
N3    N     N_R   0.499160 0.000000 0.857150 -0.183290
N4    N     N_R   0.999160 0.500000 0.857150 -0.187834
O1    O     O_R   0.408400 0.908380 0.614690 -0.600007
O2    O     O_R   0.591610 0.908390 0.614650 -0.575815
O3    O     O_R   0.091610 0.591610 0.614650 -0.565402
O4    O     O_R   0.091610 0.408390 0.614650 -0.612361
O5    O     O_R   0.591590 0.091600 0.385310 -0.567875
O6    O     O_R   0.591590 0.908400 0.385310 -0.611813
O7    O     O_R   0.091590 0.591600 0.385310 -0.567606
O8    O     O_R   0.091590 0.408400 0.385310 -0.595199
O9    O     O_R   0.408400 0.091620 0.614690 -0.572450
O10   O     O_R   0.908400 0.408380 0.614690 -0.594947
O11   O     O_R   0.908400 0.591620 0.614690 -0.572897
O12   O     O_R   0.408370 0.908370 0.385350 -0.564051
O13   O     O_R   0.408370 0.091630 0.385350 -0.593039
O14   O     O_R   0.908370 0.408370 0.385350 -0.564249
O15   O     O_R   0.908370 0.591630 0.385350 -0.575886
O16   O     O_R   0.591610 0.091610 0.614650 -0.571080
Zn1   Zn    Zn3+2 0.500010 0.000000 0.653130 1.092750
Zn2   Zn    Zn3+2 0.000010 0.500000 0.653130 1.080453
Zn3   Zn    Zn3+2 0.499980 0.000000 0.346870 1.073295
Zn4   Zn    Zn3+2 0.999980 0.500000 0.346870 1.076427

loop_
_geom_bond_atom_site_label_1
_geom_bond_atom_site_label_2
_ccdc_geom_bond_type
C21   C26   A    
O15   Zn4   S    
C10   F8    S    
C3    F16   S    
N2    Zn4   S    
C50   H11   S    
C15   O2    A    
O14   Zn4   S    
C44   F12   S    
O11   Zn2   S    
C34   O15   A    
C7    C52   A    
C38   C42   A    
C18   C42   A    
C12   O13   A    
C20   C40   A    
C6    N4    A    
C23   O10   A    
C20   C25   A    
O7    Zn4   S    
O9    Zn1   S    
C12   C22   S    
C49   H10   S    
C45   H5    S    
C9    F6    S    
C23   C26   S    
C2    N2    A    
C2    C13   S    
C20   C50   S    
C11   C52   S    
C35   H19   S    
C28   C35   A    
C41   C46   S    
C8    N4    A    
O16   Zn1   S    
C43   C48   S    
C51   H13   S    
C47   F14   S    
C25   C34   S    
C17   C38   S    
C28   F9    S    
C14   O16   A    
O13   Zn3   S    
C30   F11   S    
C52   N1    A    
C48   H4    S    
C19   C43   A    
C4    N2    A    
C31   C36   A    
C45   C47   S    
C25   C29   A    
C36   C40   A    
C51   H8    S    
C46   F13   S    
C4    C6    A    
C39   C43   A    
C23   O14   A    
O4    Zn2   S    
C46   C51   S    
O3    Zn2   S    
C27   C33   A    
C31   H16   S    
C35   C39   A    
C33   H18   S    
C19   C49   S    
C7    N3    A    
C27   F1    S    
C17   O4    A    
C32   C37   A    
C9    C11   S    
C1    O12   A    
C47   H3    S    
C5    N3    A    
C21   C41   A    
C8    C10   S    
C48   C49   S    
O8    Zn4   S    
C22   C27   A    
O10   Zn2   S    
C15   O6    A    
C18   C45   S    
C15   C36   S    
C21   C51   S    
C14   O5    A    
C44   C50   S    
C7    C9    S    
N1    Zn3   S    
C29   F10   S    
C16   O3    A    
O6    Zn3   S    
C4    F2    S    
C18   C22   A    
C5    F3    S    
C2    C8    A    
C24   C28   A    
C6    F4    S    
C3    C5    A    
C10   C13   S    
O12   Zn3   S    
C11   H1    S    
C16   O7    A    
C26   C30   A    
C13   H15   S    
O2    Zn1   S    
C34   O11   A    
C3    N1    A    
N3    Zn1   S    
C10   F7    S    
C12   O9    A    
C29   C31   A    
C50   H7    S    
C14   C37   S    
C30   C32   A    
N4    Zn2   S    
O5    Zn3   S    
C32   H17   S    
C13   H14   S    
C19   C24   A    
C9    F5    S    
C42   C47   S    
C48   F15   S    
C37   C41   A    
C17   O8    A    
C46   H2    S    
C11   H12   S    
C16   C39   S    
C40   C44   S    
C1    C24   S    
C1    O1    A    
C49   H6    S    
C33   C38   A    
C45   H9    S    
C44   H20   S    
O1    Zn1   S    
