data_mof_unit_53409.cif
_audit_creation_date              2012-12-10T19:07:38-0500
_audit_creation_method            fapswitch 2.2
_symmetry_space_group_name_H-M    P1
_symmetry_Int_Tables_number       1
_space_group_crystal_system       triclinic
_cell_length_a                    10.797416
_cell_length_b                    10.814879
_cell_length_c                    9.569043
_cell_angle_alpha                 89.697468
_cell_angle_beta                  90.209995
_cell_angle_gamma                 90.625592
_cell_volume                      1117.31398953

loop_
_atom_site_label
_atom_site_type_symbol
_atom_type_description
_atom_site_fract_x
_atom_site_fract_y
_atom_site_fract_z
_atom_type_partial_charge
C1    C     C_R   0.497886 0.262383 0.500170 0.853707
C2    C     C_R   0.937427 0.550018 0.603482 0.046652
C3    C     C_3   0.933281 0.683631 0.644590 0.072607
C4    C     C_3   0.073811 0.682668 0.647384 -0.461731
C5    C     C_R   0.488871 0.062804 0.625457 0.165348
C6    C     C_R   0.486363 0.129100 0.500073 -0.082674
C7    C     C_R   0.467262 0.064745 0.374285 -0.174126
C8    C     C_R   0.467614 0.935857 0.373989 -0.187976
C9    C     C_R   0.486884 0.870619 0.499491 -0.080645
C10   C     C_R   0.489039 0.935585 0.625173 0.121334
C11   C     C_3   0.578916 0.929459 0.744016 -0.464857
C12   C     C_R   0.262687 0.498652 0.499805 0.810524
C13   C     C_3   0.578844 0.069805 0.744202 -0.424391
C14   C     C_R   0.562826 0.589541 0.073284 0.228232
C15   C     C_R   0.426969 0.420653 0.075829 -0.086978
C16   C     C_R   0.425805 0.420612 0.927652 0.323099
C17   C     C_R   0.562593 0.589731 0.926260 0.203386
C18   C     C_3   0.697670 0.618308 0.921267 -0.504607
C19   C     C_3   0.698122 0.617258 0.079844 -0.437911
C20   C     C_R   0.498268 0.737579 0.499715 0.828204
C21   C     C_R   0.737402 0.495825 0.500148 0.881294
C22   C     C_R   0.064721 0.550430 0.604883 0.106185
C23   C     C_R   0.129745 0.490671 0.500821 -0.072870
C24   C     C_R   0.065923 0.416119 0.404562 -0.216542
C25   C     C_R   0.935916 0.409822 0.405712 -0.040274
C26   C     C_R   0.870835 0.484999 0.501737 -0.138240
Cu1   Cu    Cu3+1 0.499990 0.499980 0.640670 0.994047
Cu2   Cu    Cu3+1 0.500010 0.500020 0.359330 0.983453
H1    H     H_    0.117612 0.362394 0.329771 0.186374
H2    H     H_    0.669408 0.890035 0.713302 0.230763
H3    H     H_    0.536783 0.109100 0.839816 0.222252
H4    H     H_    0.669237 0.111880 0.713422 0.213215
H5    H     H_    0.369627 0.355270 0.132945 0.166241
H6    H     H_    0.752723 0.542311 0.875725 0.226015
H7    H     H_    0.715572 0.711729 0.876810 0.192681
H8    H     H_    0.752649 0.539934 0.124710 0.231674
H9    H     H_    0.718017 0.709504 0.125983 0.215411
H10   H     H_    0.893540 0.697635 0.749631 0.135567
H11   H     H_    0.118678 0.742093 0.566513 0.219116
H12   H     H_    0.113204 0.692844 0.754249 0.189140
H13   H     H_    0.457784 0.113368 0.275614 0.171569
H14   H     H_    0.458425 0.888090 0.275204 0.166980
H15   H     H_    0.536721 0.887931 0.839368 0.198743
N1    N     N_R   0.500790 0.500930 0.147930 -0.206914
N2    N     N_R   0.500790 0.500890 0.852020 -0.210259
O1    O     O_R   0.500000 0.319640 0.618810 -0.553476
O2    O     O_R   0.500010 0.319680 0.381230 -0.575002
O3    O     O_R   0.319650 0.499970 0.618810 -0.541545
O4    O     O_R   0.319660 0.500010 0.381230 -0.594092
O5    O     O_R   0.499990 0.680320 0.618770 -0.582148
O6    O     O_R   0.500000 0.680360 0.381190 -0.582335
O7    O     O_R   0.680340 0.499990 0.618770 -0.590450
O8    O     O_R   0.680350 0.500030 0.381190 -0.560145
Br1   Br    Br    0.314452 0.304536 0.841891 -0.513832
C27   C     C_2   0.873207 0.323909 0.306951 0.851907
O9    O     O_2   0.776961 0.271005 0.340004 -0.593246
O10   O     O_R   0.927090 0.299873 0.177355 -0.754894
H16   H     H_    0.876424 0.239291 0.119568 0.341675
Br2   Br    Br    0.867005 0.791862 0.499824 -0.545235

loop_
_geom_bond_atom_site_label_1
_geom_bond_atom_site_label_2
_ccdc_geom_bond_type
Cu1   O3    S    
C2    C22   A    
Cu2   N1    S    
C23   C24   A    
C4    H11   S    
Cu2   O2    S    
C11   H15   S    
C6    C7    A    
C4    C22   S    
Cu2   O4    S    
C9    C20   S    
C5    C13   S    
C14   C17   A    
Cu1   O5    S    
C12   O3    A    
C4    H12   S    
Cu1   N2    S    
C27   O9    D    
C7    H13   S    
C12   O4    A    
C11   H2    S    
C5    C10   A    
C2    C26   A    
C24   C25   A    
Cu2   O8    S    
C21   O8    A    
C11   C13   S    
C12   C23   S    
O10   H16   S    
C18   H6    S    
Cu1   O1    S    
C21   C26   S    
C8    H14   S    
C15   N1    A    
C17   C18   S    
C20   O6    A    
C2    C3    S    
C19   H8    S    
C27   O10   S    
C5    C6    A    
Cu2   O6    S    
C16   Br1   S    
C1    O1    A    
C10   C11   S    
C16   N2    A    
C1    C6    S    
C25   C27   S    
C7    C8    A    
Cu1   O7    S    
C18   H7    S    
C14   N1    A    
C18   C19   S    
C9    C10   A    
Cu1   Cu2   S    
C24   H1    S    
C1    O2    A    
C20   O5    A    
C19   H9    S    
C25   C26   A    
C22   C23   A    
C13   H4    S    
C14   C19   S    
C13   H3    S    
C21   O7    A    
C3    C4    S    
C15   C16   A    
C3    H10   S    
C17   N2    A    
C8    C9    A    
C15   H5    S    
C3    Br2   S    
