data_mof_unit_14264.cif
_audit_creation_date              2012-12-10T17:19:39-0500
_audit_creation_method            fapswitch 2.2
_symmetry_space_group_name_H-M    P1
_symmetry_Int_Tables_number       1
_space_group_crystal_system       triclinic
_cell_length_a                    10.293946
_cell_length_b                    10.747719
_cell_length_c                    11.508822
_cell_angle_alpha                 89.369898
_cell_angle_beta                  82.697933
_cell_angle_gamma                 89.998291
_cell_volume                      1262.89090612

loop_
_atom_site_label
_atom_site_type_symbol
_atom_type_description
_atom_site_fract_x
_atom_site_fract_y
_atom_site_fract_z
_atom_type_partial_charge
C1    C     C_R   0.550150 0.732148 0.495198 0.911863
C2    C     C_R   0.450419 0.266949 0.516160 0.921048
C3    C     C_R   0.501317 0.500698 0.717738 0.878716
C4    C     C_R   0.498700 0.500590 0.282237 0.902532
C5    C     C_1   0.502980 0.502657 0.838007 -0.221472
C6    C     C_1   0.496703 0.502580 0.161953 -0.212976
C7    C     C_1   0.501333 0.503746 0.940457 -0.011277
C8    C     C_1   0.498112 0.503699 0.059494 -0.007443
C9    C     C_2   0.569073 0.863451 0.503950 -0.391235
C10   C     C_2   0.432713 0.135181 0.548663 -0.431645
C11   C     C_2   0.505119 0.930396 0.591644 0.115985
C12   C     C_2   0.528719 0.063066 0.584757 0.110363
C13   C     C_2   0.923519 0.493437 0.522500 0.416840
C14   C     C_2   0.072184 0.511680 0.479146 0.375810
H1    H     H_    0.336226 0.095273 0.544947 0.147703
H2    H     H_    0.637533 0.907530 0.436074 0.139338
N1    N     N_2   0.842700 0.448890 0.453570 -0.107086
N2    N     N_2   0.157300 0.551110 0.546430 -0.129944
O1    O     O_R   0.431060 0.692470 0.509350 -0.635470
O2    O     O_R   0.568940 0.307530 0.490650 -0.639709
O3    O     O_R   0.651120 0.659650 0.479540 -0.585195
O4    O     O_R   0.348880 0.340350 0.520460 -0.587985
O5    O     O_R   0.389960 0.516400 0.680450 -0.636246
O6    O     O_R   0.610040 0.483600 0.319550 -0.632608
O7    O     O_R   0.610030 0.483580 0.650650 -0.567331
O8    O     O_R   0.389970 0.516420 0.349350 -0.584069
Zn1   Zn    Zn3+2 0.353060 0.521910 0.519900 0.938855
Zn2   Zn    Zn3+2 0.646940 0.478090 0.480100 0.949022
C15   C     C_3   0.669126 0.104973 0.587868 -0.372114
C16   C     C_3   0.755814 0.020697 0.656832 -0.365597
C17   C     C_3   0.900194 0.027653 0.605566 -0.907026
H3    H     H_    0.913190 0.993807 0.513934 0.259903
H4    H     H_    0.938584 0.123778 0.606639 0.256237
H5    H     H_    0.958758 0.967554 0.657937 0.257524
H6    H     H_    0.745163 0.049801 0.749796 0.214750
H7    H     H_    0.728509 0.921126 0.656761 0.245848
H8    H     H_    0.712134 0.108987 0.494786 0.214303
H9    H     H_    0.666887 0.197136 0.629024 0.205034
C18   C     C_3   0.421717 0.876176 0.698552 -0.390211
C19   C     C_3   0.452208 0.932994 0.814106 -0.357036
C20   C     C_3   0.364007 0.878178 0.918832 -0.893100
H10   H     H_    0.260273 0.902820 0.913310 0.269052
H11   H     H_    0.374055 0.775313 0.921882 0.266745
H12   H     H_    0.392260 0.916788 0.001139 0.253007
H13   H     H_    0.555601 0.913431 0.826054 0.218733
H14   H     H_    0.437540 0.035426 0.812937 0.232396
H15   H     H_    0.317348 0.893005 0.688406 0.201746
H16   H     H_    0.440256 0.775175 0.705628 0.204894
O9    O     O_3   0.116310 0.487914 0.362636 -0.648366
C21   C     C_3   0.136476 0.602110 0.299817 0.133771
H17   H     H_    0.201163 0.582703 0.217200 0.176376
H18   H     H_    0.188929 0.672278 0.347346 0.140426
C22   C     C_3   0.007949 0.656738 0.267261 -0.415313
H19   H     H_    0.960096 0.588166 0.215107 0.232841
H20   H     H_    0.940501 0.678019 0.347708 0.223805
C23   C     C_3   0.032824 0.776618 0.195551 -0.962760
H21   H     H_    0.075949 0.848498 0.247852 0.262937
H22   H     H_    0.938869 0.812437 0.170715 0.272111
H23   H     H_    0.100741 0.759073 0.114457 0.264408
O10   O     O_3   0.869614 0.533128 0.632720 -0.623962
C24   C     C_3   0.918382 0.461247 0.722255 0.055769
H24   H     H_    0.917383 0.521082 0.800196 0.183311
H25   H     H_    0.019639 0.426321 0.697616 0.122796
C25   C     C_3   0.832812 0.349034 0.760205 -0.347694
H26   H     H_    0.732761 0.378790 0.794623 0.247185
H27   H     H_    0.830181 0.290544 0.682982 0.214278
C26   C     C_3   0.888388 0.273621 0.855789 -0.979824
H28   H     H_    0.985921 0.235174 0.821987 0.271027
H29   H     H_    0.821510 0.195233 0.884877 0.263723
H30   H     H_    0.897888 0.332945 0.932728 0.270338
C27   C     C_3   0.124698 0.669434 0.605421 -0.290872
C28   C     C_3   0.145931 0.665257 0.735559 -0.284686
C29   C     C_3   0.058059 0.757525 0.808576 -0.967234
H31   H     H_    0.071041 0.746196 0.902343 0.259716
H32   H     H_    0.085098 0.854187 0.780611 0.258586
H33   H     H_    0.953362 0.741553 0.799237 0.282036
H34   H     H_    0.132156 0.571160 0.774500 0.207480
H35   H     H_    0.247767 0.689153 0.744347 0.236832
H36   H     H_    0.189191 0.742968 0.561088 0.175077
H37   H     H_    0.024074 0.702076 0.595711 0.195086
C30   C     C_3   0.882522 0.329468 0.400584 -0.292004
C31   C     C_3   0.832067 0.310678 0.282445 -0.263544
C32   C     C_3   0.901746 0.202622 0.215711 -0.960106
H38   H     H_    0.007902 0.223134 0.194153 0.281256
H39   H     H_    0.888942 0.115613 0.269029 0.261965
H40   H     H_    0.859562 0.188397 0.132711 0.261447
H41   H     H_    0.726236 0.287937 0.296922 0.248132
H42   H     H_    0.847436 0.396403 0.227824 0.223595
H43   H     H_    0.989395 0.312858 0.390323 0.212705
H44   H     H_    0.844163 0.256018 0.461863 0.155882

loop_
_geom_bond_atom_site_label_1
_geom_bond_atom_site_label_2
_ccdc_geom_bond_type
C1    O3    A    
C12   C15   S    
C20   H11   S    
C29   H31   S    
C14   N2    D    
C3    O5    A    
C27   H36   S    
C30   C31   S    
C7    C8    S    
C13   O10   S    
C22   H19   S    
O7    Zn2   S    
C19   H14   S    
O8    Zn1   S    
C15   C16   S    
C16   H6    S    
C9    H2    S    
C10   H1    S    
C16   C17   S    
C4    O6    A    
C14   O9    S    
C31   H41   S    
C23   H21   S    
C20   H10   S    
C24   H25   S    
C28   H35   S    
C32   H38   S    
C15   H9    S    
C2    O4    A    
C21   H18   S    
C17   H4    S    
O5    Zn1   S    
O1    Zn1   S    
C30   H43   S    
C13   C14   S    
C29   H32   S    
C27   H37   S    
C22   H20   S    
C19   H13   S    
C1    O1    A    
C21   C22   S    
C2    O2    A    
C26   H28   S    
C25   C26   S    
C3    O7    A    
C1    C9    S    
C4    C6    S    
C18   C19   S    
C5    C7    T    
C6    C8    T    
O2    Zn2   S    
O10   C24   S    
C26   H29   S    
C25   H27   S    
C24   C25   S    
C28   H34   S    
C17   H3    S    
C21   H17   S    
C17   H5    S    
C11   C18   S    
C9    C11   D    
C10   C12   D    
C30   H44   S    
C19   C20   S    
C32   H39   S    
O3    Zn2   S    
O9    C21   S    
O4    Zn1   S    
C29   H33   S    
C2    C10   S    
C18   H15   S    
C22   C23   S    
N2    C27   S    
N1    Zn2   S    
N2    Zn1   S    
O6    Zn2   S    
C28   C29   S    
C3    C5    S    
C4    O8    A    
C11   C12   S    
C13   N1    D    
C23   H23   S    
C16   H7    S    
C26   H30   S    
C25   H26   S    
C27   C28   S    
C31   H42   S    
C20   H12   S    
C23   H22   S    
N1    C30   S    
C24   H24   S    
C32   H40   S    
C31   C32   S    
C15   H8    S    
C18   H16   S    
