data_mof_unit_14948.cif
_audit_creation_date              2012-12-10T18:03:17-0500
_audit_creation_method            fapswitch 2.2
_symmetry_space_group_name_H-M    P1
_symmetry_Int_Tables_number       1
_space_group_crystal_system       triclinic
_cell_length_a                    10.869597
_cell_length_b                    9.516922
_cell_length_c                    15.1515
_cell_angle_alpha                 90.618459
_cell_angle_beta                  90.621164
_cell_angle_gamma                 90.405497
_cell_volume                      1567.12455956

loop_
_atom_site_label
_atom_site_type_symbol
_atom_type_description
_atom_site_fract_x
_atom_site_fract_y
_atom_site_fract_z
_atom_type_partial_charge
C1    C     C_R   0.262407 0.500067 0.498792 0.809980
C2    C     C_R   0.737549 0.500629 0.500545 0.807069
C3    C     C_R   0.502939 0.499427 0.329363 0.783222
C4    C     C_R   0.500248 0.500232 0.669661 0.800601
C5    C     C_R   0.412425 0.072773 0.454123 0.021581
C6    C     C_R   0.586200 0.927306 0.547088 -0.000349
C7    C     C_R   0.586631 0.075997 0.546905 0.004499
C8    C     C_R   0.412933 0.924030 0.453468 0.024949
C9    C     C_R   0.062106 0.411539 0.439855 -0.063623
C10   C     C_R   0.937763 0.597351 0.554018 -0.051134
C11   C     C_R   0.933435 0.411535 0.440597 -0.074959
C12   C     C_R   0.066145 0.599042 0.552103 -0.062512
C13   C     C_R   0.549017 0.622793 0.094029 -0.189980
C14   C     C_R   0.393503 0.503541 0.904722 -0.180511
C15   C     C_R   0.616550 0.502948 0.904071 -0.178259
C16   C     C_R   0.471508 0.384298 0.088945 -0.194611
C17   C     C_R   0.549651 0.621258 0.186032 -0.039558
C18   C     C_R   0.390701 0.498442 0.812792 -0.033745
C19   C     C_R   0.615185 0.495042 0.812186 -0.035352
C20   C     C_R   0.473521 0.378547 0.180718 -0.033855
C21   C     C_R   0.508882 0.499278 0.231418 -0.128203
C22   C     C_R   0.502041 0.500008 0.765901 -0.103351
C23   C     C_R   0.508035 0.505849 0.045996 0.078997
C24   C     C_R   0.506050 0.508428 0.950023 0.068189
C25   C     C_R   0.871458 0.502414 0.498996 -0.124741
C26   C     C_R   0.128360 0.502187 0.497528 -0.126918
Cu1   Cu    Cu3+1 0.500000 0.640660 0.500000 0.987415
Cu2   Cu    Cu3+1 0.500000 0.359340 0.500000 0.992830
H1    H     H_    0.341843 0.127420 0.417977 0.156175
H2    H     H_    0.654498 0.872779 0.585108 0.151843
H3    H     H_    0.655941 0.133163 0.584727 0.137326
H4    H     H_    0.343335 0.866878 0.415928 0.129749
H5    H     H_    0.579774 0.715670 0.059414 0.147123
H6    H     H_    0.308275 0.501108 0.941321 0.149327
H7    H     H_    0.703182 0.498835 0.940163 0.150043
H8    H     H_    0.442961 0.292822 0.050280 0.146118
N1    N     N_R   0.500000 0.852070 0.500000 -0.169355
N2    N     N_R   0.500000 0.147930 0.500000 -0.172622
O1    O     O_R   0.319640 0.618740 0.499990 -0.590403
O2    O     O_R   0.680360 0.381260 0.500010 -0.578667
O3    O     O_R   0.680360 0.618740 0.500010 -0.584685
O4    O     O_R   0.319640 0.381260 0.499990 -0.577392
O5    O     O_R   0.499990 0.618780 0.371460 -0.576356
O6    O     O_R   0.500010 0.381220 0.628540 -0.579448
O7    O     O_R   0.500010 0.618780 0.628540 -0.566469
O8    O     O_R   0.499990 0.381220 0.371460 -0.564770
C27   C     C_1   0.596762 0.745637 0.230908 0.280129
N3    N     N_1   0.634530 0.845331 0.266618 -0.243426
C28   C     C_1   0.273325 0.478593 0.768834 0.244964
N4    N     N_1   0.178909 0.460360 0.734489 -0.265850
C29   C     C_1   0.729367 0.466818 0.767859 0.238911
N5    N     N_1   0.820993 0.441378 0.733209 -0.268801
C30   C     C_1   0.440668 0.245313 0.218876 0.319020
N6    N     N_1   0.415097 0.137248 0.248012 -0.273583
C31   C     C_1   0.125047 0.326054 0.374872 0.241060
N7    N     N_1   0.173878 0.258250 0.322224 -0.286367
C32   C     C_1   0.875917 0.688757 0.616518 0.283327
N8    N     N_1   0.828763 0.761176 0.667594 -0.296746
C33   C     C_1   0.865190 0.322327 0.378472 0.268639
N9    N     N_1   0.810815 0.251425 0.329020 -0.249520
C34   C     C_1   0.133331 0.700082 0.607410 0.300551
N10   N     N_1   0.186593 0.780701 0.651289 -0.257516

loop_
_geom_bond_atom_site_label_1
_geom_bond_atom_site_label_2
_ccdc_geom_bond_type
C14   H6    S    
C5    C8    A    
C23   C24   S    
C13   H5    S    
C19   C22   A    
C9    C31   S    
C19   C29   S    
C16   C23   A    
C4    C22   S    
Cu1   O3    S    
C3    O8    A    
C27   N3    T    
C13   C17   A    
C16   C20   A    
C3    O5    A    
Cu1   O7    S    
C31   N7    T    
C6    N1    A    
C33   N9    T    
C18   C22   A    
C30   N6    T    
C16   H8    S    
C15   C19   A    
C12   C34   S    
C9    C11   A    
Cu2   O8    S    
C32   N8    T    
C34   N10   T    
C10   C12   A    
Cu1   N1    S    
C11   C33   S    
C10   C25   A    
Cu2   O4    S    
C15   C24   A    
C6    H2    S    
C7    N2    A    
C9    C26   A    
C2    C25   S    
C5    H1    S    
C4    O7    A    
C1    C26   S    
C3    C21   S    
C7    H3    S    
C8    N1    A    
Cu2   O2    S    
C2    O3    A    
Cu1   O1    S    
C29   N5    T    
C8    H4    S    
C11   C25   A    
C2    O2    A    
C1    O4    A    
C10   C32   S    
C20   C21   A    
C13   C23   A    
C28   N4    T    
C14   C24   A    
Cu1   Cu2   S    
C15   H7    S    
Cu1   O5    S    
C1    O1    A    
C4    O6    A    
Cu2   N2    S    
C5    N2    A    
C14   C18   A    
Cu2   O6    S    
C17   C21   A    
C6    C7    A    
C17   C27   S    
C18   C28   S    
C12   C26   A    
C20   C30   S    
