data_mof_unit_36806.cif
_audit_creation_date              2012-12-11T15:56:58-0500
_audit_creation_method            fapswitch 2.2
_symmetry_space_group_name_H-M    P1
_symmetry_Int_Tables_number       1
_space_group_crystal_system       triclinic
_cell_length_a                    17.50428
_cell_length_b                    24.597703
_cell_length_c                    14.999867
_cell_angle_alpha                 90.115799
_cell_angle_beta                  126.351152
_cell_angle_gamma                 89.944713
_cell_volume                      5201.59608947

loop_
_atom_site_label
_atom_site_type_symbol
_atom_type_description
_atom_site_fract_x
_atom_site_fract_y
_atom_site_fract_z
_atom_type_partial_charge
Br1   Br    Br    0.259331 0.753341 0.815676 -0.566421
Br2   Br    Br    0.737499 0.931802 0.573335 -0.510902
Br3   Br    Br    0.237746 0.569123 0.573608 -0.495821
Br4   Br    Br    0.240088 0.433547 0.576934 -0.502337
Br5   Br    Br    0.381309 0.062764 0.335633 -0.617619
Br6   Br    Br    0.381028 0.936661 0.335546 -0.616749
Br7   Br    Br    0.881311 0.562365 0.333960 -0.607607
Br8   Br    Br    0.883218 0.436299 0.337559 -0.607890
Br9   Br    Br    0.083638 0.153597 0.786017 -0.509649
Br10  Br    Br    0.912176 0.245552 0.018077 -0.552321
Br11  Br    Br    0.902648 0.753722 0.996405 -0.609362
Br12  Br    Br    0.861315 0.192600 0.215775 -0.584458
Br13  Br    Br    0.864556 0.813115 0.206143 -0.598543
Br14  Br    Br    0.308080 0.650331 0.020293 -0.571125
Br15  Br    Br    0.147991 0.305706 0.784991 -0.587387
Br16  Br    Br    0.737966 0.067382 0.574130 -0.463876
C1    C     C_R   0.307297 0.121145 0.906717 -0.106741
C2    C     C_R   0.563804 0.150329 0.909982 -0.168442
C3    C     C_R   0.816233 0.359903 0.001138 0.062905
C4    C     C_R   0.557193 0.999702 0.363766 0.147868
C5    C     C_R   0.058697 0.500159 0.364634 0.156483
C6    C     C_R   0.190490 0.999475 0.637564 0.063589
C7    C     C_R   0.690494 0.500367 0.637615 0.056548
C8    C     C_R   0.522219 0.045509 0.755474 -0.132405
C9    C     C_R   0.522192 0.954346 0.755421 -0.130902
C10   C     C_R   0.022606 0.545674 0.756072 -0.115345
C11   C     C_R   0.021761 0.454496 0.754761 -0.146556
C12   C     C_R   0.769288 0.954429 0.247523 -0.102730
C13   C     C_R   0.068127 0.351668 0.909463 -0.055205
C14   C     C_R   0.769068 0.045950 0.248052 -0.083767
C15   C     C_R   0.269237 0.454099 0.248692 -0.098568
C16   C     C_R   0.269146 0.545615 0.246862 -0.089158
C17   C     C_3   0.141236 0.023096 0.391582 -0.410142
C18   C     C_3   0.091628 0.032968 0.268469 -0.722942
C19   C     C_3   0.639817 0.469714 0.392469 -0.403023
C20   C     C_3   0.589569 0.458478 0.269558 -0.777365
C21   C     C_3   0.529112 0.287262 0.955534 -0.314085
C22   C     C_3   0.565441 0.305499 0.071954 -0.893914
C23   C     C_3   0.534563 0.713966 0.968645 -0.274682
C24   C     C_R   0.055092 0.651934 0.909043 -0.065822
C25   C     C_3   0.575517 0.701301 0.088905 -0.852141
C26   C     C_3   0.164004 0.781553 0.154397 -0.266042
C27   C     C_3   0.264840 0.776483 0.262053 -0.860102
C28   C     C_3   0.350937 0.302642 0.197918 -0.338097
C29   C     C_3   0.451118 0.292926 0.230791 -0.910879
C30   C     C_R   0.552936 0.999875 0.730162 0.095820
C31   C     C_R   0.052936 0.500102 0.730143 0.118720
C32   C     C_R   0.823809 0.000339 0.271320 0.053597
C33   C     C_R   0.323820 0.499658 0.271480 0.048470
C34   C     C_R   0.631091 0.178799 0.003972 0.056888
C35   C     C_R   0.632446 0.821864 0.003746 0.055596
C36   C     C_R   0.120644 0.681844 0.001227 0.075495
C37   C     C_R   0.311007 0.873428 0.905082 -0.066531
C38   C     C_R   0.142182 0.325677 0.002821 0.040933
C39   C     C_3   0.031408 0.950233 0.489766 -0.171005
C40   C     C_3   0.021839 0.037575 0.514364 -0.133177
C41   C     C_3   0.520583 0.464625 0.516571 -0.153882
C42   C     C_3   0.533570 0.550508 0.486279 -0.205557
C43   C     C_3   0.954334 0.988754 0.471858 -0.091390
C44   C     C_3   0.455058 0.514363 0.470948 -0.086168
C45   C     C_3   0.924958 0.000507 0.354863 0.101096
C46   C     C_3   0.425013 0.499448 0.354780 0.127218
C47   C     C_3   0.001082 0.961740 0.371480 -0.144277
C48   C     C_R   0.809014 0.624473 0.907316 -0.099255
C49   C     C_3   0.991922 0.049649 0.396721 -0.177842
C50   C     C_3   0.490057 0.449380 0.399833 -0.205060
C51   C     C_3   0.502540 0.535815 0.368730 -0.167697
C52   C     C_3   0.069921 0.010853 0.416164 0.216322
C53   C     C_3   0.569462 0.485801 0.416639 0.244916
C54   C     C_R   0.405138 0.871601 0.091618 -0.106196
C55   C     C_R   0.399509 0.119201 0.091418 -0.125855
C56   C     C_R   0.903260 0.376853 0.093172 -0.028404
C57   C     C_R   0.903145 0.623067 0.093209 -0.043257
C58   C     C_3   0.098618 0.999151 0.532129 0.055474
C59   C     C_R   0.809314 0.374963 0.907196 -0.108241
C60   C     C_3   0.598825 0.500658 0.531856 0.082770
C61   C     C_3   0.205603 0.830420 0.035301 -0.479784
C62   C     C_3   0.306791 0.201805 0.123305 -0.475415
C63   C     C_3   0.658338 0.326227 0.939550 -0.508567
C64   C     C_3   0.660384 0.672867 0.948488 -0.505169
C65   C     C_3   0.605428 0.274896 0.936238 0.025351
C66   C     C_3   0.607303 0.724653 0.943018 -0.018708
C67   C     C_3   0.152127 0.782526 0.042832 -0.019100
C68   C     C_3   0.270848 0.258167 0.126884 0.035086
C69   C     C_3   0.803522 0.298892 0.124680 -0.405328
C70   C     C_R   0.652634 0.149937 0.094158 -0.090777
C71   C     C_3   0.810141 0.704782 0.124862 -0.414769
C72   C     C_3   0.333932 0.764266 0.075160 -0.415073
C73   C     C_3   0.283149 0.231506 0.947153 -0.401263
C74   C     C_3   0.195250 0.784533 0.876704 0.219008
C75   C     C_3   0.155476 0.176514 0.940922 0.223879
C76   C     C_3   0.778812 0.263378 0.948970 0.247884
C77   C     C_3   0.772322 0.735240 0.939967 0.244475
C78   C     C_3   0.264202 0.809377 0.995338 0.172177
C79   C     C_3   0.263832 0.184653 0.001527 0.137783
C80   C     C_3   0.765197 0.313233 0.003785 0.152518
C81   C     C_R   0.653794 0.850537 0.094154 -0.085564
C82   C     C_3   0.765622 0.687056 0.003653 0.162134
C83   C     C_3   0.678823 0.228006 0.006305 0.161120
C84   C     C_3   0.680023 0.772744 0.005928 0.168079
C85   C     C_3   0.171190 0.729126 0.000983 0.144846
C86   C     C_3   0.189113 0.275736 0.004484 0.098967
C87   C     C_3   0.759020 0.246572 0.127791 0.199381
C88   C     C_3   0.764877 0.756881 0.127211 0.201666
C89   C     C_3   0.279208 0.715267 0.071601 0.245182
C90   C     C_3   0.233903 0.284076 0.941105 0.224469
C91   C     C_3   0.726737 0.213619 0.949227 -0.463628
C92   C     C_R   0.149823 0.651137 0.092820 -0.100682
C93   C     C_3   0.721926 0.785502 0.941597 -0.458578
C94   C     C_3   0.136006 0.740492 0.879481 -0.475557
C95   C     C_3   0.113082 0.229674 0.948697 -0.432315
C96   C     C_3   0.615768 0.050526 0.641444 -0.445190
C97   C     C_3   0.615344 0.948866 0.640896 -0.444321
C98   C     C_3   0.117018 0.550742 0.642548 -0.405888
C99   C     C_3   0.114958 0.449070 0.640672 -0.416825
C100  C     C_R   0.546642 0.045087 0.303791 -0.048111
C101  C     C_R   0.544756 0.954455 0.302363 -0.035725
C102  C     C_R   0.046672 0.545363 0.303650 -0.052063
C103  C     C_R   0.158876 0.352324 0.093630 -0.149545
C104  C     C_R   0.046805 0.454831 0.303673 -0.053631
C105  C     C_3   0.612430 0.052021 0.536827 0.229033
C106  C     C_3   0.612115 0.947336 0.536305 0.226131
C107  C     C_3   0.112901 0.552699 0.537364 0.224526
C108  C     C_3   0.113573 0.448024 0.537350 0.226846
C109  C     C_3   0.458261 0.999901 0.530925 -0.491904
C110  C     C_3   0.958811 0.500920 0.530927 -0.492172
C111  C     C_3   0.561697 0.999783 0.638493 0.176704
C112  C     C_3   0.062065 0.500227 0.638723 0.130169
C113  C     C_3   0.561428 0.999702 0.464585 -0.063353
C114  C     C_R   0.564117 0.849801 0.909782 -0.153379
C115  C     C_3   0.062568 0.500245 0.465283 -0.077186
C116  C     C_3   0.455864 0.999754 0.427120 0.511269
C117  C     C_3   0.956842 0.500034 0.427401 0.511568
C118  C     C_R   0.239510 0.954104 0.697044 -0.137240
C119  C     C_R   0.239658 0.045274 0.695988 -0.125129
C120  C     C_R   0.739481 0.454572 0.696205 -0.152583
C121  C     C_R   0.739498 0.545830 0.697242 -0.128994
C122  C     C_R   0.311370 0.135271 0.999379 0.102074
C123  C     C_R   0.319303 0.854419 0.996922 0.052145
C124  C     C_R   0.816090 0.639916 0.001198 0.069834
H1    H     H_    0.251902 0.129828 0.821178 0.151299
H2    H     H_    0.974294 0.090023 0.356225 0.186431
H3    H     H_    0.537297 0.425055 0.241256 0.235689
H4    H     H_    0.552372 0.495576 0.220330 0.260831
H5    H     H_    0.642512 0.446266 0.255114 0.282044
H6    H     H_    0.691912 0.503129 0.419234 0.213350
H7    H     H_    0.678736 0.432687 0.440676 0.198105
H8    H     H_    0.585065 0.269654 0.126326 0.244540
H9    H     H_    0.626233 0.333832 0.108531 0.271682
H10   H     H_    0.507653 0.327121 0.067672 0.253127
H11   H     H_    0.482088 0.319802 0.896694 0.218654
H12   H     H_    0.483186 0.250980 0.933211 0.182462
H13   H     H_    0.470678 0.408224 0.362089 0.124076
H14   H     H_    0.635914 0.672562 0.126518 0.264890
H15   H     H_    0.597252 0.739395 0.137946 0.232334
H16   H     H_    0.519607 0.682354 0.092038 0.285514
H17   H     H_    0.486599 0.749608 0.942066 0.215342
H18   H     H_    0.488929 0.679222 0.916598 0.237133
H19   H     H_    0.287980 0.733640 0.281668 0.227629
H20   H     H_    0.317802 0.800307 0.261008 0.269133
H21   H     H_    0.265036 0.791993 0.331777 0.268413
H22   H     H_    0.134312 0.820435 0.159636 0.229224
H23   H     H_    0.118959 0.749230 0.152496 0.217191
H24   H     H_    0.492508 0.564410 0.305416 0.149664
H25   H     H_    0.488582 0.261409 0.296212 0.264840
H26   H     H_    0.449284 0.281484 0.158328 0.258714
H27   H     H_    0.493166 0.330921 0.265907 0.247267
H28   H     H_    0.328821 0.342427 0.154972 0.186144
H29   H     H_    0.358808 0.309110 0.276389 0.184388
H30   H     H_    0.251952 0.852419 0.115113 0.231458
H31   H     H_    0.384354 0.201956 0.175134 0.207457
H32   H     H_    0.648543 0.361202 0.978904 0.215882
H33   H     H_    0.655657 0.639870 0.995572 0.218294
H34   H     H_    0.153261 0.861062 0.975381 0.173964
H35   H     H_    0.287286 0.171074 0.161123 0.189495
H36   H     H_    0.628434 0.338962 0.853459 0.156306
H37   H     H_    0.254057 0.867663 0.818785 0.121429
H38   H     H_    0.626784 0.656962 0.863275 0.162126
H39   H     H_    0.075086 0.791287 0.980780 0.162190
H40   H     H_    0.237179 0.251589 0.169941 0.126034
H41   H     H_    0.562218 0.261023 0.848344 0.104084
H42   H     H_    0.561130 0.736253 0.853824 0.117897
H43   H     H_    0.788776 0.332750 0.161832 0.181316
H44   H     H_    0.800998 0.672040 0.168998 0.179823
H45   H     H_    0.379519 0.779274 0.161852 0.132708
H46   H     H_    0.360729 0.238491 0.994599 0.142995
H47   H     H_    0.730355 0.254137 0.175414 0.111738
H48   H     H_    0.751707 0.632983 0.822052 0.088095
H49   H     H_    0.740746 0.749913 0.179608 0.106092
H50   H     H_    0.306844 0.705107 0.157566 0.089110
H51   H     H_    0.287591 0.317114 0.981318 0.108710
H52   H     H_    0.434517 0.863377 0.176955 0.117590
H53   H     H_    0.426591 0.121577 0.177024 0.132090
H54   H     H_    0.932970 0.372217 0.179306 0.117633
H55   H     H_    0.932926 0.628221 0.179353 0.117050
H56   H     H_    0.145836 0.816491 0.818069 0.087046
H57   H     H_    0.144754 0.143644 0.983394 0.122737
H58   H     H_    0.747418 0.272881 0.861048 0.083534
H59   H     H_    0.752276 0.366073 0.821890 0.089811
H60   H     H_    0.735815 0.723693 0.851729 0.082114
H61   H     H_    0.060450 0.753770 0.828174 0.147726
H62   H     H_    0.085465 0.222213 0.998015 0.192596
H63   H     H_    0.672907 0.200552 0.861980 0.133726
H64   H     H_    0.665021 0.797223 0.854499 0.131018
H65   H     H_    0.775507 0.178420 0.990209 0.255259
H66   H     H_    0.770462 0.821064 0.978058 0.256457
H67   H     H_    0.138528 0.703079 0.839614 0.243981
H68   H     H_    0.051127 0.242282 0.865125 0.241192
H69   H     H_    0.881460 0.293201 0.177383 0.234667
H70   H     H_    0.048303 0.909660 0.529548 0.152029
H71   H     H_    0.887499 0.711793 0.171082 0.233457
H72   H     H_    0.382929 0.752405 0.054280 0.226779
H73   H     H_    0.259284 0.220135 0.862712 0.218705
H74   H     H_    0.583865 0.088874 0.644263 0.149830
H75   H     H_    0.582995 0.910633 0.643174 0.150102
H76   H     H_    0.086275 0.589219 0.646937 0.164168
H77   H     H_    0.080710 0.411126 0.640427 0.196383
H78   H     H_    0.690221 0.049483 0.717414 0.222618
H79   H     H_    0.689782 0.949696 0.716922 0.222194
H80   H     H_    0.191649 0.548975 0.718048 0.233642
H81   H     H_    0.031674 0.068230 0.574827 0.189553
H82   H     H_    0.188895 0.448947 0.717687 0.225935
H83   H     H_    0.570617 0.088507 0.489372 0.117873
H84   H     H_    0.570184 0.910890 0.488509 0.119527
H85   H     H_    0.070195 0.588971 0.489933 0.130020
H86   H     H_    0.072767 0.411372 0.489274 0.138043
H87   H     H_    0.419910 0.036040 0.530804 0.201866
H88   H     H_    0.419518 0.963967 0.530586 0.202217
H89   H     H_    0.921534 0.537645 0.530715 0.201476
H90   H     H_    0.918825 0.465594 0.530300 0.207285
H91   H     H_    0.561145 0.086861 0.331514 0.113600
H92   H     H_    0.529330 0.435865 0.579003 0.139639
H93   H     H_    0.556924 0.912458 0.328200 0.111094
H94   H     H_    0.060572 0.587210 0.330852 0.121595
H95   H     H_    0.061059 0.413041 0.330879 0.122859
H96   H     H_    0.225400 0.912607 0.667407 0.111817
H97   H     H_    0.224759 0.086622 0.665666 0.111255
H98   H     H_    0.724368 0.413114 0.666207 0.100959
H99   H     H_    0.725372 0.587375 0.668174 0.094939
H100  H     H_    0.527112 0.087493 0.739282 0.102719
H101  H     H_    0.527099 0.912319 0.739210 0.101958
H102  H     H_    0.028624 0.587825 0.741586 0.108261
H103  H     H_    0.551944 0.591856 0.523218 0.131665
H104  H     H_    0.025770 0.412587 0.737263 0.140978
H105  H     H_    0.793467 0.912817 0.264996 0.152122
H106  H     H_    0.792493 0.087711 0.265318 0.147479
H107  H     H_    0.293187 0.412484 0.267346 0.092079
H108  H     H_    0.293004 0.587341 0.262784 0.108449
H109  H     H_    0.690729 0.163370 0.179004 0.124031
H110  H     H_    0.693014 0.837369 0.179198 0.114970
H111  H     H_    0.194803 0.663198 0.178517 0.090612
H112  H     H_    0.197861 0.338501 0.178122 0.102445
H113  H     H_    0.523161 0.835528 0.825130 0.099197
H114  H     H_    0.990079 0.931279 0.310163 0.173235
H115  H     H_    0.523205 0.164324 0.825277 0.094351
H116  H     H_    0.023422 0.336496 0.825701 0.145198
H117  H     H_    0.009440 0.664853 0.823616 0.089015
H118  H     H_    0.905063 0.979728 0.493654 0.178357
H119  H     H_    0.406337 0.526075 0.492261 0.167140
H120  H     H_    0.050648 0.996406 0.219852 0.248263
H121  H     H_    0.042869 0.068293 0.240031 0.260219
H122  H     H_    0.145394 0.041705 0.253511 0.282470
H123  H     H_    0.182962 0.059724 0.439017 0.205065
H124  H     H_    0.190761 0.988211 0.418962 0.212899
N1    N     N_R   0.392450 0.103580 0.942190 -0.055185
N2    N     N_R   0.525490 0.971610 0.207550 -0.049927
N3    N     N_R   0.025490 0.528390 0.207550 -0.056759
N4    N     N_R   0.025490 0.471610 0.207550 -0.056902
N5    N     N_R   0.317450 0.971190 0.792000 -0.041060
N6    N     N_R   0.317450 0.028810 0.792000 -0.039469
N7    N     N_R   0.817450 0.471190 0.792000 -0.039783
N8    N     N_R   0.817450 0.528810 0.792000 -0.042730
N9    N     N_R   0.473900 0.028390 0.792280 -0.045550
N10   N     N_R   0.473900 0.971610 0.792280 -0.044603
N11   N     N_R   0.973900 0.528390 0.792280 -0.050613
N12   N     N_R   0.392450 0.896420 0.942190 -0.044336
N13   N     N_R   0.973900 0.471610 0.792280 -0.049396
N14   N     N_R   0.682310 0.971180 0.208170 -0.048935
N15   N     N_R   0.682310 0.028820 0.208170 -0.048286
N16   N     N_R   0.182310 0.471180 0.208170 -0.043844
N17   N     N_R   0.182310 0.528820 0.208170 -0.047685
N18   N     N_R   0.606470 0.103570 0.057210 -0.045140
N19   N     N_R   0.606470 0.896430 0.057210 -0.045753
N20   N     N_R   0.106470 0.603570 0.057210 -0.039420
N21   N     N_R   0.106470 0.396430 0.057210 -0.039123
N22   N     N_R   0.549740 0.896000 0.943240 -0.035845
N23   N     N_R   0.892450 0.603580 0.942190 -0.039133
N24   N     N_R   0.549740 0.104000 0.943240 -0.034911
N25   N     N_R   0.049740 0.396000 0.943240 -0.048941
N26   N     N_R   0.049740 0.604000 0.943240 -0.040778
N27   N     N_R   0.892450 0.396420 0.942190 -0.038047
N28   N     N_R   0.450490 0.896000 0.057360 -0.050957
N29   N     N_R   0.450490 0.104000 0.057360 -0.053699
N30   N     N_R   0.950490 0.396000 0.057360 -0.043930
N31   N     N_R   0.950490 0.604000 0.057360 -0.047245
N32   N     N_R   0.525490 0.028390 0.207550 -0.049842
Ni1   Ni    Ni4+2 0.433780 0.065390 0.868430 0.214588
Ni2   Ni    Ni4+2 0.433780 0.934610 0.868430 0.231652
Ni3   Ni    Ni4+2 0.933780 0.565390 0.868430 0.224296
Ni4   Ni    Ni4+2 0.933780 0.434610 0.868430 0.228020
Ni5   Ni    Ni4+2 0.565800 0.934190 0.131570 0.232762
Ni6   Ni    Ni4+2 0.565800 0.065810 0.131570 0.232993
Ni7   Ni    Ni4+2 0.065800 0.434190 0.131570 0.247874
Ni8   Ni    Ni4+2 0.065800 0.565810 0.131570 0.240884

loop_
_geom_bond_atom_site_label_1
_geom_bond_atom_site_label_2
_ccdc_geom_bond_type
C35   C81   A    
C83   C87   S    
C39   C43   S    
C73   H46   S    
C11   H104  S    
C54   H52   S    
C31   C112  S    
C11   N13   A    
C118  N5    A    
C16   H108  S    
C41   C60   S    
Br7   C117  S    
C120  H98   S    
C56   H54   S    
C69   C80   S    
C2    N24   A    
C42   C44   S    
N7    N8    A    
C84   C88   S    
C44   C46   S    
C28   H28   S    
C45   C47   S    
C39   C58   S    
C51   H24   S    
C121  N8    A    
C97   C106  S    
C73   C90   S    
C101  N2    A    
C8    H100  S    
C25   H16   S    
C64   C82   S    
Br11  C77   S    
N20   N26   A    
C84   C93   S    
C106  H84   S    
C78   C123  S    
C21   C65   S    
C86   C95   S    
N11   Ni3   S    
C36   C85   S    
C98   H76   S    
C77   H60   S    
C87   H47   S    
Br6   C116  S    
C65   C83   S    
C85   C94   S    
C119  H97   S    
C37   H37   S    
C54   N28   A    
C63   H32   S    
C21   C22   S    
C98   C112  S    
C49   C52   S    
N8    Ni3   S    
C22   H8    S    
N30   Ni7   S    
C10   C31   A    
C16   N17   A    
C63   C65   S    
C48   C124  A    
C33   C46   S    
C14   H106  S    
C37   C123  A    
C26   C67   S    
C98   H80   S    
C69   H69   S    
C69   C87   S    
C50   H13   S    
C107  H85   S    
C40   C43   S    
C6    C119  A    
C8    C30   A    
C20   H4    S    
C63   C80   S    
N23   N31   A    
C91   H65   S    
N18   Ni6   S    
C102  N3    A    
C45   C49   S    
C42   C51   S    
C19   C53   S    
C72   H72   S    
C109  C111  S    
C118  H96   S    
C22   H9    S    
C61   H34   S    
C68   C86   S    
C99   H82   S    
C7    C60   S    
C114  N22   A    
C42   C60   S    
N32   Ni6   S    
C17   H124  S    
C7    C120  A    
Br15  C90   S    
C14   C32   A    
C64   H33   S    
C27   H19   S    
C40   H81   S    
C52   C58   S    
N21   N25   A    
C61   C78   S    
C76   C80   S    
Br4   C108  S    
C53   C60   S    
C68   H40   S    
C55   N29   A    
C96   C111  S    
Br14  C89   S    
C39   C47   S    
C43   H118  S    
C94   H67   S    
C96   H74   S    
C109  H88   S    
C29   H26   S    
C95   H68   S    
C70   H109  S    
N15   Ni6   S    
C38   C103  A    
N19   N22   A    
N4    Ni7   S    
C76   H58   S    
N5    Ni2   S    
N9    N10   A    
C72   C78   S    
C43   C45   S    
C46   C50   S    
C30   C111  S    
C110  H89   S    
N16   N17   A    
C64   C66   S    
C41   H92   S    
C99   C112  S    
C121  H99   S    
C91   H63   S    
C15   N16   A    
C101  H93   S    
N1    N29   A    
C70   N18   A    
C18   H120  S    
N28   Ni5   S    
N27   Ni4   S    
C48   H48   S    
C98   C107  S    
C72   H45   S    
C23   H18   S    
C62   H35   S    
C6    C58   S    
C21   H12   S    
C11   C31   A    
C35   C84   S    
C47   C52   S    
C12   C32   A    
C110  C112  S    
C67   C85   S    
C18   H121  S    
N16   Ni7   S    
C71   H71   S    
C63   H36   S    
C93   H64   S    
C23   C66   S    
C92   N20   A    
N12   Ni2   S    
N3    N4    A    
C26   H22   S    
C9    H101  S    
C66   H42   S    
C67   H39   S    
C71   C82   S    
C96   C105  S    
C72   C89   S    
N19   Ni5   S    
C88   H49   S    
N9    Ni1   S    
C16   C33   A    
C75   C79   S    
C20   H5    S    
N14   Ni5   S    
C74   H56   S    
C23   C25   S    
C74   C94   S    
N14   N15   A    
C17   C52   S    
C77   C93   S    
C25   H15   S    
Br1   C74   S    
C104  N4    A    
C19   C20   S    
C4    C113  S    
N23   Ni3   S    
N21   Ni7   S    
C81   N19   A    
C104  H95   S    
C55   H53   S    
C47   H114  S    
C13   C38   A    
N2    N32   A    
C28   H29   S    
C5    C115  S    
C37   N12   A    
Br3   C107  S    
C61   H30   S    
N24   Ni1   S    
C24   N26   A    
C41   C50   S    
C106  C113  S    
C103  N21   A    
C113  C116  S    
Br10  C76   S    
C54   C123  A    
C69   H43   S    
N5    N6    A    
N3    Ni8   S    
C15   C33   A    
C4    C101  A    
C74   C78   S    
C55   C122  A    
Br2   C106  S    
C40   C58   S    
Br12  C87   S    
C41   C44   S    
C107  C115  S    
C19   H6    S    
C64   H38   S    
C73   C79   S    
Br16  C105  S    
C5    C102  A    
N13   Ni4   S    
C62   C79   S    
C34   C83   S    
Br13  C88   S    
N17   Ni8   S    
N6    Ni1   S    
C48   N23   A    
C59   H59   S    
C57   H55   S    
C26   C27   S    
C13   N25   A    
C28   C29   S    
C2    C34   A    
C73   H73   S    
C100  N32   A    
C99   C108  S    
C110  H90   S    
C89   H50   S    
C38   C86   S    
C105  C113  S    
C28   C68   S    
N7    Ni4   S    
C108  H86   S    
C24   H117  S    
C81   H110  S    
C2    H115  S    
C83   C91   S    
C17   H123  S    
N1    Ni1   S    
C39   H70   S    
C10   N11   A    
C62   H31   S    
C120  N7    A    
C42   H103  S    
C71   C88   S    
C114  H113  S    
C109  H87   S    
C29   H25   S    
N18   N24   A    
C65   H41   S    
Br9   C75   S    
C14   N15   A    
C9    N10   A    
C46   C51   S    
C6    C118  A    
C94   H61   S    
C44   H119  S    
N11   N13   A    
C20   H3    S    
C5    C104  A    
N10   Ni2   S    
C50   C53   S    
C61   C67   S    
C40   C49   S    
C13   H116  S    
C75   C95   S    
C1    N1    A    
C110  C117  S    
C1    C122  A    
C23   H17   S    
C15   H107  S    
C3    C56   A    
C90   H51   S    
C21   H11   S    
C95   H62   S    
C35   C114  A    
C8    N9    A    
Br5   C116  S    
C85   C89   S    
C18   H122  S    
C92   H111  S    
N27   N30   A    
C59   N27   A    
C27   H20   S    
C71   H44   S    
C4    C100  A    
C26   H23   S    
C24   C36   A    
C119  N6    A    
C108  C115  S    
C82   C124  S    
C51   C53   S    
N12   N28   A    
C102  H94   S    
C76   C91   S    
N2    Ni5   S    
C17   C18   S    
C105  H83   S    
C19   H7    S    
C29   H27   S    
C27   H21   S    
C100  H91   S    
C97   H75   S    
C25   H14   S    
N20   Ni8   S    
C79   C122  S    
Br8   C117  S    
N25   Ni4   S    
C66   C84   S    
C7    C121  A    
C99   H77   S    
N26   Ni3   S    
C115  C117  S    
C10   H102  S    
C12   N14   A    
C97   C111  S    
C57   C124  A    
C57   N31   A    
C3    C59   A    
C96   H78   S    
C103  H112  S    
C49   H2    S    
C109  C116  S    
C32   C45   S    
C77   C82   S    
C97   H79   S    
C86   C90   S    
C12   H105  S    
C93   H66   S    
C1    H1    S    
C34   C70   A    
C75   H57   S    
C62   C68   S    
C36   C92   A    
N22   Ni2   S    
N29   Ni6   S    
C56   N30   A    
C9    C30   A    
C22   H10   S    
C3    C80   S    
N31   Ni8   S    
