data_mof_unit_44151.cif
_audit_creation_date              2012-12-10T20:28:41-0500
_audit_creation_method            fapswitch 2.2
_symmetry_space_group_name_H-M    P1
_symmetry_Int_Tables_number       1
_space_group_crystal_system       triclinic
_cell_length_a                    10.629283
_cell_length_b                    10.665297
_cell_length_c                    9.87265
_cell_angle_alpha                 90.015573
_cell_angle_beta                  89.995742
_cell_angle_gamma                 89.845783
_cell_volume                      1119.20353829

loop_
_atom_site_label
_atom_site_type_symbol
_atom_type_description
_atom_site_fract_x
_atom_site_fract_y
_atom_site_fract_z
_atom_type_partial_charge
C1    C     C_R   0.504493 0.259937 0.500011 0.876257
C2    C     C_R   0.065440 0.611596 0.566425 0.092122
C3    C     C_R   0.128198 0.512484 0.499731 -0.083136
C4    C     C_R   0.064490 0.419000 0.429796 -0.210321
C5    C     C_R   0.936011 0.418987 0.429715 -0.220114
C6    C     C_R   0.871629 0.512436 0.499580 -0.089700
C7    C     C_R   0.531739 0.064008 0.622695 0.051749
C8    C     C_R   0.526679 0.128629 0.500299 -0.079511
C9    C     C_R   0.547473 0.064621 0.378149 -0.228954
C10   C     C_R   0.547520 0.934993 0.378198 -0.188134
C11   C     C_R   0.527010 0.871203 0.500435 -0.135550
C12   C     C_R   0.260496 0.503775 0.500036 0.867129
C13   C     C_R   0.532915 0.935882 0.622836 0.024168
C14   C     C_3   0.449214 0.930080 0.745192 0.301164
C15   C     C_3   0.448518 0.072623 0.744668 -0.544200
C16   C     C_R   0.429907 0.414528 0.070873 0.170420
C17   C     C_R   0.577463 0.576905 0.071981 -0.087968
C18   C     C_R   0.577460 0.576922 0.928024 -0.045974
C19   C     C_R   0.430997 0.413638 0.928442 0.124559
C20   C     C_3   0.292291 0.395638 0.920078 -0.521794
C21   C     C_3   0.290118 0.398851 0.074050 0.214232
C22   C     C_R   0.504561 0.740051 0.500031 0.844994
C23   C     C_R   0.739467 0.503586 0.499962 0.858441
C24   C     C_R   0.130207 0.711742 0.629187 -0.180387
C25   C     C_R   0.064173 0.808922 0.691926 -0.128700
C26   C     C_R   0.933280 0.808940 0.691755 -0.134031
C27   C     C_R   0.867989 0.711797 0.628889 -0.191680
C28   C     C_R   0.933574 0.611609 0.566293 0.094607
H1    H     H_    0.114587 0.344481 0.377686 0.146783
H2    H     H_    0.354574 0.113245 0.721050 0.171850
H3    H     H_    0.497263 0.115976 0.832575 0.211248
H4    H     H_    0.638093 0.640878 0.126273 0.138792
H5    H     H_    0.638188 0.640792 0.873740 0.154505
H6    H     H_    0.243190 0.476201 0.871609 0.247428
H7    H     H_    0.267601 0.302300 0.877839 0.157602
H8    H     H_    0.259851 0.309947 0.123255 0.081824
H9    H     H_    0.231658 0.717035 0.628478 0.142838
H10   H     H_    0.114638 0.885157 0.739518 0.129699
H11   H     H_    0.882105 0.885108 0.739192 0.132895
H12   H     H_    0.766457 0.717325 0.628166 0.147739
H13   H     H_    0.886446 0.344385 0.377654 0.151594
H14   H     H_    0.553934 0.113471 0.282205 0.168172
H15   H     H_    0.553903 0.886022 0.282263 0.181777
H16   H     H_    0.355887 0.887498 0.725055 0.122850
N1    N     N_R   0.499160 0.499140 0.142800 -0.086192
N2    N     N_R   0.499160 0.499180 0.857150 -0.095958
O1    O     O_R   0.500020 0.316790 0.614690 -0.607801
O2    O     O_R   0.500000 0.316760 0.385350 -0.640290
O3    O     O_R   0.316770 0.500020 0.614690 -0.631513
O4    O     O_R   0.316760 0.499980 0.385350 -0.554111
O5    O     O_R   0.500000 0.683240 0.614650 -0.612894
O6    O     O_R   0.499980 0.683210 0.385310 -0.607963
O7    O     O_R   0.683240 0.500020 0.614650 -0.627915
O8    O     O_R   0.683230 0.499980 0.385310 -0.625858
Zn1   Zn    Zn3+2 0.500010 0.500020 0.653130 0.955221
Zn2   Zn    Zn3+2 0.499990 0.499980 0.346870 0.979539
O9    O     O_3   0.509064 0.878155 0.859491 -0.747447
H17   H     H_    0.595568 0.912777 0.865855 0.328442
O10   O     O_3   0.229142 0.506310 0.123196 -0.697061
H18   H     H_    0.138033 0.486308 0.122938 0.334517

loop_
_geom_bond_atom_site_label_1
_geom_bond_atom_site_label_2
_ccdc_geom_bond_type
C16   N1    A    
N2    Zn1   S    
C4    H1    S    
C12   O4    A    
C14   O9    S    
C1    O2    A    
C15   H3    S    
C16   C21   S    
C25   H10   S    
C1    C8    S    
O4    Zn2   S    
C9    C10   A    
C10   H15   S    
C11   C22   S    
C1    O1    A    
C19   C20   S    
C7    C13   A    
C27   H12   S    
C20   H6    S    
C7    C15   S    
C12   O3    A    
O9    H17   S    
C19   N2    A    
O10   H18   S    
C21   H8    S    
C13   C14   S    
C24   C25   A    
C2    C24   A    
C4    C5    A    
C11   C13   A    
C9    H14   S    
C23   O8    A    
C16   C19   A    
C6    C23   S    
C18   N2    A    
C23   O7    A    
C22   O6    A    
C17   N1    A    
C2    C3    A    
C14   H16   S    
O5    Zn1   S    
O7    Zn1   S    
C26   C27   A    
C5    C6    A    
C17   H4    S    
C18   H5    S    
O8    Zn2   S    
C26   H11   S    
C10   C11   A    
C3    C4    A    
C21   O10   S    
C7    C8    A    
C20   C21   S    
C15   H2    S    
C17   C18   A    
C24   H9    S    
O2    Zn2   S    
O1    Zn1   S    
C5    H13   S    
C14   C15   S    
C22   O5    A    
C2    C28   A    
C3    C12   S    
C25   C26   A    
O3    Zn1   S    
C20   H7    S    
C6    C28   A    
O6    Zn2   S    
N1    Zn2   S    
C8    C9    A    
C27   C28   A    
