data_mof_unit_43121.cif
_audit_creation_date              2012-12-10T18:46:12-0500
_audit_creation_method            fapswitch 2.2
_symmetry_space_group_name_H-M    P1
_symmetry_Int_Tables_number       1
_space_group_crystal_system       triclinic
_cell_length_a                    9.839457
_cell_length_b                    10.716774
_cell_length_c                    13.128371
_cell_angle_alpha                 90.072564
_cell_angle_beta                  69.669414
_cell_angle_gamma                 90.039217
_cell_volume                      1298.10930987

loop_
_atom_site_label
_atom_site_type_symbol
_atom_type_description
_atom_site_fract_x
_atom_site_fract_y
_atom_site_fract_z
_atom_type_partial_charge
C1    C     C_R   0.500040 0.740143 0.500089 0.872233
C2    C     C_R   0.429848 0.473241 0.984979 0.100677
C3    C     C_R   0.457412 0.438534 0.876184 0.083204
C4    C     C_R   0.540493 0.453883 0.029117 0.078749
C5    C     C_R   0.664927 0.382783 0.971497 0.122208
C6    C     C_R   0.679222 0.333025 0.870271 -0.240686
C7    C     C_R   0.576716 0.360342 0.823070 -0.195203
C8    C     C_R   0.532133 0.506245 0.127969 -0.310093
C9    C     C_R   0.755461 0.403433 0.121174 0.190878
C10   C     C_R   0.366171 0.484998 0.822626 -0.125071
C11   C     C_R   0.631169 0.936177 0.478030 -0.196018
C12   C     C_R   0.419417 0.493946 0.704375 0.860285
C13   C     C_R   0.631177 0.064023 0.477796 -0.200654
C14   C     C_R   0.500065 0.127455 0.499720 -0.010837
C15   C     C_R   0.368996 0.063881 0.521713 -0.195946
C16   C     C_R   0.368994 0.936049 0.521911 -0.196381
C17   C     C_R   0.500079 0.872594 0.500064 -0.014736
C18   C     C_R   0.957250 0.417639 0.436929 -0.095147
C19   C     C_R   0.101173 0.417785 0.436814 -0.071538
C20   C     C_R   0.042617 0.582043 0.563431 -0.085549
C21   C     C_R   0.898749 0.582073 0.563347 -0.059388
C22   C     C_R   0.500013 0.259869 0.499830 0.854792
C23   C     C_R   0.580895 0.496704 0.295278 0.886279
C24   C     C_R   0.772648 0.360785 0.016490 -0.199990
C25   C     C_R   0.630724 0.474427 0.178161 -0.084514
C26   C     C_R   0.232382 0.538832 0.882577 -0.192482
C27   C     C_R   0.194192 0.554984 0.993999 -0.146520
C28   C     C_R   0.293005 0.525851 0.044824 -0.199605
H1    H     H_    0.733355 0.112795 0.459877 0.150681
H2    H     H_    0.266827 0.112528 0.539446 0.154508
H3    H     H_    0.266811 0.887307 0.539782 0.151131
H4    H     H_    0.926057 0.351558 0.386767 0.125617
H5    H     H_    0.179062 0.352053 0.386243 0.133054
H6    H     H_    0.073703 0.647589 0.614150 0.119787
H7    H     H_    0.820812 0.647712 0.613991 0.132014
H8    H     H_    0.771140 0.274869 0.826547 0.147884
H9    H     H_    0.867308 0.306136 0.971581 0.140901
H10   H     H_    0.445472 0.569557 0.170046 0.162089
H11   H     H_    0.159584 0.572178 0.842827 0.154141
H12   H     H_    0.258239 0.542416 0.131196 0.134921
H13   H     H_    0.090275 0.595511 0.040371 0.148883
H14   H     H_    0.591198 0.318613 0.744902 0.170034
H15   H     H_    0.733327 0.887521 0.460311 0.154968
N1    N     N_R   0.142790 0.500030 0.500030 -0.076765
N2    N     N_R   0.857180 0.499940 0.500010 -0.076836
O1    O     O_R   0.385370 0.683250 0.500010 -0.624219
O2    O     O_R   0.614700 0.683220 0.500010 -0.623719
O3    O     O_R   0.328400 0.499990 0.653620 -0.612582
O4    O     O_R   0.557730 0.499960 0.653620 -0.609772
O5    O     O_R   0.385300 0.316780 0.499990 -0.624156
O6    O     O_R   0.614630 0.316750 0.499990 -0.634877
O7    O     O_R   0.442270 0.500040 0.346380 -0.613866
O8    O     O_R   0.671600 0.500010 0.346380 -0.607443
Zn1   Zn    Zn3+2 0.346870 0.500020 0.500000 0.938883
Zn2   Zn    Zn3+2 0.653130 0.499980 0.500000 0.933980
C29   C     C_3   0.866640 0.367153 0.170863 -0.901104
H16   H     H_    0.815419 0.307754 0.243343 0.241693
H17   H     H_    0.957428 0.313317 0.113162 0.233829
H18   H     H_    0.913477 0.452096 0.194238 0.247393

loop_
_geom_bond_atom_site_label_1
_geom_bond_atom_site_label_2
_ccdc_geom_bond_type
C2    C4    A    
C6    H8    S    
C9    C24   A    
C11   H15   S    
C6    C7    A    
C21   H7    S    
C2    C28   A    
C27   H13   S    
C1    C17   S    
C12   O3    A    
C29   H18   S    
C22   O5    A    
C4    C8    A    
C20   H6    S    
O1    Zn1   S    
C23   C25   S    
C24   H9    S    
C23   O7    A    
C9    C25   A    
C9    C29   S    
C13   C14   A    
C29   H16   S    
C16   H3    S    
O3    Zn1   S    
C8    C25   A    
C11   C13   A    
C14   C22   S    
C26   C27   A    
O5    Zn1   S    
C5    C24   A    
C10   C12   S    
C8    H10   S    
C13   H1    S    
C20   N1    A    
C29   H17   S    
C23   O8    A    
C3    C7    A    
C21   N2    A    
O8    Zn2   S    
C1    O2    A    
C5    C6    A    
C26   H11   S    
C1    O1    A    
C22   O6    A    
C12   O4    A    
C18   H4    S    
C28   H12   S    
C15   C16   A    
C18   N2    A    
N1    Zn1   S    
C19   N1    A    
N2    Zn2   S    
C15   H2    S    
O2    Zn2   S    
C18   C19   A    
C19   H5    S    
C7    H14   S    
C27   C28   A    
C3    C10   A    
C14   C15   A    
C4    C5    A    
C2    C3    A    
O6    Zn2   S    
C20   C21   A    
O4    Zn2   S    
C10   C26   A    
C11   C17   A    
O7    Zn1   S    
C16   C17   A    
