data_mof_unit_45665.cif
_audit_creation_date              2012-10-26T20:31:42-0400
_audit_creation_method            fapswitch 2.2
_symmetry_space_group_name_H-M    P1
_symmetry_Int_Tables_number       1
_space_group_crystal_system       triclinic
_cell_length_a                    15.954278
_cell_length_b                    10.825046
_cell_length_c                    9.556888
_cell_angle_alpha                 90.616095
_cell_angle_beta                  90.236625
_cell_angle_gamma                 91.388596
_cell_volume                      1649.93391122

loop_
_atom_site_label
_atom_site_type_symbol
_atom_type_description
_atom_site_fract_x
_atom_site_fract_y
_atom_site_fract_z
_atom_type_partial_charge
C1    C     C_R   0.497677 0.262860 0.499448 0.571460
C2    C     C_R   0.492253 0.130252 0.500479 -0.006013
C3    C     C_R   0.445491 0.063441 0.399553 -0.161190
C4    C     C_R   0.340526 0.498791 0.499677 0.556669
C5    C     C_R   0.444559 0.933930 0.399952 -0.041047
C6    C     C_R   0.492662 0.871374 0.501155 -0.013933
C7    C     C_R   0.532483 0.940656 0.607679 -0.041955
C8    C     C_3   0.621189 0.940798 0.661967 -0.090558
C9    C     C_3   0.618941 0.082253 0.662482 0.169202
C10   C     C_R   0.564224 0.555696 0.074946 0.201140
C11   C     C_R   0.442357 0.432218 0.073801 0.005429
C12   C     C_3   0.950431 0.437983 0.644354 -0.054203
C13   C     C_R   0.442378 0.431264 0.924599 0.205023
C14   C     C_R   0.564348 0.554928 0.927750 0.122986
C15   C     C_3   0.593332 0.685986 0.921330 -0.128623
C16   C     C_R   0.498857 0.737715 0.500359 0.549110
C17   C     C_3   0.591559 0.688730 0.081600 -0.064671
C18   C     C_R   0.659604 0.499719 0.500283 0.569771
C19   C     C_3   0.050657 0.455800 0.653953 0.026571
C20   C     C_3   0.047382 0.395563 0.385989 0.095088
C21   C     C_3   0.948171 0.414956 0.368870 0.074452
C22   C     C_1   0.748854 0.498457 0.501192 0.022463
C23   C     C_3   0.916980 0.496902 0.500374 -0.010139
C24   C     C_3   0.084009 0.494624 0.500473 0.011120
C25   C     C_1   0.924877 0.305600 0.654584 0.222497
C26   C     C_1   0.075664 0.549724 0.763080 0.200959
C27   C     C_1   0.908256 0.489217 0.770036 0.209964
C28   C     C_1   0.394657 0.868498 0.295227 0.224883
C29   C     C_1   0.680502 0.885014 0.563172 0.201352
C30   C     C_1   0.677008 0.694286 0.857712 0.246607
C31   C     C_1   0.065270 0.267746 0.432975 0.296419
C32   C     C_1   0.901249 0.294147 0.359613 0.256233
C33   C     C_1   0.098432 0.727801 0.554644 0.206320
C34   C     C_3   0.953338 0.636493 0.486776 0.046373
C35   C     C_1   0.080049 0.674642 0.327475 0.209198
C36   C     C_1   0.930959 0.711653 0.612534 0.241250
C37   C     C_3   0.053306 0.632229 0.467561 -0.036992
C38   C     C_1   0.824079 0.497527 0.501515 -0.035508
C39   C     C_1   0.176421 0.494221 0.498368 -0.003953
C40   C     C_1   0.251507 0.496031 0.498601 0.011345
C41   C     C_R   0.531026 0.067971 0.608096 0.083435
Cu1   Cu    Cu3+1 0.500000 0.499980 0.640670 1.006251
Cu2   Cu    Cu3+1 0.500000 0.500020 0.359330 0.981044
H1    H     H_    0.411054 0.111918 0.319844 0.135503
H2    H     H_    0.668682 0.112288 0.464165 0.242792
H3    H     H_    0.737973 0.129666 0.597070 0.271903
H4    H     H_    0.067179 0.317020 0.800573 0.248462
H5    H     H_    0.154712 0.353095 0.712573 0.237990
H6    H     H_    0.387826 0.265587 0.880409 0.216156
H7    H     H_    0.321770 0.385305 0.881587 0.215780
H8    H     H_    0.694166 0.796496 0.130720 0.247286
H9    H     H_    0.665927 0.697871 0.255493 0.267903
H10   H     H_    0.066235 0.334544 0.181633 0.252180
H11   H     H_    0.089063 0.483622 0.198316 0.263521
H12   H     H_    0.625461 0.903614 0.768719 0.125547
H13   H     H_    0.963863 0.548958 0.208951 0.288657
H14   H     H_    0.864584 0.495565 0.229342 0.271952
H15   H     H_    0.395043 0.379192 0.129444 0.124829
H16   H     H_    0.546457 0.746503 0.872651 0.111964
H17   H     H_    0.543466 0.750636 0.125953 0.150019
H18   H     H_    0.936683 0.791245 0.362661 0.265522
H19   H     H_    0.849331 0.704360 0.379846 0.265628
H20   H     H_    0.682011 0.125447 0.843868 0.245651
H21   H     H_    0.612405 0.231052 0.796135 0.276168
N1    N     N_R   0.500530 0.500930 0.147930 -0.258557
N2    N     N_3   0.676459 0.146815 0.566200 -0.603181
N3    N     N_3   0.089753 0.340756 0.701376 -0.604306
N4    N     N_3   0.381185 0.357412 0.850298 -0.550648
N5    N     N_1   0.742618 0.701287 0.807231 -0.225775
N6    N     N_3   0.674011 0.705244 0.147535 -0.595058
N7    N     N_3   0.092126 0.401039 0.250757 -0.623823
N8    N     N_1   0.079321 0.167949 0.466994 -0.219255
N9    N     N_1   0.864562 0.200759 0.350710 -0.260290
N10   N     N_3   0.927685 0.471487 0.233350 -0.606800
N11   N     N_1   0.133748 0.803047 0.620570 -0.219210
N12   N     N_R   0.500530 0.500890 0.852020 -0.223466
N13   N     N_1   0.101291 0.711341 0.219488 -0.237296
N14   N     N_1   0.914341 0.772120 0.708649 -0.191108
N15   N     N_1   0.905140 0.202474 0.665241 -0.246905
N16   N     N_1   0.094915 0.620378 0.849932 -0.221852
N17   N     N_1   0.875977 0.527096 0.869349 -0.219189
N18   N     N_3   0.914212 0.699649 0.367466 -0.631033
N19   N     N_1   0.354675 0.816057 0.211383 -0.255461
N20   N     N_1   0.727060 0.841416 0.485660 -0.317545
N21   N     N_3   0.621598 0.136032 0.803565 -0.603873
O1    O     O_R   0.500000 0.319640 0.618810 -0.472205
O2    O     O_R   0.500010 0.319680 0.381230 -0.510491
O3    O     O_R   0.379430 0.499990 0.618840 -0.464808
O4    O     O_R   0.379440 0.500030 0.381260 -0.496193
O5    O     O_R   0.499990 0.680320 0.618770 -0.507716
O6    O     O_R   0.500000 0.680360 0.381190 -0.507132
O7    O     O_R   0.620560 0.499970 0.618740 -0.492175
O8    O     O_R   0.620570 0.500010 0.381160 -0.495890

loop_
_geom_bond_atom_site_label_1
_geom_bond_atom_site_label_2
_ccdc_geom_bond_type
C1    O2    A    
C16   O5    A    
H6    N4    S    
C34   C37   S    
C7    C8    S    
C12   C23   S    
Cu2   O4    S    
C8    C29   S    
C35   C37   S    
H3    N2    S    
H18   N18   S    
C5    C6    A    
C10   C17   S    
C22   C38   T    
C24   C39   S    
C1    C2    S    
C19   C26   S    
C9    N2    S    
C9    N21   S    
C33   N11   T    
H11   N7    S    
C4    C40   S    
C8    C9    S    
C20   N7    S    
C19   N3    S    
Cu1   O1    S    
H8    N6    S    
C11   H15   S    
Cu1   O7    S    
H19   N18   S    
C17   N6    S    
C18   C22   S    
H20   N21   S    
C28   N19   T    
C15   H16   S    
C8    H12   S    
H4    N3    S    
C21   C32   S    
C3    H1    S    
H13   N10   S    
C12   C27   S    
C20   C24   S    
C27   N17   T    
C29   N20   T    
C10   C14   A    
C39   C40   T    
C21   N10   S    
C35   N13   T    
C26   N16   T    
Cu1   O5    S    
C14   N12   A    
H14   N10   S    
C5    C28   S    
C13   N12   A    
Cu2   N1    S    
C23   C34   S    
C24   C37   S    
C31   N8    T    
C21   C23   S    
Cu1   O3    S    
Cu1   Cu2   S    
H10   N7    S    
H21   N21   S    
C32   N9    T    
C30   N5    T    
C15   C30   S    
C33   C37   S    
C4    O4    A    
C10   N1    A    
C1    O1    A    
C15   C17   S    
C25   N15   T    
Cu1   N12   S    
C3    C5    A    
C6    C7    A    
C4    O3    A    
C23   C38   S    
C34   N18   S    
C9    C41   S    
C12   C25   S    
Cu2   O2    S    
C2    C3    A    
C18   O7    A    
C36   N14   T    
C11   C13   A    
C12   C19   S    
Cu2   O8    S    
C19   C24   S    
C34   C36   S    
C7    C41   A    
H5    N3    S    
Cu2   O6    S    
H9    N6    S    
C17   H17   S    
C6    C16   S    
C20   C21   S    
C16   O6    A    
H2    N2    S    
C18   O8    A    
C14   C15   S    
C2    C41   A    
H7    N4    S    
C20   C31   S    
C11   N1    A    
C13   N4    S    
