data_mof_unit_43758.cif
_audit_creation_date              2012-12-10T16:55:03-0500
_audit_creation_method            fapswitch 2.2
_symmetry_space_group_name_H-M    P1
_symmetry_Int_Tables_number       1
_space_group_crystal_system       triclinic
_cell_length_a                    9.685355
_cell_length_b                    10.918684
_cell_length_c                    15.580259
_cell_angle_alpha                 90.089136
_cell_angle_beta                  73.60974
_cell_angle_gamma                 90.144586
_cell_volume                      1580.6708923

loop_
_atom_site_label
_atom_site_type_symbol
_atom_type_description
_atom_site_fract_x
_atom_site_fract_y
_atom_site_fract_z
_atom_type_partial_charge
C1    C     C_R   0.997343 0.265677 0.505378 0.775848
C2    C     C_R   0.677152 0.491758 0.911194 -0.035955
C3    C     C_R   0.778555 0.482467 0.960339 0.108276
C4    C     C_R   0.531929 0.519042 0.957189 0.078481
C5    C     C_R   0.483408 0.505751 0.051450 0.060192
C6    C     C_R   0.586630 0.484833 0.098451 -0.210068
C7    C     C_R   0.732351 0.477759 0.053505 -0.183446
C8    C     C_R   0.437959 0.569558 0.912228 -0.067012
C9    C     C_R   0.295147 0.594315 0.957124 -0.204687
C10   C     C_R   0.241316 0.567441 0.047923 0.148356
C11   C     C_R   0.334517 0.520547 0.095616 0.092190
C12   C     C_R   0.916671 0.495149 0.672538 0.900266
C13   C     C_R   0.095901 0.589610 0.092266 -0.204421
C14   C     C_R   0.041269 0.563809 0.183171 -0.195128
C15   C     C_R   0.275618 0.490723 0.186099 -0.233449
C16   C     C_2   0.888381 0.933592 0.503243 -0.094533
C17   C     C_2   0.007584 0.866316 0.488422 -0.235228
C18   C     C_2   0.898734 0.066344 0.493853 -0.292304
C19   C     C_2   0.987238 0.136185 0.526448 0.306525
C20   C     C_2   0.405905 0.412963 0.535349 -0.019420
C21   C     C_2   0.564585 0.407880 0.527431 0.025076
C22   C     C_R   0.001480 0.734623 0.497287 0.848711
C23   C     C_R   0.083492 0.501897 0.328048 0.777193
C24   C     C_R   0.871541 0.486071 0.771971 -0.208349
C25   C     C_R   0.131575 0.515248 0.230530 -0.042557
C26   C     C_R   0.925112 0.478535 0.915720 -0.245771
C27   C     C_R   0.972988 0.490921 0.822796 -0.044884
C28   C     C_R   0.723967 0.468329 0.818345 0.273844
Cu1   Cu    Cu3+1 0.138640 0.500020 0.499980 1.011516
Cu2   Cu    Cu3+1 0.861360 0.499980 0.500020 0.999662
H1    H     H_    0.809103 0.467840 0.091926 0.146704
H2    H     H_    0.025095 0.629274 0.057052 0.139339
H3    H     H_    0.782912 0.891126 0.516552 0.179178
H4    H     H_    0.113038 0.909086 0.468838 0.188992
H5    H     H_    0.834025 0.107758 0.454937 0.144327
H6    H     H_    0.339171 0.338391 0.570172 0.210481
H7    H     H_    0.411376 0.564216 0.462486 0.191020
H8    H     H_    0.605068 0.324115 0.548595 0.197929
H9    H     H_    0.611820 0.580531 0.487005 0.191018
H10   H     H_    0.339872 0.447160 0.223583 0.149285
H11   H     H_    0.929918 0.584976 0.216806 0.152185
H12   H     H_    0.226501 0.634455 0.920606 0.158576
H13   H     H_    0.002968 0.472505 0.953615 0.158305
H14   H     H_    0.559334 0.482077 0.170460 0.140316
H15   H     H_    0.476334 0.596225 0.842856 0.183038
N1    N     N_2   0.346430 0.498660 0.500980 -0.293223
N2    N     N_2   0.652550 0.498630 0.501000 -0.290473
O1    O     O_R   0.117050 0.321960 0.499980 -0.551648
O2    O     O_R   0.882890 0.321920 0.500020 -0.592605
O3    O     O_R   0.052910 0.500040 0.629810 -0.541915
O4    O     O_R   0.818750 0.499990 0.629840 -0.510398
O5    O     O_R   0.117110 0.678080 0.499980 -0.556304
O6    O     O_R   0.882950 0.678040 0.500020 -0.594364
O7    O     O_R   0.181250 0.500010 0.370160 -0.590279
O8    O     O_R   0.947090 0.499960 0.370190 -0.586559
S1    S     S_3+6 0.072662 0.086471 0.607670 0.029320
O9    O     O_2   0.991827 0.981938 0.662188 -0.245844
O10   O     O_2   0.224193 0.047532 0.561420 -0.318928
O11   O     O_3   0.077954 0.204076 0.676600 -0.522230
H16   H     H_    0.136712 0.174370 0.715014 0.395754
C29   C     C_2   0.129862 0.504644 0.782810 0.886924
O12   O     O_2   0.210992 0.423551 0.792467 -0.518944
O13   O     O_R   0.185256 0.612431 0.737628 -0.731329
H17   H     H_    0.294130 0.611399 0.714269 0.347531
S2    S     S_3+6 0.613220 0.372890 0.771521 0.033068
O14   O     O_2   0.536719 0.449297 0.719267 -0.278056
O15   O     O_2   0.703858 0.279089 0.710146 -0.267885
O16   O     O_3   0.489362 0.299106 0.852736 -0.470790
H18   H     H_    0.545635 0.246826 0.882411 0.349557

loop_
_geom_bond_atom_site_label_1
_geom_bond_atom_site_label_2
_ccdc_geom_bond_type
C19   S1    S    
C8    C9    A    
C6    C7    A    
C12   O3    A    
Cu2   O4    S    
C24   C27   A    
C1    O1    A    
C23   O8    A    
Cu1   Cu2   S    
C16   H3    S    
C9    C10   A    
C12   C24   S    
C13   H2    S    
C2    C4    A    
C17   C22   S    
S1    O11   S    
Cu1   N1    S    
C4    C8    A    
S2    O16   S    
C2    C3    A    
C26   C27   A    
O11   H16   S    
S2    O14   D    
C6    H14   S    
C13   C14   A    
S1    O9    D    
C9    H12   S    
C5    C6    A    
C1    O2    A    
C14   H11   S    
H9    N2    S    
C18   H5    S    
C22   O5    A    
Cu2   O2    S    
S1    O10   D    
C26   H13   S    
C5    C11   A    
C22   O6    A    
C3    C7    A    
Cu1   O3    S    
C23   C25   S    
C14   C25   A    
C29   O12   D    
Cu2   O6    S    
C15   H10   S    
C15   C25   A    
C7    H1    S    
C10   C11   A    
C28   S2    S    
Cu1   O1    S    
O13   H17   S    
C20   H6    S    
Cu2   N2    S    
C12   O4    A    
C20   C21   S    
C23   O7    A    
C16   C18   S    
C18   C19   D    
C17   H4    S    
Cu1   O7    S    
C29   O13   S    
C8    H15   S    
C4    C5    A    
C2    C28   A    
C27   C29   S    
C21   N2    D    
H7    N1    S    
O16   H18   S    
C1    C19   S    
C11   C15   A    
Cu2   O8    S    
Cu1   O5    S    
C3    C26   A    
C20   N1    D    
C21   H8    S    
C24   C28   A    
C16   C17   D    
S2    O15   D    
C10   C13   A    
