data_mof_unit_5112.cif
_audit_creation_date              2013-03-05T16:06:00-0500
_audit_creation_method            fapswitch 2.2
_symmetry_space_group_name_H-M    P1
_symmetry_Int_Tables_number       1
_space_group_crystal_system       triclinic
_cell_length_a                    10.849531
_cell_length_b                    9.622504
_cell_length_c                    23.492499
_cell_angle_alpha                 90.00073
_cell_angle_beta                  93.345752
_cell_angle_gamma                 89.999395
_cell_volume                      2448.42840793

loop_
_atom_site_label
_atom_site_type_symbol
_atom_site_description
_atom_site_fract_x
_atom_site_fract_y
_atom_site_fract_z
_atom_type_partial_charge
O1    O     O_R   0.319640 0.618740 0.500000 -0.554801
O2    O     O_R   0.680360 0.381260 0.500000 -0.588118
O3    O     O_R   0.680360 0.618740 0.500000 -0.554791
O4    O     O_R   0.319640 0.381260 0.500000 -0.588142
C1    C     C_R   0.262469 0.500437 0.501075 0.765139
C2    C     C_R   0.737530 0.500436 0.498925 0.765171
O5    O     O_R   0.499960 0.618810 0.417880 -0.550781
O6    O     O_R   0.500040 0.381190 0.582120 -0.536487
O7    O     O_R   0.500040 0.618810 0.582120 -0.550754
O8    O     O_R   0.499960 0.381190 0.417880 -0.536447
C3    C     C_R   0.504121 0.499211 0.391273 0.799280
C4    C     C_R   0.495854 0.499209 0.608727 0.799280
Cu1   Cu    Cu3+1 0.500000 0.640660 0.500000 1.007177
Cu2   Cu    Cu3+1 0.500000 0.359340 0.500000 0.995521
C5    C     C_R   0.596584 0.490759 0.880582 0.525365
C6    C     C_R   0.402846 0.491451 0.119406 0.525515
N1    N     N_R   0.483346 0.485677 0.851471 -0.462944
N2    N     N_R   0.516069 0.485885 0.148514 -0.462859
C7    C     C_R   0.376662 0.475182 0.879683 0.536746
C8    C     C_R   0.622709 0.474811 0.120303 0.536439
C9    C     C_R   0.380715 0.479303 0.939466 -0.014370
C10   C     C_R   0.618667 0.478840 0.060521 -0.014307
C11   C     C_R   0.496399 0.482999 0.969912 -0.018557
C12   C     C_R   0.502995 0.483043 0.030075 -0.018477
C13   C     C_R   0.605532 0.485807 0.940348 -0.012719
C14   C     C_R   0.393874 0.486439 0.059639 -0.012727
C15   C     C_R   0.272339 0.479441 0.969406 -0.165254
C16   C     C_R   0.727042 0.478394 0.030582 -0.165303
C17   C     C_R   0.278838 0.484960 0.028868 -0.162529
C18   C     C_R   0.720562 0.483831 0.971119 -0.162491
O9    O     O_2   0.700204 0.500912 0.851737 -0.537913
O10   O     O_2   0.299270 0.502120 0.148255 -0.537958
O11   O     O_2   0.267278 0.459470 0.850015 -0.541710
O12   O     O_2   0.732038 0.458623 0.149974 -0.541636
H1    H     H_    0.182230 0.477178 0.947002 0.188245
H2    H     H_    0.817142 0.475735 0.052986 0.188254
H3    H     H_    0.193523 0.486713 0.050612 0.188351
H4    H     H_    0.805883 0.485129 0.949375 0.188364
C19   C     C_R   0.574044 0.601292 0.240966 0.213073
C20   C     C_R   0.425739 0.601275 0.759020 0.212894
C21   C     C_R   0.574000 0.600111 0.300658 -0.225946
C22   C     C_R   0.425974 0.600190 0.699333 -0.226151
H5    H     H_    0.619992 0.682412 0.324876 0.141072
H6    H     H_    0.380153 0.682600 0.675118 0.141177
C23   C     C_R   0.513673 0.494338 0.329115 -0.088549
C24   C     C_R   0.486178 0.494316 0.670880 -0.088547
C25   C     C_R   0.463789 0.381351 0.297915 -0.217989
C26   C     C_R   0.535720 0.381147 0.702076 -0.217864
H7    H     H_    0.418688 0.296941 0.319015 0.189923
H8    H     H_    0.580705 0.296645 0.680982 0.189901
C27   C     C_R   0.469368 0.377359 0.238935 -0.149373
C28   C     C_R   0.529931 0.377067 0.761046 -0.149321
H9    H     H_    0.429421 0.289907 0.215426 0.152763
H10   H     H_    0.569630 0.289478 0.784548 0.152798
C29   C     C_R   0.521938 0.487697 0.209847 0.355648
C30   C     C_R   0.477508 0.487499 0.790136 0.355602
C31   C     C_R   0.063513 0.377255 0.503153 -0.199578
C32   C     C_R   0.935969 0.628881 0.499615 -0.168216
C33   C     C_R   0.936488 0.377256 0.496835 -0.199588
C34   C     C_R   0.064029 0.628882 0.500394 -0.168219
H11   H     H_    0.110118 0.278959 0.508416 0.126841
H12   H     H_    0.887884 0.727520 0.499878 0.156498
H13   H     H_    0.889883 0.278962 0.491563 0.126841
H14   H     H_    0.112113 0.727521 0.500140 0.156486
C35   C     C_R   0.871490 0.502337 0.497917 -0.017590
C36   C     C_R   0.128509 0.502337 0.502082 -0.017576
C37   C     C_R   0.429106 0.074875 0.460000 0.350379
C38   C     C_R   0.565676 0.925694 0.541935 0.354287
C39   C     C_R   0.570904 0.074876 0.539997 0.350318
C40   C     C_R   0.434337 0.925693 0.458061 0.354267
N3    N     N_R   0.500000 0.852070 0.500000 -0.270329
N4    N     N_R   0.500000 0.147930 0.500000 -0.267291
C41   C     C_3   0.623101 0.726811 0.211341 -0.842436
H15   H     H_    0.645309 0.812593 0.241892 0.216159
H16   H     H_    0.708662 0.700432 0.190189 0.272905
H17   H     H_    0.552607 0.765798 0.179056 0.230272
C42   C     C_3   0.376730 0.726822 0.788640 -0.841885
H18   H     H_    0.355818 0.813131 0.758156 0.215849
H19   H     H_    0.290382 0.700783 0.809257 0.272979
H20   H     H_    0.446710 0.764940 0.821373 0.230323
O13   O     O_3   0.360878 0.147289 0.418069 -0.576895
C43   C     C_3   0.233311 0.144299 0.427710 0.140854
H21   H     H_    0.200848 0.253139 0.425115 0.179233
H22   H     H_    0.211026 0.099976 0.469814 0.103399
C44   C     C_3   0.158668 0.068526 0.380344 -0.843921
H23   H     H_    0.159518 0.955145 0.388275 0.272166
H24   H     H_    0.060824 0.102827 0.379771 0.206272
H25   H     H_    0.194946 0.092206 0.338186 0.256142
O14   O     O_3   0.635346 0.853669 0.583490 -0.538249
C45   C     C_3   0.588591 0.877069 0.637794 0.102926
H26   H     H_    0.490523 0.845371 0.637758 0.128814
H27   H     H_    0.592813 0.987274 0.651145 0.173733
C46   C     C_3   0.665224 0.795371 0.682833 -0.756111
H28   H     H_    0.758938 0.840556 0.689325 0.233613
H29   H     H_    0.620581 0.799546 0.724121 0.216137
H30   H     H_    0.675008 0.685606 0.669561 0.261933
O15   O     O_3   0.639146 0.147292 0.581923 -0.576908
C47   C     C_3   0.766710 0.144291 0.572275 0.140918
H31   H     H_    0.799178 0.253129 0.574868 0.179260
H32   H     H_    0.788982 0.099966 0.530169 0.103386
C48   C     C_3   0.841366 0.068519 0.619636 -0.843933
H33   H     H_    0.840499 0.955135 0.611711 0.272158
H34   H     H_    0.939212 0.102801 0.620197 0.206261
H35   H     H_    0.805115 0.092217 0.661798 0.256179
O16   O     O_3   0.364683 0.853670 0.416498 -0.538267
C49   C     C_3   0.411473 0.877050 0.362199 0.102978
H36   H     H_    0.509521 0.845256 0.362238 0.128931
H37   H     H_    0.407331 0.987266 0.348858 0.173730
C50   C     C_3   0.334799 0.795430 0.317148 -0.755979
H38   H     H_    0.241114 0.840691 0.310651 0.233598
H39   H     H_    0.379459 0.799581 0.275865 0.216149
H40   H     H_    0.324939 0.685668 0.330413 0.261916

loop_
_geom_bond_atom_site_label_1
_geom_bond_atom_site_label_2
_geom_bond_distance
_ccdc_geom_bond_type
C32   H12   1.083266 S    
C46   H28   1.108159 S    
C15   C17   1.395607 A    
C41   H16   1.107663 S    
C41   H15   1.110996 S    
C31   C36   1.395946 A    
O3    C2    1.297340 A    
O15   C47   1.415738 S    
C25   H7    1.083142 S    
C42   H18   1.111363 S    
O5    C3    1.311662 A    
C48   H33   1.106752 S    
O1    C1    1.297347 A    
C7    C9    1.403123 A    
C12   C14   1.407511 A    
C50   H39   1.109882 S    
C5    C13   1.402563 A    
C49   H36   1.106845 S    
C32   C34   1.388445 A    
C47   H31   1.105489 S    
C18   H4    1.083141 S    
C37   N4    1.372758 A    
C22   C24   1.400809 A    
O7    Cu1   1.940605 S    
C2    C35   1.455090 S    
C19   C29   1.414423 A    
C38   C39   1.437455 A    
C20   C30   1.414401 A    
C11   C12   1.411012 A    
C40   N3    1.377764 A    
C20   C22   1.402383 A    
C27   C29   1.401805 A    
O3    Cu1   1.968153 S    
C8    O12   1.349301 S    
C42   H19   1.108149 S    
C9    C15   1.404925 A    
C34   C36   1.403728 A    
C48   H34   1.111007 S    
C10   C16   1.404909 A    
Cu1   Cu2   2.707003 S    
C21   H5    1.080140 S    
O2    C2    1.304730 A    
C22   H6    1.080083 S    
C28   H10   1.083036 S    
O13   C43   1.415734 S    
C23   C25   1.402105 A    
C6    C14   1.402599 A    
C24   C26   1.402100 A    
C44   H24   1.111013 S    
C4    C24   1.470765 S    
O8    Cu2   1.940605 S    
C50   H40   1.108132 S    
C1    C36   1.455090 S    
C25   C27   1.390976 A    
Cu1   N3    2.034294 S    
C15   H1    1.083155 S    
C44   H23   1.106761 S    
C27   H9    1.083066 S    
C39   N4    1.372759 A    
C32   C35   1.403732 A    
C45   H27   1.106044 S    
C26   C28   1.390981 A    
O6    C4    1.298358 A    
C38   O14   1.385139 S    
C31   H11   1.076244 S    
N1    C30   1.438713 S    
C16   H2    1.083159 S    
N2    C29   1.438660 S    
C6    N2    1.371646 A    
C8    C10   1.403084 A    
C37   O13   1.385192 S    
C46   H30   1.108115 S    
C43   H22   1.116538 S    
C9    C11   1.408333 A    
C7    O11   1.349256 S    
C41   H17   1.110513 S    
C10   C12   1.408341 A    
C33   H13   1.076247 S    
C3    C23   1.470685 S    
O1    Cu1   1.968159 S    
C47   C48   1.523301 S    
C45   C46   1.525168 S    
C44   H25   1.110517 S    
C13   C18   1.405401 A    
C5    N1    1.371656 A    
O6    Cu2   1.940599 S    
Cu2   N4    2.034295 S    
O4    C1    1.304724 A    
C40   O16   1.385147 S    
C5    O9    1.349648 S    
C6    O10   1.349656 S    
C43   C44   1.523296 S    
O16   C49   1.418141 S    
C47   H32   1.116531 S    
C34   H14   1.083266 S    
C37   C40   1.437448 A    
C16   C18   1.395578 A    
C50   H38   1.108165 S    
C33   C35   1.395943 A    
C42   H20   1.110928 S    
C45   H26   1.106804 S    
C49   H37   1.106072 S    
C38   N3    1.377757 A    
C26   H8    1.083119 S    
N1    C7    1.370679 A    
N2    C8    1.370670 A    
C19   C41   1.506561 S    
O4    Cu2   1.968154 S    
O2    Cu2   1.968158 S    
O7    C4    1.311703 A    
C31   C33   1.377491 A    
O8    C3    1.298367 A    
O5    Cu1   1.940600 S    
C11   C13   1.407492 A    
C19   C21   1.402403 A    
C14   C17   1.405405 A    
C46   H29   1.109883 S    
C43   H21   1.105497 S    
C17   H3    1.083143 S    
C21   C23   1.400842 A    
C20   C42   1.506508 S    
C48   H35   1.110507 S    
O14   C45   1.418118 S    
C28   C30   1.401798 A    
C49   C50   1.525189 S    
C39   O15   1.385194 S    
