data_mof_unit_56008.cif
_audit_creation_date              2013-03-05T16:54:29-0500
_audit_creation_method            fapswitch 2.2
_symmetry_space_group_name_H-M    P1
_symmetry_Int_Tables_number       1
_space_group_crystal_system       triclinic
_cell_length_a                    17.389964
_cell_length_b                    16.726633
_cell_length_c                    10.623438
_cell_angle_alpha                 92.850883
_cell_angle_beta                  90.206604
_cell_angle_gamma                 89.325673
_cell_volume                      3086.04604006

loop_
_atom_site_label
_atom_site_type_symbol
_atom_site_description
_atom_site_fract_x
_atom_site_fract_y
_atom_site_fract_z
_atom_type_partial_charge
O1    O     O_R   0.389110 0.566570 0.499990 -0.630251
O2    O     O_R   0.610890 0.566570 0.500010 -0.628684
O3    O     O_R   0.389090 0.433480 0.499980 -0.631641
O4    O     O_R   0.610910 0.433480 0.500020 -0.601076
C1    C     C_R   0.352680 0.500451 0.499727 0.904401
C2    C     C_R   0.647794 0.499318 0.500654 0.942912
O5    O     O_R   0.500000 0.566560 0.316760 -0.618985
O6    O     O_R   0.500000 0.566560 0.683240 -0.614057
O7    O     O_R   0.499970 0.433470 0.316760 -0.598333
O8    O     O_R   0.500030 0.433470 0.683240 -0.617402
C3    C     C_R   0.496718 0.497682 0.257961 0.937758
C4    C     C_R   0.512469 0.502254 0.739173 0.942549
Zn1   Zn    Zn3+2 0.500000 0.588860 0.500000 0.970632
Zn2   Zn    Zn3+2 0.500000 0.411140 0.500000 1.012506
C5    C     C_R   0.414220 0.617259 0.108589 0.033619
C6    C     C_R   0.511196 0.656195 0.910663 0.029709
C7    C     C_R   0.412604 0.694407 0.063143 -0.216491
C8    C     C_R   0.463445 0.714725 0.969396 -0.236217
H1    H     H_    0.372798 0.739430 0.101842 0.173117
H2    H     H_    0.465421 0.776316 0.942540 0.155895
C9    C     C_R   0.505425 0.575489 0.945866 0.044356
C10   C     C_R   0.469270 0.560308 0.058839 0.058440
C11   C     C_R   0.495194 0.492273 0.121576 -0.148618
C12   C     C_R   0.531805 0.508266 0.872437 -0.124300
C13   C     C_R   0.538784 0.430631 0.056774 -0.158631
C14   C     C_R   0.556117 0.438592 0.929788 -0.113701
C15   C     C_R   0.842007 0.572735 0.598917 -0.137924
C16   C     C_R   0.160703 0.565541 0.621627 -0.131105
H3    H     H_    0.868217 0.629896 0.623694 0.163935
H4    H     H_    0.137299 0.614469 0.680954 0.157387
C17   C     C_R   0.765911 0.570836 0.561113 -0.126429
C18   C     C_R   0.237888 0.564689 0.591490 -0.176868
H5    H     H_    0.733845 0.626766 0.563658 0.187158
H6    H     H_    0.273649 0.612321 0.631082 0.163073
C19   C     C_R   0.731463 0.498279 0.521906 -0.062519
C20   C     C_R   0.269386 0.502072 0.514841 -0.113758
C21   C     C_R   0.775540 0.425824 0.520017 -0.103903
C22   C     C_R   0.222396 0.439629 0.464108 -0.080435
C23   C     C_R   0.852153 0.427731 0.564598 -0.049482
C24   C     C_R   0.143590 0.440467 0.496671 -0.019225
C25   C     C_R   0.884775 0.502111 0.600817 0.079034
C26   C     C_R   0.114072 0.503803 0.575782 0.031323
C27   C     C_1   0.965916 0.508324 0.610590 0.048944
C28   C     C_1   0.034148 0.508631 0.602277 0.007663
C29   C     C_R   0.432479 0.831755 0.465036 -0.115374
C30   C     C_R   0.565719 0.833029 0.538564 -0.130635
C31   C     C_R   0.435439 0.747165 0.464873 -0.055651
C32   C     C_R   0.564322 0.748409 0.534383 -0.055670
H7    H     H_    0.385338 0.712799 0.437450 0.156604
H8    H     H_    0.614769 0.715105 0.561660 0.180988
N1    N     N_R   0.500000 0.707230 0.500000 -0.107530
C33   C     C_R   0.498748 0.876092 0.502764 -0.026651
C34   C     C_1   0.499164 0.964077 0.499826 0.134961
C35   C     C_1   0.499547 0.037097 0.498551 0.080622
C36   C     C_R   0.441240 0.166826 0.438309 -0.220445
C37   C     C_R   0.558915 0.168685 0.558478 -0.210701
H9    H     H_    0.394853 0.134976 0.390443 0.182817
H10   H     H_    0.605386 0.138321 0.605509 0.178854
C38   C     C_R   0.442423 0.251024 0.440074 0.060432
C39   C     C_R   0.557908 0.252834 0.558034 0.076286
H11   H     H_    0.397340 0.282946 0.392742 0.157277
H12   H     H_    0.603680 0.286189 0.603956 0.130328
N2    N     N_R   0.500000 0.292770 0.500000 -0.104622
C40   C     C_R   0.499954 0.124666 0.498260 0.095414
C41   C     C_2   0.568734 0.359431 0.120098 1.038162
O9    O     O_2   0.638074 0.349721 0.132412 -0.545293
O10   O     O_R   0.517632 0.302371 0.161089 -0.765430
H13   H     H_    0.544950 0.256380 0.201859 0.348929
C42   C     C_2   0.604229 0.377854 0.858068 0.972233
O11   O     O_2   0.592621 0.306330 0.866385 -0.614272
O12   O     O_R   0.663162 0.403404 0.781056 -0.796666
H14   H     H_    0.694335 0.357189 0.741635 0.318985
C43   C     C_2   0.352770 0.596606 0.197141 0.401799
H15   H     H_    0.321927 0.643642 0.250671 0.086037
O13   O     O_2   0.333214 0.527341 0.206357 -0.617646
C44   C     C_2   0.573659 0.683926 0.829298 0.454184
H16   H     H_    0.572503 0.744848 0.798663 0.039554
O14   O     O_2   0.628549 0.640717 0.800358 -0.561380
C45   C     C_2   0.743413 0.348144 0.472510 0.504155
H17   H     H_    0.751342 0.295070 0.526075 0.045898
O15   O     O_2   0.711153 0.342113 0.370384 -0.491239
C46   C     C_2   0.255219 0.378618 0.371086 0.444868
H18   H     H_    0.304946 0.392844 0.315593 0.122023
O16   O     O_2   0.228500 0.311695 0.356123 -0.528018
C47   C     C_2   0.899748 0.353155 0.569875 0.882268
O17   O     O_2   0.899594 0.303174 0.481846 -0.590660
O18   O     O_R   0.945637 0.341041 0.675758 -0.768937
H19   H     H_    0.975087 0.288348 0.669081 0.370720
C48   C     C_2   0.091020 0.377745 0.445361 1.001490
O19   O     O_2   0.043579 0.393899 0.365023 -0.584615
O20   O     O_R   0.095251 0.300784 0.490626 -0.734813
H20   H     H_    0.056991 0.263029 0.447803 0.375156
C49   C     C_2   0.359380 0.870914 0.425451 0.910190
O21   O     O_2   0.312845 0.832786 0.360832 -0.643112
O22   O     O_R   0.342444 0.950413 0.463307 -0.798406
H21   H     H_    0.290986 0.969424 0.430158 0.362146
C50   C     C_2   0.637839 0.873591 0.581464 0.917887
O23   O     O_2   0.699103 0.836851 0.576374 -0.617633
O24   O     O_R   0.636214 0.952745 0.630449 -0.808225
H22   H     H_    0.689005 0.972794 0.656500 0.357980

loop_
_geom_bond_atom_site_label_1
_geom_bond_atom_site_label_2
_geom_bond_distance
_ccdc_geom_bond_type
O18   H19   1.013677 S    
C6    C9    1.423350 A    
C36   C38   1.407927 A    
C15   H3    1.084218 S    
C43   O13   1.219987 D    
C43   H15   1.085274 S    
O22   H21   1.013926 S    
O7    Zn2   2.000306 S    
C29   C49   1.491877 S    
C50   O23   1.223655 D    
C31   H7    1.080601 S    
C34   C35   1.222222 T    
O5    C3    1.284706 A    
C21   C45   1.484893 S    
C49   O21   1.223706 D    
C39   N2    1.364210 A    
O1    C1    1.280877 A    
C18   C20   1.401763 A    
C19   C21   1.425667 A    
C12   C14   1.401886 A    
C1    C20   1.457714 S    
C30   C33   1.422725 A    
C2    C19   1.471643 S    
C39   H12   1.078609 S    
C5    C10   1.426649 A    
C29   C31   1.415163 A    
C16   C26   1.388521 A    
C42   O12   1.397645 S    
O2    Zn1   1.959771 S    
Zn1   N1    1.979932 S    
C32   N1    1.359849 A    
C41   O10   1.397995 S    
C17   H5    1.082685 S    
C24   C48   1.481762 S    
C48   O20   1.397456 S    
C32   H8    1.080107 S    
C49   O22   1.398274 S    
C9    C10   1.392730 A    
C22   C46   1.494606 S    
C25   C27   1.419144 S    
O2    C2    1.288812 A    
C26   C28   1.419657 S    
C50   O24   1.398282 S    
C47   O18   1.398400 S    
C30   C32   1.414374 A    
C38   H11   1.080083 S    
C15   C17   1.381780 A    
O10   H13   1.013966 S    
C16   C18   1.380768 A    
C13   C41   1.484831 S    
C44   H16   1.084986 S    
C23   C25   1.408936 A    
O8    Zn2   1.963817 S    
O20   H20   1.013689 S    
C45   O15   1.219840 D    
C31   N1    1.360167 A    
C29   C33   1.423350 A    
C13   C14   1.396502 A    
C47   O17   1.223005 D    
C37   C39   1.407670 A    
C18   H6    1.083920 S    
C27   C28   1.190236 T    
C15   C25   1.389470 A    
O24   H22   1.013908 S    
O6    C4    1.270528 A    
C36   C40   1.403014 A    
C37   C40   1.403160 A    
C7    C8    1.391434 A    
O7    C3    1.269655 A    
O3    Zn2   1.960266 S    
O8    C4    1.288600 A    
O4    C2    1.280647 A    
C5    C43   1.481373 S    
C30   C50   1.492004 S    
C41   O9    1.222237 D    
C46   O16   1.219931 D    
C36   H9    1.083196 S    
C17   C19   1.403661 A    
O1    Zn1   1.968387 S    
C23   C47   1.492159 S    
C20   C22   1.417753 A    
C33   C34   1.473681 S    
C5    C7    1.400038 A    
C6    C44   1.483484 S    
C44   O14   1.221382 D    
C24   C26   1.412055 A    
O3    C1    1.280368 A    
C4    C12   1.452796 S    
C38   N2    1.364939 A    
C16   H4    1.084136 S    
O12   H14   1.013100 S    
C21   C23   1.412556 A    
C22   C24   1.414382 A    
C35   C40   1.464994 S    
Zn2   N2    1.979932 S    
C3    C11   1.447363 S    
C7    H1    1.083657 S    
C37   H10   1.083192 S    
C8    H2    1.083545 S    
C11   C13   1.423512 A    
O4    Zn2   1.968895 S    
C42   O11   1.223175 D    
C45   H17   1.085223 S    
O6    Zn1   2.000189 S    
O5    Zn1   1.963748 S    
C6    C8    1.400406 A    
C46   H18   1.083708 S    
C9    C12   1.409422 A    
C14   C42   1.490054 S    
C10   C11   1.415519 A    
C48   O19   1.222563 D    
