data_mof_unit_33069.cif
_audit_creation_date              2012-12-10T20:41:50-0500
_audit_creation_method            fapswitch 2.2
_symmetry_space_group_name_H-M    P1
_symmetry_Int_Tables_number       1
_space_group_crystal_system       triclinic
_cell_length_a                    15.07216
_cell_length_b                    15.168927
_cell_length_c                    9.869195
_cell_angle_alpha                 90.48946
_cell_angle_beta                  89.443166
_cell_angle_gamma                 90.007944
_cell_volume                      2256.19030816

loop_
_atom_site_label
_atom_site_type_symbol
_atom_type_description
_atom_site_fract_x
_atom_site_fract_y
_atom_site_fract_z
_atom_type_partial_charge
C1    C     C_R   0.381973 0.877895 0.499932 0.881709
C2    C     C_R   0.930688 0.464168 0.071825 0.222914
C3    C     C_R   0.574314 0.020896 0.071054 -0.144432
C4    C     C_R   0.072212 0.527299 0.071187 -0.141473
C5    C     C_R   0.574395 0.020555 0.927120 -0.141644
C6    C     C_R   0.072242 0.527201 0.927278 -0.142657
C7    C     C_R   0.427704 0.970359 0.929836 0.220334
C8    C     C_R   0.930954 0.463637 0.929271 0.216744
C9    C     C_3   0.337198 0.009971 0.930403 -0.539997
C10   C     C_3   0.836562 0.491997 0.924998 -0.524131
C11   C     C_3   0.336928 0.006423 0.083498 -0.500372
C12   C     C_R   0.382248 0.122563 0.500436 0.878894
C13   C     C_3   0.836344 0.493399 0.078623 -0.509499
C14   C     C_R   0.618425 0.121523 0.500089 0.874697
C15   C     C_R   0.622443 0.882469 0.499225 0.877474
C16   C     C_R   0.122361 0.617628 0.499772 0.875532
C17   C     C_R   0.122627 0.382691 0.499070 0.876561
C18   C     C_R   0.304062 0.242724 0.619304 0.137629
C19   C     C_R   0.295713 0.767808 0.621792 0.140498
C20   C     C_R   0.800289 0.738542 0.621077 0.133942
C21   C     C_R   0.774065 0.289638 0.623436 0.125215
C22   C     C_R   0.327982 0.199739 0.499113 -0.106346
C23   C     C_R   0.878587 0.381362 0.500134 0.883295
C24   C     C_R   0.326690 0.801821 0.499642 -0.107092
C25   C     C_R   0.827217 0.698811 0.499840 -0.104757
C26   C     C_R   0.804212 0.324052 0.501167 -0.104206
C27   C     C_R   0.301441 0.235222 0.374700 -0.223658
C28   C     C_R   0.305836 0.759175 0.377280 -0.227957
C29   C     C_R   0.802949 0.736597 0.375996 -0.224058
C30   C     C_R   0.759233 0.304968 0.380751 -0.226373
C31   C     C_R   0.738535 0.801525 0.375111 -0.229231
C32   C     C_R   0.694191 0.240803 0.380818 -0.229388
C33   C     C_R   0.237011 0.300145 0.373600 -0.227744
C34   C     C_R   0.882058 0.622272 0.500477 0.880037
C35   C     C_R   0.241436 0.694112 0.377202 -0.225912
C36   C     C_R   0.699192 0.828025 0.498057 -0.104830
C37   C     C_R   0.675239 0.196056 0.501308 -0.100879
C38   C     C_R   0.199979 0.329075 0.496950 -0.106399
C39   C     C_R   0.198737 0.672575 0.499492 -0.101177
C40   C     C_R   0.736693 0.802710 0.620047 0.128556
C41   C     C_R   0.709838 0.226176 0.623599 0.145301
C42   C     C_R   0.240349 0.306824 0.618009 0.133703
C43   C     C_R   0.232306 0.703469 0.621794 0.127692
C44   C     C_3   0.693452 0.770487 0.747065 -0.463976
C45   C     C_3   0.270705 0.207570 0.751096 -0.509948
C46   C     C_3   0.753258 0.175978 0.734592 -0.497232
C47   C     C_3   0.200286 0.278525 0.749399 -0.465893
C48   C     C_3   0.184683 0.742470 0.741462 -0.476902
C49   C     C_3   0.254549 0.814064 0.740772 -0.499282
C50   C     C_3   0.763676 0.699210 0.748082 -0.505190
C51   C     C_3   0.824884 0.246034 0.733666 -0.480264
C52   C     C_R   0.428023 0.969823 0.072525 0.218668
H1    H     H_    0.324727 0.208616 0.278620 0.166692
H2    H     H_    0.663506 0.222565 0.285785 0.169675
H3    H     H_    0.211674 0.321861 0.277103 0.172927
H4    H     H_    0.220988 0.665888 0.281269 0.162616
H5    H     H_    0.699659 0.818598 0.832071 0.202216
H6    H     H_    0.777302 0.109879 0.701164 0.199760
H7    H     H_    0.208472 0.329108 0.830520 0.203443
H8    H     H_    0.188183 0.699634 0.831974 0.195248
H9    H     H_    0.625364 0.744517 0.730410 0.207103
H10   H     H_    0.712793 0.176691 0.829343 0.198682
H11   H     H_    0.131912 0.251914 0.738560 0.205632
H12   H     H_    0.334108 0.779972 0.281394 0.168936
H13   H     H_    0.117206 0.766845 0.716726 0.206838
H14   H     H_    0.319421 0.218306 0.833400 0.201808
H15   H     H_    0.298003 0.812470 0.831070 0.203618
H16   H     H_    0.810244 0.706545 0.834080 0.201788
H17   H     H_    0.890655 0.220999 0.698668 0.201017
H18   H     H_    0.242688 0.140016 0.741148 0.205192
H19   H     H_    0.227476 0.879751 0.713938 0.197475
H20   H     H_    0.735983 0.632063 0.731472 0.204430
H21   H     H_    0.826079 0.286155 0.828318 0.199721
H22   H     H_    0.633904 0.039299 0.124530 0.147425
H23   H     H_    0.828225 0.711872 0.279820 0.169365
H24   H     H_    0.130045 0.550633 0.124649 0.142371
H25   H     H_    0.634146 0.038012 0.872264 0.145382
H26   H     H_    0.130181 0.550081 0.872634 0.145791
H27   H     H_    0.339146 0.077896 0.892468 0.217611
H28   H     H_    0.286223 0.967149 0.884343 0.200553
H29   H     H_    0.829503 0.558121 0.880687 0.216812
H30   H     H_    0.792639 0.440566 0.881151 0.199543
H31   H     H_    0.777947 0.334827 0.285673 0.162871
H32   H     H_    0.334863 0.072612 0.132485 0.215693
H33   H     H_    0.289130 0.957689 0.125402 0.200661
H34   H     H_    0.828594 0.560664 0.122870 0.214859
H35   H     H_    0.791917 0.442761 0.122892 0.192599
H36   H     H_    0.715215 0.825427 0.278642 0.171981
N1    N     N_R   0.499140 1.000000 0.142800 -0.106654
N2    N     N_R   0.999140 0.500000 0.142800 -0.106557
N3    N     N_R   0.499160 0.000000 0.857150 -0.104558
N4    N     N_R   0.999160 0.500000 0.857150 -0.104767
O1    O     O_R   0.408400 0.908380 0.614690 -0.614946
O2    O     O_R   0.591610 0.908390 0.614650 -0.620112
O3    O     O_R   0.091610 0.591610 0.614650 -0.623812
O4    O     O_R   0.091610 0.408390 0.614650 -0.619577
O5    O     O_R   0.591590 0.091600 0.385310 -0.629628
O6    O     O_R   0.591590 0.908400 0.385310 -0.622622
O7    O     O_R   0.091590 0.591600 0.385310 -0.629299
O8    O     O_R   0.091590 0.408400 0.385310 -0.622550
O9    O     O_R   0.408400 0.091620 0.614690 -0.614005
O10   O     O_R   0.908400 0.408380 0.614690 -0.616796
O11   O     O_R   0.908400 0.591620 0.614690 -0.615736
O12   O     O_R   0.408370 0.908370 0.385350 -0.621626
O13   O     O_R   0.408370 0.091630 0.385350 -0.625288
O14   O     O_R   0.908370 0.408370 0.385350 -0.620311
O15   O     O_R   0.908370 0.591630 0.385350 -0.623167
O16   O     O_R   0.591610 0.091610 0.614650 -0.621787
Zn1   Zn    Zn3+2 0.500010 0.000000 0.653130 0.941578
Zn2   Zn    Zn3+2 0.000010 0.500000 0.653130 0.939348
Zn3   Zn    Zn3+2 0.499980 0.000000 0.346870 0.937717
Zn4   Zn    Zn3+2 0.999980 0.500000 0.346870 0.940322

loop_
_geom_bond_atom_site_label_1
_geom_bond_atom_site_label_2
_ccdc_geom_bond_type
C33   H3    S    
C21   C26   A    
C10   H29   S    
O15   Zn4   S    
N2    Zn4   S    
C15   O2    A    
O14   Zn4   S    
C27   C33   A    
C46   H10   S    
O11   Zn2   S    
C34   O15   A    
C7    C52   A    
C38   C42   A    
C18   C42   A    
C47   H11   S    
C12   O13   A    
C20   C40   A    
C6    N4    A    
C6    H26   S    
C23   O10   A    
C20   C25   A    
O9    Zn1   S    
C12   C22   S    
O16   Zn1   S    
C9    H27   S    
C23   C26   S    
C30   H31   S    
C2    N2    A    
C2    C13   S    
C50   H20   S    
C20   C50   S    
C11   C52   S    
O3    Zn2   S    
C28   C35   A    
C13   H34   S    
C41   C46   S    
C8    N4    A    
C48   H13   S    
C43   C48   S    
C25   C34   S    
C17   C38   S    
C14   O16   A    
O13   Zn3   S    
C46   H6    S    
C52   N1    A    
C32   H2    S    
C19   C43   A    
C48   H8    S    
C4    N2    A    
C45   C47   S    
C25   C29   A    
C51   H21   S    
C36   C40   A    
C4    C6    A    
C39   C43   A    
C23   O14   A    
O4    Zn2   S    
C46   C51   S    
C10   H30   S    
C3    H22   S    
C9    H28   S    
C35   C39   A    
C19   C49   S    
C40   C44   S    
C44   H5    S    
C7    N3    A    
C13   H35   S    
C17   O4    A    
C32   C37   A    
C9    C11   S    
C1    O12   A    
C5    N3    A    
C21   C41   A    
C28   H12   S    
C8    C10   S    
C48   C49   S    
O8    Zn4   S    
C22   C27   A    
C44   H9    S    
O10   Zn2   S    
C15   O6    A    
C5    H25   S    
C18   C45   S    
C15   C36   S    
C21   C51   S    
C14   O5    A    
C44   C50   S    
C7    C9    S    
C16   O3    A    
O6    Zn3   S    
C49   H15   S    
C45   H18   S    
C18   C22   A    
C2    C8    A    
C24   C28   A    
C3    C5    A    
C10   C13   S    
C35   H4    S    
O12   Zn3   S    
C27   H1    S    
C16   O7    A    
C26   C30   A    
C29   H23   S    
C11   H32   S    
N1    Zn3   S    
O2    Zn1   S    
C33   C38   A    
C3    N1    A    
N3    Zn1   S    
C19   C24   A    
C12   O9    A    
C29   C31   A    
C14   C37   S    
C30   C32   A    
N4    Zn2   S    
C11   H33   S    
O5    Zn3   S    
O7    Zn4   S    
C34   O11   A    
C42   C47   S    
C37   C41   A    
C17   O8    A    
C4    H24   S    
C16   C39   S    
C47   H7    S    
C31   H36   S    
C1    C24   S    
C1    O1    A    
C49   H19   S    
C45   H14   S    
C31   C36   A    
C51   H17   S    
C50   H16   S    
O1    Zn1   S    
