data_mof_unit_46969.cif
_audit_creation_date              2012-12-11T14:27:02-0500
_audit_creation_method            fapswitch 2.2
_symmetry_space_group_name_H-M    P1
_symmetry_Int_Tables_number       1
_space_group_crystal_system       triclinic
_cell_length_a                    15.066308
_cell_length_b                    14.887039
_cell_length_c                    14.935983
_cell_angle_alpha                 109.722509
_cell_angle_beta                  109.195185
_cell_angle_gamma                 109.53959
_cell_volume                      2577.42451433

loop_
_atom_site_label
_atom_site_type_symbol
_atom_type_description
_atom_site_fract_x
_atom_site_fract_y
_atom_site_fract_z
_atom_type_partial_charge
C1    C     C_R   0.008126 0.805859 0.101157 -0.168528
C2    C     C_R   0.220286 0.755008 0.313946 -0.116728
C3    C     C_R   0.903100 0.407863 0.205227 -0.145408
C4    C     C_R   0.795219 0.195250 0.703770 -0.114867
C5    C     C_R   0.298155 0.592961 0.996093 -0.149242
C6    C     C_R   0.926958 0.498924 0.294951 0.150558
C7    C     C_R   0.302052 0.502756 0.936536 0.192617
C8    C     C_R   0.323084 0.786420 0.325525 0.102832
C9    C     C_R   0.023547 0.195370 0.021135 -0.046533
C10   C     C_3   0.480134 0.434008 0.817037 0.995394
C11   C     C_3   0.373376 0.427631 0.817934 -0.656484
C12   C     C_R   0.705802 0.128473 0.705067 -0.083501
C13   C     C_3   0.538456 0.454010 0.010513 0.386153
C14   C     C_3   0.596507 0.628013 0.993694 0.777110
C15   C     C_3   0.573789 0.503984 0.941928 -0.119973
C16   C     C_R   0.048090 0.592563 0.778335 -0.116448
C17   C     C_3   0.399423 0.505273 0.934346 0.167351
C18   C     C_3   0.443463 0.466944 0.014281 -0.681121
C19   C     C_3   0.487120 0.623640 0.976296 0.153970
C20   C     C_2   0.432511 0.873273 0.524182 -0.028064
C21   C     C_2   0.426113 0.850616 0.426834 -0.165886
C22   C     C_2   0.528144 0.971992 0.623025 -0.254575
C23   C     C_R   0.985018 0.500004 0.674811 -0.059288
C24   C     C_2   0.627568 0.007737 0.633519 0.518339
C25   C     C_2   0.862912 0.426197 0.484297 -0.233981
C26   C     C_2   0.962562 0.499669 0.572593 0.509747
C27   C     C_2   0.840409 0.411909 0.376198 -0.099079
C28   C     C_R   0.686566 0.408702 0.934008 -0.072036
C29   C     C_2   0.881400 0.500604 0.366908 -0.107588
C30   C     C_2   0.145690 0.128362 0.074349 -0.313478
C31   C     C_2   0.045305 0.115240 0.042609 0.530162
C32   C     C_2   0.166961 0.042202 0.083504 -0.124424
C33   C     C_2   0.121618 0.989222 0.126760 -0.112725
C34   C     C_R   0.675426 0.501735 0.954223 0.166172
C35   C     C_R   0.955577 0.407427 0.685864 -0.134059
C36   C     C_R   0.778711 0.592721 0.025309 -0.085667
C37   C     C_R   0.706019 0.195482 0.795791 -0.143890
C38   C     C_R   0.096795 0.804313 0.008335 -0.131949
C39   C     C_R   0.074147 0.870341 0.076504 0.136702
C40   C     C_3   0.400129 0.260250 0.658156 0.286261
C41   C     C_3   0.387184 0.146180 0.622699 -0.935924
C42   C     C_3   0.444373 0.492712 0.681618 0.260844
C43   C     C_3   0.492769 0.521083 0.613616 -0.860913
C44   C     C_3   0.515504 0.305440 0.042336 0.302148
C45   C     C_R   0.991089 0.590564 0.296021 -0.127478
C46   C     C_3   0.623467 0.308899 0.090527 -1.014911
C47   C     C_3   0.704973 0.799342 0.166573 0.256073
C48   C     C_3   0.823986 0.871513 0.205435 -0.950082
C49   C     C_3   0.723755 0.957949 0.548752 0.252710
C50   C     C_3   0.713186 0.854580 0.467549 -0.912601
C51   C     C_3   0.892422 0.949609 0.914050 0.227295
C52   C     C_3   0.798782 0.851721 0.896428 -0.799820
C53   C     C_R   0.210469 0.409881 0.905591 -0.184192
C54   C     C_R   0.312915 0.755837 0.222755 -0.142767
C55   C     C_R   0.957009 0.231880 0.046490 -0.077516
C56   C     C_R   0.052084 0.234760 0.957398 -0.189196
H1    H     H_    0.990772 0.836234 0.166191 0.104492
H2    H     H_    0.827700 0.171387 0.651460 0.059413
H3    H     H_    0.317433 0.341907 0.793583 0.189690
H4    H     H_    0.378445 0.387335 0.993882 0.215076
H5    H     H_    0.500154 0.677330 0.057715 0.026094
H6    H     H_    0.608623 0.502329 0.096051 0.099360
H7    H     H_    0.470504 0.527893 0.099532 0.166570
H8    H     H_    0.360371 0.836436 0.529541 0.113629
H9    H     H_    0.087861 0.678040 0.799808 0.097485
H10   H     H_    0.497044 0.891591 0.421274 0.144746
H11   H     H_    0.509612 0.025482 0.674059 0.101896
H12   H     H_    0.183625 0.324971 0.851389 0.097984
H13   H     H_    0.801391 0.367062 0.489167 0.098553
H14   H     H_    0.811882 0.329974 0.312393 0.114175
H15   H     H_    0.905208 0.581025 0.430349 0.160534
H16   H     H_    0.208588 0.196130 0.079543 0.116499
H17   H     H_    0.198109 0.008292 0.033108 0.115663
H18   H     H_    0.624145 0.322995 0.883556 0.194524
H19   H     H_    0.095576 0.027784 0.180908 0.165604
H20   H     H_    0.911183 0.321971 0.621905 0.091191
H21   H     H_    0.804131 0.678688 0.057170 0.189009
H22   H     H_    0.658814 0.167962 0.831858 0.094971
H23   H     H_    0.377392 0.769467 0.203074 0.089278
H24   H     H_    0.159086 0.831994 0.987462 0.081615
H25   H     H_    0.010775 0.674062 0.345840 0.091230
H26   H     H_    0.439389 0.294743 0.617203 0.132325
H27   H     H_    0.317929 0.251060 0.630389 0.069026
H28   H     H_    0.352394 0.109104 0.664853 0.266247
H29   H     H_    0.332445 0.092038 0.532627 0.213654
H30   H     H_    0.467784 0.152841 0.643820 0.254356
H31   H     H_    0.429304 0.559565 0.720527 0.189458
H32   H     H_    0.366342 0.413772 0.624765 0.032299
H33   H     H_    0.508829 0.455816 0.572355 0.241844
H34   H     H_    0.916720 0.211770 0.090685 0.111588
H35   H     H_    0.435225 0.527542 0.550292 0.213192
H36   H     H_    0.570146 0.601139 0.667171 0.270187
H37   H     H_    0.449214 0.218777 0.999664 0.116927
H38   H     H_    0.505374 0.353901 0.109801 0.072617
H39   H     H_    0.691429 0.394869 0.134980 0.260712
H40   H     H_    0.627515 0.277874 0.148874 0.226045
H41   H     H_    0.631826 0.256301 0.024276 0.258070
H42   H     H_    0.695353 0.814836 0.239925 0.121157
H43   H     H_    0.656100 0.826573 0.120599 0.048030
H44   H     H_    0.835022 0.865553 0.134166 0.265982
H45   H     H_    0.097873 0.216407 0.918609 0.100193
H46   H     H_    0.851288 0.958848 0.260337 0.221378
H47   H     H_    0.874313 0.845391 0.251442 0.252869
H48   H     H_    0.643714 0.749717 0.962427 0.318592
H49   H     H_    0.478118 0.739717 0.947609 0.300398
H50   H     H_    0.808626 0.007952 0.618132 0.104946
H51   H     H_    0.703986 0.001773 0.504565 0.066876
H52   H     H_    0.629855 0.802443 0.395354 0.249172
H53   H     H_    0.772574 0.877934 0.439536 0.206490
H54   H     H_    0.729820 0.806464 0.507137 0.265716
H55   H     H_    0.113352 0.610359 0.635981 0.312659
H56   H     H_    0.198677 0.768125 0.377524 0.096294
H57   H     H_    0.937720 0.918970 0.878306 0.101275
H58   H     H_    0.857571 0.987157 0.869805 0.108717
H59   H     H_    0.750924 0.880093 0.929086 0.240134
H60   H     H_    0.745115 0.790666 0.807464 0.216891
H61   H     H_    0.830164 0.811638 0.939101 0.267113
H62   H     H_    0.841909 0.323501 0.170565 0.098398
H63   H     H_    0.348511 0.678415 0.022758 0.101480
H64   H     H_    0.325393 0.444755 0.758847 0.171233
N1    N     N_R   0.993980 0.704500 0.053430 -0.041541
N2    N     N_R   0.053690 0.556380 0.849240 -0.033516
N3    N     N_R   0.790390 0.443640 0.997160 -0.069266
N4    N     N_R   0.998260 0.443670 0.792970 -0.031851
N5    N     N_R   0.845830 0.556350 0.053430 -0.067396
N6    N     N_R   0.792820 0.295510 0.849240 -0.033843
N7    N     N_R   0.051260 0.704510 0.997160 -0.039377
N8    N     N_R   0.001740 0.556330 0.207030 -0.042706
N9    N     N_R   0.154170 0.443650 0.946570 -0.036249
N10   N     N_R   0.207180 0.704490 0.150760 -0.041146
N11   N     N_R   0.948740 0.295490 0.002840 -0.041952
N12   N     N_R   0.006020 0.295500 0.946570 -0.027684
N13   N     N_R   0.149890 0.704480 0.207030 -0.043262
N14   N     N_R   0.946310 0.443620 0.150760 -0.042181
N15   N     N_R   0.209610 0.556360 0.002840 -0.044100
N16   N     N_R   0.850110 0.295520 0.792970 -0.030061
Ni1   Ni    Ni4+2 0.997880 0.629240 0.129060 0.206519
Ni2   Ni    Ni4+2 0.002120 0.370760 0.870940 0.214687
Ni3   Ni    Ni4+2 0.129260 0.629260 0.000000 0.213458
Ni4   Ni    Ni4+2 0.870740 0.370740 0.000000 0.205522
O1    O     O_3   0.465971 0.325800 0.773450 -0.632024
O2    O     O_3   0.519914 0.486938 0.762831 -0.625636
O3    O     O_3   0.506978 0.340325 0.963985 -0.592800
O4    O     O_3   0.672532 0.685799 0.108977 -0.705252
O5    O     O_3   0.640359 0.677697 0.941143 -0.730083
O6    O     O_3   0.450383 0.659689 0.903170 -0.771922
O7    O     O_3   0.651847 0.926900 0.587329 -0.613220
O8    O     O_3   0.044683 0.568999 0.565187 -0.763675
O9    O     O_3   0.960788 0.025691 0.027636 -0.634781

loop_
_geom_bond_atom_site_label_1
_geom_bond_atom_site_label_2
_ccdc_geom_bond_type
N13   Ni1   S    
C6    C45   A    
C21   H10   S    
C27   C29   D    
C36   N5    A    
C3    C6    A    
C28   H18   S    
C38   N7    A    
C28   N3    A    
C49   H51   S    
N15   Ni3   S    
C41   H30   S    
C14   O5    S    
C2    H56   S    
C51   H57   S    
C47   H42   S    
C13   C18   S    
C5    H63   S    
N4    Ni2   S    
C35   N4    A    
N2    Ni3   S    
N1    N7    A    
C55   H34   S    
C1    H1    S    
C36   H21   S    
N14   Ni4   S    
C30   C31   D    
C31   O9    S    
C18   H7    S    
N3    N5    A    
C11   H64   S    
C45   N8    A    
N12   Ni2   S    
C50   H54   S    
C47   H43   S    
C49   O7    S    
C10   O2    S    
C23   C26   S    
N1    Ni1   S    
C12   C37   A    
C53   H12   S    
C16   N2    A    
C44   H37   S    
N9    N15   A    
C33   H19   S    
N9    Ni2   S    
C7    C17   S    
C42   O2    S    
C9    C55   A    
C4    C12   A    
C15   C34   S    
C34   C36   A    
C4    N16   A    
C52   H61   S    
C13   O3    S    
C37   N6    A    
N6    N16   A    
C40   O1    S    
C50   H52   S    
C40   H27   S    
N7    Ni3   S    
C11   H3    S    
N10   Ni3   S    
H48   O5    S    
C44   C46   S    
C8    C21   S    
C52   H60   S    
C48   H44   S    
C14   O4    S    
C35   H20   S    
C51   H58   S    
C13   H6    S    
C51   C52   S    
C2    N13   A    
C40   H26   S    
N16   Ni2   S    
C8    C54   A    
C32   H17   S    
C5    C7    A    
C9    C31   S    
C54   N10   A    
N5    Ni1   S    
C25   C26   D    
C41   H28   S    
C47   O4    S    
C50   H53   S    
C43   H35   S    
C10   O1    S    
C20   H8    S    
N8    Ni1   S    
C3    H62   S    
N8    N14   A    
C47   C48   S    
C48   H46   S    
C17   C18   S    
C46   H40   S    
C9    C56   A    
C33   C39   S    
C26   O8    S    
C56   N12   A    
C27   H14   S    
C18   H4    S    
C40   C41   S    
C46   H41   S    
C20   C22   S    
C19   O6    S    
C16   C23   A    
C23   C35   A    
C13   C15   S    
C22   C24   D    
N10   N13   A    
C53   N9    A    
C42   C43   S    
C7    C53   A    
N2    N4    A    
N11   N12   A    
C54   H23   S    
C52   H59   S    
C5    N15   A    
C11   C17   S    
N11   Ni4   S    
C14   C19   S    
C2    C8    A    
N6    Ni4   S    
C24   O7    S    
C56   H45   S    
C30   H16   S    
C49   H50   S    
C42   H31   S    
C25   C27   S    
C41   H29   S    
C37   H22   S    
C12   C24   S    
C55   N11   A    
C43   H36   S    
C10   C15   S    
C3    N14   A    
C32   C33   D    
H55   O8    S    
C42   H32   S    
C30   C32   S    
C48   H47   S    
C38   C39   A    
C38   H24   S    
C19   H5    S    
C44   O3    S    
H49   O6    S    
N3    Ni4   S    
C17   C19   S    
C45   H25   S    
C43   H33   S    
C46   H39   S    
C1    N1    A    
C22   H11   S    
C44   H38   S    
C10   C11   S    
C1    C39   A    
C28   C34   A    
C6    C29   S    
C25   H13   S    
C20   C21   D    
C51   O9    S    
C49   C50   S    
C4    H2    S    
C14   C15   S    
C16   H9    S    
C29   H15   S    
