data_mof_unit_5659.cif
_audit_creation_date              2012-12-11T14:17:50-0500
_audit_creation_method            fapswitch 2.2
_symmetry_space_group_name_H-M    P1
_symmetry_Int_Tables_number       1
_space_group_crystal_system       triclinic
_cell_length_a                    11.216609
_cell_length_b                    11.266864
_cell_length_c                    18.656232
_cell_angle_alpha                 88.857511
_cell_angle_beta                  89.934785
_cell_angle_gamma                 118.764173
_cell_volume                      2066.21237744

loop_
_atom_site_label
_atom_site_type_symbol
_atom_type_description
_atom_site_fract_x
_atom_site_fract_y
_atom_site_fract_z
_atom_type_partial_charge
Br1   Br    Br    0.324746 0.768109 0.515411 -0.550367
Br2   Br    Br    0.197004 0.751209 0.316865 -0.395805
Br3   Br    Br    0.691309 0.867286 0.311811 -0.417506
Br4   Br    Br    0.173383 0.327586 0.335034 -0.370944
Br5   Br    Br    0.866343 0.217982 0.447875 -0.487087
Br6   Br    Br    0.433282 0.652480 0.402067 -0.412053
Br7   Br    Br    0.806005 0.283006 0.616460 -0.358886
Br8   Br    Br    0.540869 0.226169 0.501780 -0.478360
Br9   Br    Br    0.737050 0.621293 0.557424 -0.477842
Br10  Br    Br    0.840252 0.023393 0.653390 -0.369877
Br11  Br    Br    0.021828 0.847891 0.640320 -0.393230
Br12  Br    Br    0.322665 0.178033 0.651482 -0.393414
C1    C     C_R   0.522456 0.452566 0.145459 0.543374
C2    C     C_R   0.934555 0.411624 0.550175 0.185550
C3    C     C_R   0.458622 0.038465 0.528739 0.152918
C4    C     C_R   0.568904 0.599427 0.526510 0.132740
C5    C     C_R   0.750158 0.964780 0.561299 0.258892
C6    C     C_R   0.061002 0.786663 0.549957 0.251462
C7    C     C_R   0.275784 0.258376 0.570854 0.225196
C8    C     C_R   0.107409 0.749521 0.406109 0.234315
C9    C     C_R   0.700257 0.912493 0.413216 0.250507
C10   C     C_R   0.231001 0.295285 0.427657 0.217554
C11   C     C_R   0.824174 0.923938 0.518478 -0.104713
C12   C     C_R   0.544596 0.064455 0.147027 0.546394
C13   C     C_R   0.117984 0.892542 0.499994 -0.154070
C14   C     C_R   0.148842 0.183571 0.542292 -0.118734
C15   C     C_R   0.134095 0.875128 0.428694 -0.127980
C16   C     C_R   0.799997 0.896707 0.447332 -0.112066
C17   C     C_R   0.130041 0.194511 0.469604 -0.130305
C18   C     C_R   0.516293 0.450788 0.353268 0.634866
C19   C     C_R   0.544424 0.058281 0.354353 0.626571
C20   C     C_R   0.934523 0.478934 0.354488 0.645617
C21   C     C_R   0.451774 0.520001 0.644396 0.606754
C22   C     C_R   0.066905 0.552690 0.645487 0.614741
C23   C     C_R   0.874718 0.453468 0.140774 0.548828
C24   C     C_R   0.487492 0.940734 0.645559 0.617742
C25   C     C_R   0.494467 0.998594 0.923008 0.003647
C26   C     C_R   0.008034 0.506075 0.925772 0.009421
C27   C     C_R   0.513723 0.499468 0.919634 0.002097
C28   C     C_R   0.904868 0.453368 0.065035 0.004189
C29   C     C_R   0.513230 0.015921 0.073221 0.008475
C30   C     C_R   0.511027 0.476816 0.069204 0.008701
C31   C     C_R   0.380874 0.984258 0.964623 0.017961
C32   C     C_R   0.028830 0.414283 0.970532 0.011804
C33   C     C_R   0.604887 0.613068 0.960551 0.024642
C34   C     C_R   0.459918 0.518947 0.851034 0.532841
C35   C     C_R   0.959917 0.372118 0.036487 0.036767
C36   C     C_R   0.387089 0.980449 0.040685 0.015412
C37   C     C_R   0.590616 0.604715 0.036020 0.005652
C38   C     C_R   0.624843 0.040467 0.029948 -0.145108
C39   C     C_R   0.887504 0.545014 0.020936 -0.157229
C40   C     C_R   0.445345 0.361206 0.026658 -0.149267
C41   C     C_R   0.932740 0.566249 0.950942 -0.133364
C42   C     C_R   0.617020 0.034418 0.956736 -0.137030
C43   C     C_R   0.446239 0.372744 0.952835 -0.167567
C44   C     C_R   0.261211 0.973012 0.933407 -0.092643
C45   C     C_R   0.070192 0.547205 0.854767 0.543318
C46   C     C_R   0.121591 0.367885 0.953608 -0.079041
C47   C     C_R   0.709522 0.734357 0.929238 -0.079563
C48   C     C_R   0.958510 0.257079 0.071732 -0.086178
C49   C     C_R   0.266967 0.940081 0.081562 -0.078262
C50   C     C_R   0.660416 0.723492 0.076009 -0.083163
C51   C     C_R   0.145384 0.937756 0.974923 -0.140783
C52   C     C_R   0.117636 0.255797 0.987829 -0.116533
C53   C     C_R   0.783968 0.847985 0.970475 -0.144510
C54   C     C_R   0.034069 0.198806 0.046438 -0.139774
C55   C     C_R   0.146767 0.917346 0.048523 -0.121530
C56   C     C_R   0.478609 0.937710 0.852141 0.551669
C57   C     C_R   0.758549 0.842536 0.043608 -0.134455
C58   C     C_R   0.541572 0.007525 0.572189 0.114127
C59   C     C_R   0.002004 0.538358 0.575501 0.050295
C60   C     C_R   0.471531 0.494473 0.568739 0.071646
C61   C     C_R   0.987962 0.501473 0.427717 0.045415
C62   C     C_R   0.508546 0.968577 0.421563 0.099726
C63   C     C_R   0.471276 0.482561 0.419792 0.090495
C64   C     C_R   0.635971 0.974209 0.531536 0.048297
C65   C     C_R   0.028461 0.652039 0.528207 0.046845
C66   C     C_R   0.370098 0.377831 0.534116 0.021193
C67   C     C_R   0.408105 0.950538 0.471745 0.090319
C68   C     C_R   0.041006 0.633911 0.453470 0.014710
C69   C     C_R   0.613948 0.949628 0.454221 0.062041
C70   C     C_R   0.357980 0.382115 0.459275 0.024409
C71   C     C_R   0.934056 0.392587 0.477244 0.163389
C72   C     C_R   0.554719 0.601474 0.451629 0.132426
Cr1   Cr    Cr6+3 0.768550 0.541320 0.250660 1.079284
Cr2   Cr    Cr6+3 0.458680 0.227230 0.250660 1.072287
Cr3   Cr    Cr6+3 0.772770 0.231450 0.250660 1.111089
Cr4   Cr    Cr6+3 0.541320 0.768550 0.749340 1.111061
Cr5   Cr    Cr6+3 0.227230 0.458680 0.749340 1.101222
Cr6   Cr    Cr6+3 0.231450 0.772770 0.749340 1.117851
H1    H     H_    0.721094 0.065968 0.052595 0.131211
H2    H     H_    0.895639 0.202051 0.116786 0.172413
H3    H     H_    0.263901 0.922510 0.138893 0.169466
H4    H     H_    0.640914 0.725849 0.132570 0.175164
H5    H     H_    0.054319 0.925647 0.949371 0.115821
H6    H     H_    0.180036 0.213573 0.969738 0.122928
H7    H     H_    0.860207 0.941270 0.945384 0.116668
H8    H     H_    0.032053 0.112602 0.074145 0.113580
H9    H     H_    0.055254 0.886502 0.080256 0.130515
H10   H     H_    0.815392 0.930090 0.075923 0.112373
H11   H     H_    0.906422 0.914888 0.539861 0.180218
H12   H     H_    0.841283 0.602792 0.041314 0.143024
H13   H     H_    0.168892 0.991907 0.518687 0.162556
H14   H     H_    0.072940 0.102832 0.574102 0.193829
H15   H     H_    0.186949 0.963414 0.393646 0.160516
H16   H     H_    0.863128 0.865382 0.417943 0.159721
H17   H     H_    0.038843 0.121066 0.444656 0.178066
H18   H     H_    0.391810 0.260143 0.050344 0.156374
H19   H     H_    0.916092 0.636901 0.917840 0.147851
H20   H     H_    0.706618 0.050761 0.926720 0.156145
H21   H     H_    0.387869 0.283300 0.921629 0.137816
H22   H     H_    0.256153 0.995417 0.877322 0.161111
H23   H     H_    0.204025 0.423777 0.918110 0.176141
H24   H     H_    0.739416 0.741660 0.873570 0.157918
O1    O     O_R   0.910960 0.572410 0.171010 -0.485063
O2    O     O_R   0.528530 0.639750 0.824400 -0.512573
O3    O     O_R   0.111220 0.471470 0.824400 -0.511791
O4    O     O_R   0.360250 0.888780 0.824400 -0.515801
O5    O     O_R   0.909330 0.572400 0.331540 -0.498055
O6    O     O_R   0.427600 0.336930 0.331540 -0.481311
O7    O     O_R   0.663070 0.090670 0.331540 -0.443584
O8    O     O_R   0.572400 0.909330 0.668460 -0.474802
O9    O     O_R   0.336930 0.427600 0.668460 -0.482868
O10   O     O_R   0.090670 0.663070 0.668460 -0.457894
O11   O     O_R   0.638240 0.528520 0.324410 -0.465102
O12   O     O_R   0.427590 0.338550 0.171010 -0.495810
O13   O     O_R   0.471480 0.109720 0.324410 -0.477209
O14   O     O_R   0.890280 0.361760 0.324410 -0.417737
O15   O     O_R   0.528520 0.638240 0.675590 -0.455224
O16   O     O_R   0.109720 0.471480 0.675590 -0.460277
O17   O     O_R   0.361760 0.890280 0.675590 -0.436923
O18   O     O_3   0.666667 0.333333 0.250630 -0.325675
O19   O     O_3   0.333333 0.666667 0.749370 -0.310739
O20   O     O_R   0.661450 0.089040 0.171010 -0.529620
O21   O     O_R   0.572410 0.910960 0.828990 -0.500164
O22   O     O_R   0.338550 0.427590 0.828990 -0.526182
O23   O     O_R   0.089040 0.661450 0.828990 -0.508541
O24   O     O_R   0.639750 0.528530 0.175600 -0.529674
O25   O     O_R   0.471470 0.111220 0.175600 -0.519120
O26   O     O_R   0.888780 0.360250 0.175600 -0.509187

loop_
_geom_bond_atom_site_label_1
_geom_bond_atom_site_label_2
_ccdc_geom_bond_type
C28   C35   A    
Br11  C6    S    
C25   C31   A    
C10   C17   A    
Cr2   O12   S    
C2    C59   A    
Cr1   O11   S    
C4    C60   A    
C19   O13   A    
Cr3   O26   S    
C39   H12   S    
C38   C42   A    
C10   C70   A    
Br9   C4    S    
Cr4   O19   S    
C47   H24   S    
Cr1   O18   S    
C20   O14   A    
Br5   C71   S    
C49   H3    S    
C63   C72   A    
C15   H15   S    
Br10  C5    S    
C41   H19   S    
C25   C56   S    
C51   H5    S    
C4    C72   A    
C42   H20   S    
Cr1   O5    S    
C7    C14   A    
C49   C55   A    
C1    C30   S    
C60   C66   A    
C21   C60   S    
C56   O4    A    
C35   C48   A    
C29   C36   A    
Br7   C2    S    
C27   C43   A    
C16   H16   S    
C46   H23   S    
C23   O1    A    
C38   H1    S    
C31   C36   A    
C32   C35   A    
C55   H9    S    
C27   C33   A    
C14   H14   S    
C18   O11   A    
C48   C54   A    
Cr5   O22   S    
C12   C29   S    
Cr3   O20   S    
C6    C13   A    
Cr4   O15   S    
Cr3   O14   S    
C24   C58   S    
C48   H2    S    
C12   O25   A    
C46   C52   A    
C51   C55   A    
Br6   C72   S    
C8    C68   A    
Br2   C8    S    
Cr1   O1    S    
Cr5   O19   S    
C19   O7    A    
Cr4   O8    S    
C24   O17   A    
C32   C46   A    
C20   C61   S    
Cr3   O7    S    
Cr6   O19   S    
C13   H13   S    
C19   C62   S    
Cr5   O9    S    
C34   O22   A    
Cr5   O16   S    
C50   C57   A    
C39   C41   A    
C52   C54   A    
Cr3   O18   S    
Cr4   O2    S    
C7    C66   A    
C24   O8    A    
C26   C32   A    
C23   O26   A    
C5    C64   A    
C26   C45   S    
Br4   C10   S    
C66   C70   A    
C33   C37   A    
C44   C51   A    
C45   O23   A    
C5    C11   A    
C11   C16   A    
C52   H6    S    
Cr2   O25   S    
C27   C34   S    
Cr6   O17   S    
C9    C16   A    
C9    C69   A    
Br8   C3    S    
C62   C67   A    
C50   H4    S    
C58   C64   A    
Br1   C67   S    
Br3   C9    S    
C1    O12   A    
C20   O5    A    
Cr6   O4    S    
C29   C38   A    
C59   C65   A    
Cr6   O23   S    
C45   O3    A    
C65   C68   A    
C21   O15   A    
C3    C58   A    
C33   C47   A    
C22   O10   A    
C37   C50   A    
C12   O20   A    
C43   H21   S    
Cr2   O13   S    
Cr6   O10   S    
C56   O21   A    
Cr4   O21   S    
Cr5   O3    S    
C64   C69   A    
C40   C43   A    
C63   C70   A    
C8    C15   A    
C3    C67   A    
C13   C15   A    
C28   C39   A    
C25   C42   A    
C34   O2    A    
C1    O24   A    
C54   H8    S    
C23   C28   S    
C2    C71   A    
C47   C53   A    
C18   C63   S    
Cr2   O18   S    
C36   C49   A    
C11   H11   S    
C26   C41   A    
C18   O6    A    
C6    C65   A    
C53   C57   A    
Cr1   O24   S    
Br12  C7    S    
C61   C68   A    
C61   C71   A    
C30   C37   A    
C53   H7    S    
C57   H10   S    
C31   C44   A    
C22   O16   A    
C14   C17   A    
C21   O9    A    
C17   H17   S    
C40   H18   S    
Cr2   O6    S    
C62   C69   A    
C22   C59   S    
C44   H22   S    
C30   C40   A    
