data_mof_unit_59652.cif
_audit_creation_date              2012-12-10T16:37:52-0500
_audit_creation_method            fapswitch 2.2
_symmetry_space_group_name_H-M    P1
_symmetry_Int_Tables_number       1
_space_group_crystal_system       triclinic
_cell_length_a                    28.049337
_cell_length_b                    18.321444
_cell_length_c                    17.048369
_cell_angle_alpha                 89.99997
_cell_angle_beta                  60.884093
_cell_angle_gamma                 90.000011
_cell_volume                      7654.137138

loop_
_atom_site_label
_atom_site_type_symbol
_atom_type_description
_atom_site_fract_x
_atom_site_fract_y
_atom_site_fract_z
_atom_type_partial_charge
C1    C     C_R   0.705811 0.277078 0.673417 0.916268
C2    C     C_R   0.083584 0.500000 0.547588 0.057961
C3    C     C_R   0.192641 0.211787 0.905938 0.080858
C4    C     C_R   0.611035 0.310731 0.046844 -0.185057
C5    C     C_R   0.388965 0.689269 0.953156 -0.185057
C6    C     C_R   0.388965 0.310731 0.953156 -0.185057
C7    C     C_R   0.611035 0.689269 0.046844 -0.185057
C8    C     C_R   0.111035 0.810731 0.046844 -0.185057
C9    C     C_R   0.888965 0.189269 0.953156 -0.185057
C10   C     C_R   0.888965 0.810731 0.953156 -0.185057
C11   C     C_R   0.111035 0.189269 0.046844 -0.185057
C12   C     C_R   0.637815 0.288911 0.093563 -0.207334
C13   C     C_R   0.416416 0.000000 0.452411 0.057961
C14   C     C_R   0.362185 0.711089 0.906437 -0.207334
C15   C     C_R   0.362185 0.288911 0.906437 -0.207334
C16   C     C_R   0.637815 0.711089 0.093563 -0.207334
C17   C     C_R   0.137815 0.788911 0.093563 -0.207334
C18   C     C_R   0.862185 0.211089 0.906437 -0.207334
C19   C     C_R   0.862185 0.788911 0.906437 -0.207334
C20   C     C_R   0.137815 0.211089 0.093563 -0.207334
C21   C     C_R   0.775543 0.274880 0.764931 -0.186665
C22   C     C_R   0.224457 0.725120 0.235069 -0.186665
C23   C     C_R   0.224457 0.274880 0.235069 -0.186664
C24   C     C_R   0.583584 1.000000 0.547588 0.057961
C25   C     C_R   0.775543 0.725120 0.764931 -0.186664
C26   C     C_R   0.275543 0.774880 0.764931 -0.186665
C27   C     C_R   0.724457 0.225120 0.235069 -0.186665
C28   C     C_R   0.724457 0.774880 0.235069 -0.186665
C29   C     C_R   0.275543 0.225120 0.764931 -0.186665
C30   C     C_R   0.804284 0.258361 0.810038 -0.215234
C31   C     C_R   0.195716 0.741639 0.189962 -0.215234
C32   C     C_R   0.195716 0.258362 0.189962 -0.215234
C33   C     C_R   0.804284 0.741638 0.810038 -0.215234
C34   C     C_R   0.304284 0.758361 0.810038 -0.215234
C35   C     C_R   0.077347 0.368445 0.558913 -0.208269
C36   C     C_R   0.695716 0.241639 0.189962 -0.215234
C37   C     C_R   0.695716 0.758361 0.189962 -0.215234
C38   C     C_R   0.304284 0.241639 0.810038 -0.215235
C39   C     C_R   0.070860 0.104078 0.937397 0.901044
C40   C     C_R   0.929140 0.895922 0.062602 0.901044
C41   C     C_R   0.929140 0.104078 0.062603 0.901044
C42   C     C_R   0.070860 0.895922 0.937397 0.901044
C43   C     C_R   0.570860 0.604078 0.937397 0.901044
C44   C     C_R   0.429140 0.395922 0.062602 0.901044
C45   C     C_R   0.429140 0.604078 0.062603 0.901044
C46   C     C_R   0.922653 0.631555 0.441087 -0.208269
C47   C     C_R   0.570860 0.395922 0.937397 0.901044
C48   C     C_R   0.538396 0.132387 0.530430 0.105370
C49   C     C_R   0.461603 0.867613 0.469570 0.105370
C50   C     C_R   0.461603 0.132387 0.469570 0.105370
C51   C     C_R   0.538396 0.867613 0.530429 0.105369
C52   C     C_R   0.038397 0.632387 0.530430 0.105370
C53   C     C_R   0.961603 0.367613 0.469570 0.105370
C54   C     C_R   0.961603 0.632387 0.469570 0.105370
C55   C     C_R   0.038397 0.367613 0.530429 0.105369
C56   C     C_R   0.518488 0.198577 0.516384 -0.220580
C57   C     C_R   0.922653 0.368445 0.441087 -0.208269
C58   C     C_R   0.481512 0.801423 0.483616 -0.220580
C59   C     C_R   0.481512 0.198577 0.483616 -0.220580
C60   C     C_R   0.518488 0.801423 0.516384 -0.220580
C61   C     C_R   0.018488 0.698577 0.516384 -0.220579
C62   C     C_R   0.981512 0.301423 0.483616 -0.220579
C63   C     C_R   0.981512 0.698577 0.483616 -0.220580
C64   C     C_R   0.018488 0.301423 0.516384 -0.220580
C65   C     C_R   0.480072 0.066156 0.486169 0.027488
C66   C     C_R   0.519928 0.933844 0.513831 0.027488
C67   C     C_R   0.519928 0.066156 0.513831 0.027488
C68   C     C_R   0.077347 0.631555 0.558913 -0.208269
C69   C     C_R   0.480072 0.933844 0.486169 0.027488
C70   C     C_R   0.980072 0.566156 0.486169 0.027488
C71   C     C_R   0.019928 0.433844 0.513831 0.027488
C72   C     C_R   0.019928 0.566156 0.513831 0.027488
C73   C     C_R   0.980072 0.433844 0.486169 0.027488
C74   C     C_R   0.959488 0.500000 0.473394 -0.032643
C75   C     C_R   0.040512 0.500000 0.526606 -0.032643
C76   C     C_R   0.459488 0.000000 0.473394 -0.032643
C77   C     C_R   0.540512 1.000000 0.526606 -0.032643
C78   C     C_R   0.894455 0.433532 0.443384 -0.008369
C79   C     C_R   0.577347 0.868445 0.558913 -0.208269
C80   C     C_R   0.105545 0.566468 0.556616 -0.008369
C81   C     C_R   0.105545 0.433532 0.556616 -0.008369
C82   C     C_R   0.894455 0.566468 0.443384 -0.008369
C83   C     C_R   0.394455 0.933532 0.443384 -0.008369
C84   C     C_R   0.605545 0.066468 0.556616 -0.008369
C85   C     C_R   0.605545 0.933532 0.556616 -0.008369
C86   C     C_R   0.394455 0.066468 0.443384 -0.008369
C87   C     C_R   0.845516 0.434515 0.436560 -0.207771
C88   C     C_R   0.154484 0.565484 0.563440 -0.207771
C89   C     C_R   0.154484 0.434515 0.563440 -0.207770
C90   C     C_R   0.422653 0.131555 0.441087 -0.208269
C91   C     C_R   0.845516 0.565485 0.436560 -0.207770
C92   C     C_R   0.345516 0.934515 0.436560 -0.207771
C93   C     C_R   0.654484 0.065485 0.563440 -0.207771
C94   C     C_R   0.654484 0.934515 0.563440 -0.207770
C95   C     C_R   0.345516 0.065485 0.436560 -0.207770
C96   C     C_R   0.826009 0.500000 0.420788 0.413682
C97   C     C_R   0.173990 0.500000 0.579212 0.413683
C98   C     C_R   0.326010 0.000000 0.420788 0.413682
C99   C     C_R   0.673990 1.000000 0.579212 0.413682
C100  C     C_3   0.747387 0.500000 0.405420 -0.166028
C101  C     C_R   0.422653 0.868445 0.441087 -0.208269
C102  C     C_3   0.252613 0.500000 0.594580 -0.166029
C103  C     C_3   0.247387 1.000000 0.405420 -0.166028
C104  C     C_3   0.752613 0.000000 0.594580 -0.166028
C105  C     C_R   0.294189 0.722922 0.326582 0.916268
C106  C     C_R   0.577347 0.131555 0.558913 -0.208269
C107  C     C_R   0.721421 0.269178 0.953187 0.018447
C108  C     C_R   0.278579 0.730822 0.046813 0.018447
C109  C     C_R   0.278579 0.269178 0.046813 0.018447
C110  C     C_R   0.721421 0.730822 0.953187 0.018447
C111  C     C_R   0.221421 0.769178 0.953187 0.018447
C112  C     C_R   0.778579 0.230822 0.046813 0.018447
C113  C     C_R   0.778579 0.769178 0.046813 0.018447
C114  C     C_R   0.221421 0.230822 0.953187 0.018447
C115  C     C_R   0.777937 0.252088 0.904514 0.050783
C116  C     C_R   0.294189 0.277078 0.326582 0.916268
C117  C     C_R   0.222063 0.747912 0.095486 0.050783
C118  C     C_R   0.222063 0.252088 0.095486 0.050782
C119  C     C_R   0.777937 0.747912 0.904514 0.050782
C120  C     C_R   0.277936 0.752088 0.904514 0.050783
C121  C     C_R   0.722063 0.247912 0.095486 0.050783
C122  C     C_R   0.722063 0.752088 0.095486 0.050783
C123  C     C_R   0.277936 0.247912 0.904514 0.050782
C124  C     C_R   0.806492 0.231658 0.951469 0.048448
C125  C     C_R   0.193507 0.768342 0.048531 0.048448
C126  C     C_R   0.193507 0.231658 0.048531 0.048447
C127  C     C_R   0.705811 0.722922 0.673417 0.916268
C128  C     C_R   0.806492 0.768342 0.951469 0.048447
C129  C     C_R   0.306492 0.731658 0.951469 0.048448
C130  C     C_R   0.693507 0.268342 0.048531 0.048448
C131  C     C_R   0.693508 0.731658 0.048531 0.048447
C132  C     C_R   0.306492 0.268342 0.951469 0.048447
C133  C     C_R   0.638198 0.312882 0.952749 0.077455
C134  C     C_R   0.361802 0.687118 0.047251 0.077455
C135  C     C_R   0.361802 0.312882 0.047251 0.077455
C136  C     C_R   0.638198 0.687118 0.952749 0.077455
C137  C     C_R   0.138198 0.812882 0.952749 0.077455
C138  C     C_R   0.205811 0.777078 0.673417 0.916268
C139  C     C_R   0.861802 0.187118 0.047251 0.077455
C140  C     C_R   0.861802 0.812882 0.047251 0.077455
C141  C     C_R   0.138198 0.187118 0.952749 0.077455
C142  C     C_R   0.613103 0.340044 0.903068 -0.139718
C143  C     C_R   0.386897 0.659956 0.096932 -0.139719
C144  C     C_R   0.386897 0.340044 0.096932 -0.139718
C145  C     C_R   0.613102 0.659956 0.903068 -0.139718
C146  C     C_R   0.113103 0.840044 0.903068 -0.139718
C147  C     C_R   0.886897 0.159956 0.096932 -0.139718
C148  C     C_R   0.886897 0.840044 0.096932 -0.139718
C149  C     C_R   0.794189 0.222922 0.326582 0.916268
C150  C     C_R   0.113102 0.159956 0.903068 -0.139718
C151  C     C_R   0.634933 0.323762 0.813584 -0.300763
C152  C     C_R   0.365067 0.676238 0.186416 -0.300763
C153  C     C_R   0.365068 0.323762 0.186416 -0.300764
C154  C     C_R   0.634932 0.676238 0.813584 -0.300764
C155  C     C_R   0.134933 0.823762 0.813584 -0.300763
C156  C     C_R   0.865067 0.176237 0.186416 -0.300763
C157  C     C_R   0.865067 0.823762 0.186416 -0.300764
C158  C     C_R   0.134932 0.176238 0.813584 -0.300764
C159  C     C_R   0.686708 0.295625 0.767097 -0.118280
C160  C     C_R   0.794189 0.777078 0.326582 0.916267
C161  C     C_R   0.313292 0.704375 0.232902 -0.118280
C162  C     C_R   0.313292 0.295625 0.232902 -0.118280
C163  C     C_R   0.686708 0.704375 0.767097 -0.118280
C164  C     C_R   0.186708 0.795625 0.767097 -0.118280
C165  C     C_R   0.813292 0.204374 0.232902 -0.118280
C166  C     C_R   0.813292 0.795625 0.232902 -0.118280
C167  C     C_R   0.186708 0.204375 0.767097 -0.118280
C168  C     C_R   0.718668 0.285299 0.811333 0.069858
C169  C     C_R   0.281332 0.714701 0.188667 0.069858
C170  C     C_R   0.281332 0.285299 0.188667 0.069858
C171  C     C_R   0.205811 0.222922 0.673418 0.916267
C172  C     C_R   0.718668 0.714701 0.811333 0.069858
C173  C     C_R   0.218668 0.785299 0.811333 0.069858
C174  C     C_R   0.781332 0.214701 0.188667 0.069858
C175  C     C_R   0.781332 0.785299 0.188667 0.069858
C176  C     C_R   0.218668 0.214701 0.811333 0.069858
C177  C     C_R   0.690416 0.129696 0.538257 0.933086
C178  C     C_R   0.309583 0.870304 0.461743 0.933086
C179  C     C_R   0.309583 0.129696 0.461743 0.933087
C180  C     C_R   0.690416 0.870304 0.538257 0.933087
C181  C     C_R   0.190416 0.629696 0.538257 0.933086
C182  C     C_R   0.916416 0.500000 0.452411 0.057961
C183  C     C_R   0.809583 0.370304 0.461743 0.933086
C184  C     C_R   0.809583 0.629696 0.461743 0.933087
C185  C     C_R   0.190416 0.370304 0.538257 0.933086
C186  C     C_R   0.692642 0.288213 0.905938 0.080858
C187  C     C_R   0.307358 0.711787 0.094062 0.080858
C188  C     C_R   0.307359 0.288213 0.094062 0.080858
C189  C     C_R   0.692641 0.711787 0.905938 0.080858
C190  C     C_R   0.192642 0.788213 0.905938 0.080858
C191  C     C_R   0.807358 0.211787 0.094062 0.080858
C192  C     C_R   0.807358 0.788213 0.094062 0.080858
H1    H     H_    0.032674 0.249749 0.528274 0.132695
H2    H     H_    0.915904 0.682356 0.415973 0.176328
H3    H     H_    0.915904 0.317644 0.415972 0.176328
H4    H     H_    0.084096 0.682356 0.584028 0.176328
H5    H     H_    0.584096 0.817644 0.584027 0.176328
H6    H     H_    0.415904 0.182356 0.415973 0.176328
H7    H     H_    0.415904 0.817644 0.415972 0.176328
H8    H     H_    0.584096 0.182356 0.584028 0.176328
H9    H     H_    0.612733 0.337749 0.778377 0.188574
H10   H     H_    0.387267 0.662251 0.221623 0.188574
H11   H     H_    0.387267 0.337749 0.221623 0.188574
H12   H     H_    0.967326 0.750251 0.471726 0.132695
H13   H     H_    0.612733 0.662251 0.778377 0.188574
H14   H     H_    0.112733 0.837749 0.778377 0.188574
H15   H     H_    0.887267 0.162251 0.221623 0.188574
H16   H     H_    0.887267 0.837749 0.221623 0.188574
H17   H     H_    0.112733 0.162251 0.778377 0.188574
H18   H     H_    0.568102 0.323816 0.085706 0.155863
H19   H     H_    0.431898 0.676183 0.914293 0.155863
H20   H     H_    0.431898 0.323816 0.914293 0.155863
H21   H     H_    0.568102 0.676184 0.085706 0.155863
H22   H     H_    0.068102 0.823816 0.085706 0.155863
H23   H     H_    0.967326 0.249749 0.471726 0.132696
H24   H     H_    0.931898 0.176184 0.914293 0.155863
H25   H     H_    0.931898 0.823817 0.914293 0.155863
H26   H     H_    0.068102 0.176183 0.085706 0.155863
H27   H     H_    0.613522 0.290213 0.165572 0.136429
H28   H     H_    0.386478 0.709787 0.834428 0.136429
H29   H     H_    0.386478 0.290213 0.834428 0.136429
H30   H     H_    0.613522 0.709787 0.165572 0.136429
H31   H     H_    0.113522 0.790213 0.165572 0.136429
H32   H     H_    0.886478 0.209787 0.834428 0.136429
H33   H     H_    0.886478 0.790213 0.834428 0.136429
H34   H     H_    0.032674 0.750250 0.528274 0.132695
H35   H     H_    0.113522 0.209786 0.165572 0.136428
H36   H     H_    0.799565 0.282647 0.693291 0.178545
H37   H     H_    0.200435 0.717353 0.306709 0.178545
H38   H     H_    0.200435 0.282647 0.306709 0.178544
H39   H     H_    0.799565 0.717353 0.693291 0.178545
H40   H     H_    0.299565 0.782647 0.693291 0.178545
H41   H     H_    0.700435 0.217353 0.306709 0.178545
H42   H     H_    0.700435 0.782647 0.306709 0.178545
H43   H     H_    0.299565 0.217353 0.693291 0.178545
H44   H     H_    0.847680 0.252130 0.768205 0.140704
H45   H     H_    0.532674 0.749749 0.528274 0.132695
H46   H     H_    0.152320 0.747870 0.231795 0.140704
H47   H     H_    0.152320 0.252131 0.231795 0.140704
H48   H     H_    0.847680 0.747870 0.768205 0.140704
H49   H     H_    0.347680 0.752130 0.768205 0.140704
H50   H     H_    0.652320 0.247870 0.231795 0.140704
H51   H     H_    0.652320 0.752130 0.231795 0.140704
H52   H     H_    0.347680 0.247870 0.768205 0.140704
H53   H     H_    0.733303 0.548408 0.383217 0.172482
H54   H     H_    0.727241 0.500000 0.480205 0.148001
H55   H     H_    0.733303 0.451591 0.383217 0.172483
H56   H     H_    0.467326 0.250251 0.471726 0.132695
H57   H     H_    0.272759 0.500000 0.519795 0.148001
H58   H     H_    0.266697 0.451592 0.616783 0.172482
H59   H     H_    0.266697 0.548408 0.616783 0.172482
H60   H     H_    0.233303 0.048408 0.383217 0.172482
H61   H     H_    0.227241 1.000000 0.480205 0.148001
H62   H     H_    0.233303 0.951592 0.383217 0.172483
H63   H     H_    0.772759 0.000000 0.519795 0.148001
H64   H     H_    0.766697 0.951592 0.616783 0.172482
H65   H     H_    0.766697 0.048408 0.616783 0.172483
H66   H     H_    0.467326 0.749749 0.471726 0.132696
H67   H     H_    0.532674 0.250251 0.528274 0.132696
H68   H     H_    0.084096 0.317644 0.584027 0.176328
O1    O     O_R   0.746490 0.236330 0.638080 -0.639115
O2    O     O_R   0.325830 0.813840 0.483730 -0.652837
O3    O     O_R   0.325830 0.186160 0.483730 -0.652837
O4    O     O_R   0.674170 0.813840 0.516270 -0.652837
O5    O     O_R   0.174170 0.686160 0.516270 -0.652837
O6    O     O_R   0.825830 0.313840 0.483730 -0.652837
O7    O     O_R   0.825830 0.686160 0.483730 -0.652837
O8    O     O_R   0.174170 0.313840 0.516270 -0.652837
O9    O     O_R   0.739960 0.127620 0.525000 -0.629834
O10   O     O_R   0.260040 0.872380 0.475000 -0.629834
O11   O     O_R   0.260040 0.127620 0.475000 -0.629834
O12   O     O_R   0.253510 0.763670 0.361920 -0.639115
O13   O     O_R   0.739960 0.872380 0.525000 -0.629834
O14   O     O_R   0.239960 0.627620 0.525000 -0.629834
O15   O     O_R   0.760040 0.372380 0.475000 -0.629834
O16   O     O_R   0.760040 0.627620 0.475000 -0.629834
O17   O     O_R   0.239960 0.372380 0.525000 -0.629834
O18   O     O_R   0.680700 0.294870 0.629350 -0.635848
O19   O     O_R   0.319300 0.705130 0.370650 -0.635848
O20   O     O_R   0.319300 0.294870 0.370650 -0.635848
O21   O     O_R   0.680700 0.705130 0.629350 -0.635848
O22   O     O_R   0.180700 0.794870 0.629350 -0.635848
O23   O     O_R   0.253510 0.236330 0.361920 -0.639115
O24   O     O_R   0.819300 0.205130 0.370650 -0.635848
O25   O     O_R   0.819300 0.794870 0.370650 -0.635848
O26   O     O_R   0.180700 0.205130 0.629350 -0.635848
O27   O     O_R   0.062020 0.072840 0.007170 -0.615241
O28   O     O_R   0.937980 0.927160 0.992830 -0.615241
O29   O     O_R   0.937980 0.072840 0.992830 -0.615241
O30   O     O_R   0.062020 0.927160 0.007170 -0.615241
O31   O     O_R   0.562020 0.572840 0.007170 -0.615241
O32   O     O_R   0.437980 0.427160 0.992830 -0.615241
O33   O     O_R   0.437980 0.572840 0.992830 -0.615241
O34   O     O_R   0.746490 0.763670 0.638080 -0.639115
O35   O     O_R   0.562020 0.427160 0.007170 -0.615241
O36   O     O_R   0.947860 0.073950 0.109290 -0.619889
O37   O     O_R   0.052140 0.926050 0.890710 -0.619889
O38   O     O_R   0.052140 0.073950 0.890710 -0.619889
O39   O     O_R   0.947860 0.926050 0.109290 -0.619889
O40   O     O_R   0.447860 0.573950 0.109290 -0.619889
O41   O     O_R   0.552140 0.426050 0.890710 -0.619889
O42   O     O_R   0.552140 0.573950 0.890710 -0.619889
O43   O     O_R   0.447860 0.426050 0.109290 -0.619889
O44   O     O_3   0.805080 0.500000 0.361509 -0.598709
O45   O     O_R   0.246490 0.736330 0.638080 -0.639115
O46   O     O_3   0.194920 0.500000 0.638491 -0.598709
O47   O     O_3   0.305080 0.000000 0.361509 -0.598709
O48   O     O_3   0.694920 1.000000 0.638491 -0.598709
O49   O     O_R   0.753510 0.263670 0.361920 -0.639115
O50   O     O_R   0.753510 0.736330 0.361920 -0.639115
O51   O     O_R   0.246490 0.263670 0.638080 -0.639115
O52   O     O_R   0.674170 0.186160 0.516270 -0.652837
Zn1   Zn    Zn3+2 0.792340 0.208750 0.507670 0.906195
Zn2   Zn    Zn3+2 0.494040 0.500000 0.919480 0.925507
Zn3   Zn    Zn3+2 0.005960 0.000000 0.080520 0.925507
Zn4   Zn    Zn3+2 0.994040 0.000000 0.919480 0.925507
Zn5   Zn    Zn3+2 0.207660 0.791250 0.492330 0.906195
Zn6   Zn    Zn3+2 0.207660 0.208750 0.492330 0.906195
Zn7   Zn    Zn3+2 0.792340 0.791250 0.507670 0.906195
Zn8   Zn    Zn3+2 0.292340 0.708750 0.507670 0.906195
Zn9   Zn    Zn3+2 0.707660 0.291250 0.492330 0.906195
Zn10  Zn    Zn3+2 0.707660 0.708750 0.492330 0.906195
Zn11  Zn    Zn3+2 0.292340 0.291250 0.507670 0.906195
Zn12  Zn    Zn3+2 0.505960 0.500000 0.080520 0.925507

loop_
_geom_bond_atom_site_label_1
_geom_bond_atom_site_label_2
_ccdc_geom_bond_type
C42   O30   A    
C177  O52   A    
C16   H30   S    
C39   C150  S    
C97   O46   S    
C20   H35   S    
C12   C130  A    
C57   H3    S    
C50   C59   A    
O22   Zn5   S    
C112  C124  A    
C8    H22   S    
C52   C61   A    
C180  O4    A    
C54   C63   A    
C58   C60   A    
O52   Zn9   S    
C62   H23   S    
C61   C63   A    
C62   C64   A    
C100  H53   S    
C134  C143  A    
C138  O45   A    
C179  O3    A    
C50   C90   A    
C113  C122  A    
C111  C125  A    
C59   H56   S    
C160  C166  S    
C4    C12   A    
C24   C85   A    
O33   Zn2   S    
C174  C191  A    
C119  C128  A    
C109  C188  A    
O36   Zn3   S    
C49   C69   A    
C91   C184  S    
O17   Zn11  S    
C14   H28   S    
C47   O41   A    
C10   C140  A    
C151  H9    S    
C109  C118  A    
C30   C115  A    
C34   C120  A    
C11   C20   A    
C137  C146  A    
C1    C159  S    
C169  C187  A    
C86   C90   A    
C71   C73   A    
C167  C171  S    
C26   C173  A    
C39   O27   A    
O10   Zn5   S    
C40   O28   A    
C82   C91   A    
C120  C129  A    
C51   C66   A    
C142  C151  A    
C100  O44   S    
C52   C72   A    
C54   C70   A    
C109  C132  A    
C164  C173  A    
C163  C172  A    
C65   C76   A    
C11   H26   S    
O29   Zn4   S    
O30   Zn3   S    
C27   C36   A    
C79   C85   A    
C66   C77   A    
C98   O47   S    
C57   C78   A    
C185  O17   A    
O51   Zn11  S    
C56   C59   A    
C28   C175  A    
C42   O37   A    
C8    C17   A    
C44   O43   A    
C43   C145  S    
C80   C88   A    
C100  H55   S    
C112  C191  A    
O15   Zn9   S    
C39   O38   A    
C84   C93   A    
C48   C67   A    
C86   C95   A    
C3    C176  A    
C103  H62   S    
C2    C81   A    
C55   C71   A    
C2    C75   A    
C28   H42   S    
C153  H11   S    
C78   C87   A    
O4    Zn10  S    
C123  C132  A    
C19   C128  A    
C3    C141  A    
C121  C130  A    
C171  O26   A    
O24   Zn1   S    
C133  C142  A    
C6    C135  A    
C21   C168  A    
C58   H66   S    
O16   Zn10  S    
O32   Zn2   S    
C87   C183  S    
C114  C126  A    
C69   C76   A    
C160  O25   A    
C85   C94   A    
O27   Zn3   S    
C16   C131  A    
C29   H43   S    
C46   C82   A    
C43   O31   A    
C29   C38   A    
C47   O35   A    
C152  C161  A    
C161  C169  A    
C158  H17   S    
C91   C96   A    
C87   C96   A    
C34   H49   S    
C72   C75   A    
C27   C174  A    
C141  C150  A    
C46   H2    S    
C55   C64   A    
C43   O42   A    
C168  C186  A    
C15   C132  A    
C102  H59   S    
C45   O40   A    
C116  O20   A    
O6    Zn1   S    
C149  C165  S    
C178  O2    A    
O38   Zn4   S    
C175  C192  A    
C93   C177  S    
C165  C174  A    
C78   C182  A    
C151  C159  A    
C70   C74   A    
C180  O13   A    
C17   H31   S    
O8    Zn6   S    
C24   C77   A    
C11   C141  A    
C114  C123  A    
O19   Zn8   S    
C31   H46   S    
C105  C161  S    
O40   Zn12  S    
C145  C154  A    
C122  C131  A    
C63   H12   S    
C106  H8    S    
C113  C192  A    
C83   C101  A    
C89   C185  S    
C108  C117  A    
C88   C97   A    
C116  O23   A    
C3    C114  A    
C177  O9    A    
C110  C119  A    
C101  H7    S    
C74   C182  A    
C32   H47   S    
C179  O11   A    
C82   C182  A    
C61   H34   S    
C136  C189  A    
C36   H50   S    
C36   C121  A    
C19   H33   S    
C7    C136  A    
C33   H48   S    
C28   C37   A    
C140  C192  A    
C171  O51   A    
C148  C157  A    
C50   C65   A    
C51   C79   A    
C154  H13   S    
C100  H54   S    
C137  C190  A    
C9    C18   A    
C170  C188  A    
C184  O7    A    
C60   H45   S    
C96   O44   S    
C30   H44   S    
C117  C125  A    
C10   H25   S    
C25   C33   A    
C184  O16   A    
C37   H51   S    
C102  H57   S    
C73   C74   A    
C113  C128  A    
C107  C186  A    
C166  C175  A    
C104  H63   S    
C139  C191  A    
C49   C101  A    
O9    Zn1   S    
C173  C190  A    
C48   C106  A    
C146  C155  A    
C65   C67   A    
C67   C77   A    
C158  C167  A    
C84   C106  A    
C18   H32   S    
C93   C99   A    
C81   C89   A    
O45   Zn8   S    
O42   Zn2   S    
C152  H10   S    
C107  C130  A    
C102  O46   S    
C35   H68   S    
C5    H19   S    
C40   C148  S    
C53   C57   A    
C8    C137  A    
O18   Zn9   S    
C20   C126  A    
C162  C170  A    
C10   C19   A    
C46   C54   A    
C99   O48   S    
C68   H4    S    
C147  C156  A    
C5    C14   A    
C181  O5    A    
C25   C172  A    
C160  O50   A    
C7    C16   A    
C103  H61   S    
C56   H67   S    
C29   C176  A    
C42   C146  S    
O43   Zn12  S    
C21   H36   S    
C25   H39   S    
C127  C163  S    
C115  C124  A    
C150  C158  A    
C134  C187  A    
C40   O39   A    
O37   Zn4   S    
C32   C118  A    
O50   Zn10  S    
C172  C189  A    
C38   H52   S    
C21   C30   A    
C13   C83   A    
C110  C189  A    
C153  C162  A    
C23   C32   A    
C1    O18   A    
O13   Zn7   S    
C9    C139  A    
O14   Zn8   S    
C88   C181  S    
C22   H37   S    
C156  C165  A    
C22   C169  A    
O3    Zn11  S    
C37   C122  A    
C112  C121  A    
C111  C190  A    
C38   C123  A    
C45   C143  S    
C178  O10   A    
C14   C129  A    
C68   C80   A    
O25   Zn7   S    
C79   H5    S    
O35   Zn12  S    
C108  C187  A    
C155  H14   S    
C140  C148  A    
C35   C81   A    
C95   C98   A    
C92   C98   A    
C149  O49   A    
C83   C92   A    
C47   C142  S    
C139  C147  A    
C104  O48   S    
C183  O6    A    
O5    Zn5   S    
C103  H60   S    
O31   Zn12  S    
C116  C162  S    
O7    Zn7   S    
C66   C69   A    
C6    H20   S    
C4    H18   S    
C159  C168  A    
O2    Zn8   S    
C144  C153  A    
C156  H15   S    
C31   C117  A    
O20   Zn11  S    
C6    C15   A    
C26   C34   A    
C13   C86   A    
O49   Zn9   S    
C12   H27   S    
C136  C145  A    
C52   C68   A    
O39   Zn3   S    
C138  O22   A    
C157  H16   S    
C181  O14   A    
C9    H24   S    
C5    C134  A    
C22   C31   A    
C35   C55   A    
C154  C163  A    
C110  C131  A    
C26   H40   S    
O41   Zn2   S    
C49   C58   A    
C89   C97   A    
C111  C120  A    
C15   H29   S    
O11   Zn6   S    
O23   Zn6   S    
C53   C62   A    
C183  O15   A    
C41   C147  S    
C13   C76   A    
C44   C144  S    
C64   H1    S    
C94   C180  S    
C107  C115  A    
C108  C129  A    
C7    H21   S    
C92   C178  S    
C133  C186  A    
C127  O34   A    
C1    O1    A    
C95   C179  S    
C135  C144  A    
C33   C119  A    
C103  O47   S    
O26   Zn6   S    
C105  O19   A    
O12   Zn5   S    
O28   Zn4   S    
C135  C188  A    
O34   Zn7   S    
C48   C56   A    
C143  C152  A    
C44   O32   A    
C102  H58   S    
C45   O33   A    
C53   C73   A    
O21   Zn10  S    
C157  C166  A    
C138  C164  S    
C51   C60   A    
C41   O29   A    
C155  C164  A    
C90   H6    S    
C104  H64   S    
O1    Zn1   S    
C127  O21   A    
C24   C84   A    
C71   C75   A    
C17   C125  A    
C23   C170  A    
C94   C99   A    
C105  O12   A    
C149  O24   A    
C104  H65   S    
C23   H38   S    
C2    C80   A    
C27   H41   S    
C41   O36   A    
C167  C176  A    
C70   C72   A    
C118  C126  A    
C185  O8    A    
C18   C124  A    
C4    C133  A    
