data_mof_unit_40411.cif
_audit_creation_date              2013-03-05T15:53:17-0500
_audit_creation_method            fapswitch 2.2
_symmetry_space_group_name_H-M    P1
_symmetry_Int_Tables_number       1
_space_group_crystal_system       triclinic
_cell_length_a                    17.412051
_cell_length_b                    24.458939
_cell_length_c                    15.142399
_cell_angle_alpha                 90.042569
_cell_angle_beta                  126.126681
_cell_angle_gamma                 89.573689
_cell_volume                      5208.63788491

loop_
_atom_site_label
_atom_site_type_symbol
_atom_site_description
_atom_site_fract_x
_atom_site_fract_y
_atom_site_fract_z
_atom_type_partial_charge
C1    C     C_R   0.344882 0.350723 0.910933 0.300137
C2    C     C_R   0.653751 0.349366 0.091738 0.379853
C3    C     C_R   0.825125 0.860539 0.908130 0.301788
C4    C     C_R   0.144516 0.847124 0.091648 0.234653
N1    N     N_R   0.395410 0.396350 0.944340 -0.102182
N2    N     N_R   0.604590 0.396350 0.055660 -0.103887
N3    N     N_R   0.895410 0.896350 0.944340 -0.091783
N4    N     N_R   0.104590 0.896350 0.055660 -0.099514
C5    C     C_R   0.398992 0.619390 0.089368 -0.113879
C6    C     C_R   0.555148 0.651908 0.910439 -0.109678
C7    C     C_R   0.896390 0.120920 0.086609 -0.051476
C8    C     C_R   0.056475 0.149694 0.907827 -0.114895
H1    H     H_    0.422726 0.620282 0.172820 0.120554
H2    H     H_    0.507591 0.666183 0.826836 0.114528
H3    H     H_    0.922284 0.125995 0.169493 0.111118
H4    H     H_    0.014819 0.162276 0.822963 0.128017
N5    N     N_R   0.449930 0.602500 0.055880 -0.044909
N6    N     N_R   0.550070 0.602500 0.944120 -0.048928
N7    N     N_R   0.949930 0.102500 0.055880 -0.048151
N8    N     N_R   0.050070 0.102500 0.944120 -0.052735
C9    C     C_R   0.533224 0.454148 0.294090 0.314299
C10   C     C_R   0.516477 0.453705 0.749039 0.333822
C11   C     C_R   0.035549 0.955940 0.297625 0.286753
C12   C     C_R   0.010274 0.954136 0.741517 0.328676
N9    N     N_R   0.525080 0.471030 0.205650 -0.099569
N10   N     N_R   0.474920 0.471030 0.794350 -0.085595
N11   N     N_R   0.025080 0.971030 0.205650 -0.088105
N12   N     N_R   0.974920 0.971030 0.794350 -0.091350
C13   C     C_R   0.231350 0.545251 0.719042 -0.100468
C14   C     C_R   0.752367 0.545779 0.302880 -0.120351
C15   C     C_R   0.739804 0.045331 0.701849 -0.122418
C16   C     C_R   0.267002 0.045498 0.245156 -0.122930
H5    H     H_    0.209216 0.586763 0.690836 0.111368
H6    H     H_    0.761077 0.587745 0.329718 0.117692
H7    H     H_    0.726343 0.086799 0.671017 0.119381
H8    H     H_    0.288629 0.087629 0.256160 0.117295
N13   N     N_R   0.320260 0.527820 0.794570 -0.053373
N14   N     N_R   0.679740 0.527820 0.205430 -0.054797
N15   N     N_R   0.820260 0.027820 0.794570 -0.053337
N16   N     N_R   0.179740 0.027820 0.205430 -0.056461
C17   C     C_R   0.540178 0.545232 0.297933 -0.212710
C18   C     C_R   0.517768 0.545378 0.750119 -0.186358
C19   C     C_R   0.035664 0.046988 0.293643 -0.200658
C20   C     C_R   0.015058 0.045781 0.747999 -0.184842
H9    H     H_    0.556545 0.586754 0.327999 0.138780
H10   H     H_    0.522687 0.587602 0.732994 0.146378
H11   H     H_    0.048477 0.089140 0.320024 0.148532
H12   H     H_    0.017719 0.088025 0.729269 0.142090
N17   N     N_R   0.524590 0.527840 0.205200 -0.061344
N18   N     N_R   0.475410 0.527840 0.794800 -0.066204
N19   N     N_R   0.024590 0.027840 0.205200 -0.064599
N20   N     N_R   0.975410 0.027840 0.794800 -0.066633
C21   C     C_R   0.231627 0.454080 0.724897 -0.068854
C22   C     C_R   0.751238 0.455317 0.306039 0.025619
C23   C     C_R   0.739574 0.954342 0.702869 0.004646
C24   C     C_R   0.266727 0.954468 0.239196 -0.001239
H13   H     H_    0.208530 0.412866 0.701711 0.187794
H14   H     H_    0.758047 0.415540 0.339455 0.201028
H15   H     H_    0.723331 0.912901 0.674115 0.160808
H16   H     H_    0.287828 0.913277 0.237903 0.147195
N21   N     N_R   0.320750 0.471000 0.795020 -0.053055
N22   N     N_R   0.679250 0.471000 0.204980 -0.065392
N23   N     N_R   0.820750 0.971000 0.795020 -0.059980
N24   N     N_R   0.179250 0.971000 0.204980 -0.048576
C25   C     C_R   0.310958 0.627101 0.907882 -0.061625
C26   C     C_R   0.648543 0.651041 0.092135 -0.077148
C27   C     C_R   0.807803 0.122326 0.904985 -0.059576
C28   C     C_R   0.151118 0.150313 0.090019 -0.104746
H17   H     H_    0.256597 0.640088 0.825496 0.099819
H18   H     H_    0.690481 0.662867 0.176879 0.110236
H19   H     H_    0.752823 0.129372 0.819940 0.106900
H20   H     H_    0.197004 0.164238 0.173669 0.115353
N25   N     N_R   0.393620 0.602490 0.942710 -0.053561
N26   N     N_R   0.606380 0.602490 0.057290 -0.048883
N27   N     N_R   0.893620 0.102490 0.942710 -0.052905
N28   N     N_R   0.106380 0.102490 0.057290 -0.053830
C29   C     C_R   0.438021 0.350343 0.092322 -0.127550
C30   C     C_R   0.557910 0.346476 0.912766 -0.093454
C31   C     C_R   0.905187 0.869424 0.089120 -0.064677
C32   C     C_R   0.059157 0.847469 0.910762 -0.032346
H21   H     H_    0.477615 0.336752 0.175987 0.208905
H22   H     H_    0.507521 0.330255 0.832640 0.215926
H23   H     H_    0.925693 0.867219 0.170874 0.152639
H24   H     H_    0.015883 0.831947 0.828676 0.197031
N29   N     N_R   0.451720 0.396350 0.057510 -0.084917
N30   N     N_R   0.548280 0.396350 0.942490 -0.086171
N31   N     N_R   0.951720 0.896350 0.057510 -0.066629
N32   N     N_R   0.048280 0.896350 0.942490 -0.083693
C33   C     C_R   0.369364 0.321720 0.001968 -0.026140
C34   C     C_R   0.625370 0.315519 0.004595 -0.090868
C35   C     C_R   0.823862 0.847167 0.997093 -0.038962
C36   C     C_R   0.120346 0.816590 0.003080 -0.043507
C37   C     C_R   0.311947 0.636173 0.999035 0.112370
C38   C     C_R   0.614456 0.684062 0.001372 0.078379
C39   C     C_R   0.804712 0.131764 0.993408 0.076365
C40   C     C_R   0.121231 0.179541 0.997101 0.138979
C41   C     C_R   0.543907 0.499826 0.352811 -0.050892
C42   C     C_R   0.543855 0.499374 0.720296 -0.066625
C43   C     C_R   0.039202 0.003014 0.349884 -0.070150
C44   C     C_R   0.036901 0.000358 0.713061 -0.078547
C45   C     C_R   0.174475 0.499805 0.680376 0.104229
C46   C     C_R   0.796569 0.501014 0.368460 0.070841
C47   C     C_R   0.687903 0.000178 0.643536 0.117256
C48   C     C_R   0.322679 0.000339 0.265175 0.083456
Ni1   Ni    Ni4+2 0.435420 0.434270 0.870230 0.308108
Ni2   Ni    Ni4+2 0.564580 0.434270 0.129770 0.292391
Ni3   Ni    Ni4+2 0.935420 0.934270 0.870230 0.306085
Ni4   Ni    Ni4+2 0.064580 0.934270 0.129770 0.334899
Ni5   Ni    Ni4+2 0.563430 0.564580 0.128740 0.222750
Ni6   Ni    Ni4+2 0.436570 0.564580 0.871260 0.221173
Ni7   Ni    Ni4+2 0.063430 0.064580 0.128740 0.239560
Ni8   Ni    Ni4+2 0.936570 0.064580 0.871260 0.228390
C49   C     C_2   0.920558 0.458171 0.538940 -0.037560
C50   C     C_2   0.023124 0.461957 0.619776 -0.101458
C51   C     C_2   0.479150 0.957891 0.360822 -0.010428
C52   C     C_2   0.576034 0.961017 0.461873 -0.075093
C53   C     C_2   0.870186 0.503056 0.485230 -0.208502
C54   C     C_2   0.072258 0.500045 0.608945 -0.195880
C55   C     C_2   0.424269 0.002488 0.315272 -0.189362
C56   C     C_2   0.601198 0.002011 0.532862 -0.165273
H25   H     H_    0.892817 0.417531 0.508937 0.177916
H26   H     H_    0.059390 0.429381 0.680026 0.164007
H27   H     H_    0.448579 0.917634 0.337219 0.204805
H28   H     H_    0.621670 0.925331 0.485015 0.158189
H29   H     H_    0.897171 0.543246 0.520504 0.158500
H30   H     H_    0.037768 0.532295 0.547817 0.156376
H31   H     H_    0.455928 0.042786 0.333885 0.147316
H32   H     H_    0.555671 0.037437 0.512416 0.141423
C57   C     C_R   0.287469 0.700317 0.101648 0.100636
C58   C     C_R   0.608227 0.762803 0.898633 0.097691
C59   C     C_R   0.735392 0.172055 0.084160 0.112623
C60   C     C_R   0.197577 0.212903 0.920218 0.150820
C61   C     C_R   0.246789 0.668895 0.007370 -0.000634
C62   C     C_R   0.631510 0.742585 0.998178 0.011011
C63   C     C_R   0.724354 0.156297 0.988851 0.050908
C64   C     C_R   0.171371 0.222248 0.990082 -0.037875
C65   C     C_R   0.149630 0.677381 0.920360 -0.117357
C66   C     C_R   0.698177 0.771409 0.094884 -0.120287
C67   C     C_R   0.648559 0.182379 0.892138 -0.164410
C68   C     C_R   0.206170 0.267577 0.060195 -0.132842
C69   C     C_R   0.616562 0.233996 0.900108 -0.129396
C70   C     C_R   0.276582 0.298074 0.067090 -0.185670
C71   C     C_R   0.104220 0.725015 0.921863 -0.179709
C72   C     C_R   0.760853 0.806605 0.094316 -0.185626
H33   H     H_    0.565789 0.255371 0.824738 0.192011
H34   H     H_    0.305129 0.333333 0.120442 0.190896
H35   H     H_    0.032108 0.734695 0.852891 0.186187
H36   H     H_    0.817201 0.824934 0.170436 0.177146
C73   C     C_R   0.650300 0.257476 0.002690 0.128469
C74   C     C_R   0.309003 0.284141 0.003724 -0.036011
C75   C     C_R   0.154415 0.761706 0.009804 0.119832
C76   C     C_R   0.750113 0.817900 0.996359 0.088814
C77   C     C_R   0.704358 0.221961 0.093904 0.048986
C78   C     C_R   0.262761 0.244502 0.923095 0.138133
C79   C     C_R   0.243100 0.745944 0.103314 0.078085
C80   C     C_R   0.666217 0.801631 0.897750 0.081091
C81   C     C_3   0.757879 0.212092 0.216528 0.125889
C82   C     C_3   0.298843 0.196923 0.892728 0.118766
C83   C     C_3   0.337187 0.774857 0.181357 0.086172
C84   C     C_3   0.582367 0.837347 0.816444 0.109158
C85   C     C_3   0.384888 0.724393 0.175707 -0.575715
C86   C     C_3   0.519914 0.795061 0.818419 -0.580642
C87   C     C_3   0.786740 0.155728 0.200622 -0.646234
C88   C     C_3   0.228682 0.161323 0.895868 -0.673016
H37   H     H_    0.418934 0.731247 0.133384 0.255104
H38   H     H_    0.483201 0.808972 0.854707 0.253717
H39   H     H_    0.864649 0.150755 0.249196 0.230271
H40   H     H_    0.171042 0.143576 0.815908 0.232099
H41   H     H_    0.430528 0.701612 0.254347 0.186512
H42   H     H_    0.472540 0.772378 0.740578 0.210189
H43   H     H_    0.751097 0.120729 0.209176 0.200599
H44   H     H_    0.260963 0.131740 0.964949 0.234868
C89   C     C_R   0.483526 0.470506 0.539311 0.246108
C90   C     C_R   0.484323 0.469988 0.450428 0.255097
C91   C     C_R   0.106715 0.033253 0.624282 0.107589
C92   C     C_R   0.106571 0.034777 0.533709 0.126684
C93   C     C_R   0.552244 0.498978 0.632592 0.034077
C94   C     C_R   0.552543 0.499067 0.451432 0.030014
C95   C     C_R   0.036152 0.004250 0.619763 0.092169
C96   C     C_R   0.035685 0.007398 0.439805 0.098541
C97   C     C_R   0.626403 0.525244 0.638574 -0.149260
C98   C     C_R   0.626425 0.525437 0.546378 -0.160431
C99   C     C_R   0.955132 0.986780 0.519344 -0.093679
C100  C     C_R   0.955305 0.987911 0.428579 -0.123981
H45   H     H_    0.681329 0.546474 0.711985 0.158928
H46   H     H_    0.681401 0.546846 0.547848 0.154283
H47   H     H_    0.894503 0.969906 0.512585 0.156236
H48   H     H_    0.895898 0.971048 0.352031 0.143048
C101  C     C_3   0.378468 0.474426 0.372403 -0.502755
C102  C     C_3   0.377518 0.475308 0.471758 -0.481862
C103  C     C_3   0.212036 0.028012 0.599930 -0.393710
C104  C     C_3   0.212174 0.026374 0.700276 -0.391446
H49   H     H_    0.354079 0.513519 0.325555 0.203913
H50   H     H_    0.343960 0.438530 0.478066 0.258145
H51   H     H_    0.233997 0.988645 0.583788 0.229375
H52   H     H_    0.247094 0.062363 0.754469 0.213206
H53   H     H_    0.346362 0.436956 0.322171 0.250221
H54   H     H_    0.353000 0.514993 0.483361 0.200155
H55   H     H_    0.246950 0.064918 0.596243 0.218318
H56   H     H_    0.234261 0.986063 0.742744 0.230722
N33   N     N_R   0.291518 0.330574 0.801637 0.223165
O1    O     O_R   0.202114 0.318996 0.751413 -0.372412
O2    O     O_R   0.325932 0.334118 0.745547 -0.343689
N34   N     N_R   0.721788 0.337566 0.203946 0.203150
O3    O     O_R   0.808010 0.354856 0.250241 -0.362424
O4    O     O_R   0.692588 0.327716 0.263913 -0.381996
N35   N     N_R   0.794853 0.825285 0.817099 0.214811
O5    O     O_R   0.765751 0.776122 0.814716 -0.374190
O6    O     O_R   0.824546 0.835030 0.757520 -0.397110
N36   N     N_R   0.163623 0.823496 0.189482 0.229301
O7    O     O_R   0.217935 0.848206 0.282684 -0.362482
O8    O     O_R   0.124935 0.777357 0.185499 -0.342147
C105  C     C_2   0.095732 0.638429 0.828260 1.011395
O9    O     O_2   0.025101 0.653841 0.740006 -0.621784
O10   O     O_R   0.123664 0.583477 0.843474 -0.803103
H57   H     H_    0.079577 0.560721 0.775853 0.328291
C106  C     C_2   0.701266 0.767409 0.194650 1.019897
O11   O     O_2   0.629536 0.755338 0.187105 -0.625919
O12   O     O_R   0.785100 0.779364 0.296989 -0.765531
H58   H     H_    0.777784 0.775759 0.358378 0.355059
C107  C     C_2   0.597109 0.155047 0.784159 1.035812
O13   O     O_2   0.553565 0.182111 0.699805 -0.595232
O14   O     O_R   0.596144 0.097910 0.778935 -0.769086
H59   H     H_    0.558763 0.083943 0.701078 0.332454
C108  C     C_2   0.172435 0.283458 0.126995 1.037224
O15   O     O_2   0.096026 0.267244 0.102916 -0.615474
O16   O     O_R   0.227313 0.318293 0.216429 -0.777235
H60   H     H_    0.196719 0.326524 0.254908 0.352370
N37   N     N_R   0.843036 0.245912 0.284969 0.278283
O17   O     O_R   0.894961 0.257772 0.251655 -0.323655
O18   O     O_R   0.876822 0.255802 0.386287 -0.272210
N38   N     N_R   0.272713 0.201776 0.780937 0.269675
O19   O     O_R   0.184417 0.209568 0.697985 -0.295488
O20   O     O_R   0.335984 0.194497 0.762049 -0.337623
N39   N     N_R   0.354450 0.823082 0.137096 0.237628
O21   O     O_R   0.297896 0.835079 0.033446 -0.380787
O22   O     O_R   0.437712 0.845860 0.195332 -0.349959
N40   N     N_R   0.582062 0.890687 0.861397 0.260024
O23   O     O_R   0.505993 0.908174 0.850295 -0.330189
O24   O     O_R   0.650433 0.925037 0.893110 -0.385098
C109  C     C_2   0.696940 0.208207 0.257426 1.079926
O25   O     O_2   0.729006 0.186118 0.345346 -0.594086
O26   O     O_R   0.604683 0.229669 0.195617 -0.765512
H61   H     H_    0.571757 0.224695 0.232276 0.339743
C110  C     C_2   0.403114 0.183618 0.977126 1.018071
O27   O     O_2   0.462801 0.213584 0.985237 -0.596522
O28   O     O_R   0.431489 0.136851 0.042809 -0.800348
H62   H     H_    0.503168 0.132385 0.093987 0.337330
C111  C     C_2   0.363259 0.782290 0.295464 1.051051
O29   O     O_2   0.406975 0.822513 0.349396 -0.631071
O30   O     O_R   0.339463 0.741835 0.340597 -0.756626
H63   H     H_    0.361191 0.751025 0.417394 0.356208
C112  C     C_2   0.566560 0.842096 0.707079 1.032606
O31   O     O_2   0.555597 0.887032 0.665559 -0.601117
O32   O     O_R   0.563435 0.794937 0.652737 -0.765511
H64   H     H_    0.552844 0.803421 0.580757 0.356824
N41   N     N_R   0.560673 0.400157 0.338465 0.220257
O33   O     O_R   0.503497 0.371590 0.348511 -0.394448
O34   O     O_R   0.649497 0.385509 0.393371 -0.357268
N42   N     N_R   0.507383 0.399629 0.708161 0.208292
O35   O     O_R   0.575846 0.378112 0.707977 -0.369754
O36   O     O_R   0.425480 0.375414 0.655861 -0.367829
N43   N     N_R   0.065527 0.902974 0.348771 0.225510
O37   O     O_R   0.074579 0.893334 0.438980 -0.342819
O38   O     O_R   0.089903 0.864926 0.310057 -0.320209
N44   N     N_R   0.992069 0.901724 0.691259 0.212449
O39   O     O_R   0.049522 0.881522 0.671034 -0.339473
O40   O     O_R   0.910778 0.878299 0.650203 -0.381554

loop_
_geom_bond_atom_site_label_1
_geom_bond_atom_site_label_2
_geom_bond_distance
_ccdc_geom_bond_type
C11   C43   1.377060 A    
C6    C38   1.383733 A    
C61   C65   1.417005 A    
C10   C42   1.384818 A    
C23   H15   1.074883 S    
N33   O2    1.299583 A    
N33   O1    1.300845 A    
C70   H34   1.084121 S    
C47   C56   1.451060 S    
C9    N41   1.427252 S    
C4    N4    1.331066 A    
C1    N33   1.427445 S    
N26   Ni5   1.885594 S    
C31   N31   1.336045 A    
N34   O4    1.299082 A    
C4    N36   1.434075 S    
O30   H63   1.013930 S    
C40   C64   1.409894 S    
N1    Ni1   1.880929 S    
C97   C98   1.396304 A    
C30   C34   1.396058 A    
C71   H35   1.083080 S    
C39   C63   1.482002 S    
C7    N7    1.339209 A    
C111  O29   1.221151 D    
C28   C40   1.376259 A    
C84   N40   1.472522 S    
C76   C80   1.399152 A    
C1    N1    1.328296 A    
C45   C54   1.437898 S    
C16   H8    1.078424 S    
N17   Ni5   1.881280 S    
C19   C43   1.350690 A    
C78   C82   1.513094 S    
C103  H55   1.111648 S    
C59   C63   1.393394 A    
C18   C42   1.381988 A    
C98   H46   1.083210 S    
C112  O31   1.223166 D    
C25   H17   1.075593 S    
C60   C64   1.395310 A    
N25   Ni6   1.879322 S    
N5    N25   1.384478 A    
N20   Ni8   1.875641 S    
N12   Ni3   1.882610 S    
C101  H53   1.111833 S    
O26   H61   1.013906 S    
C26   N26   1.335221 A    
C58   C80   1.397085 A    
C23   C47   1.380879 A    
C89   C102  1.495919 S    
N18   Ni6   1.875641 S    
C25   N25   1.343364 A    
N8    N28   1.384476 A    
C3    C35   1.399242 A    
C109  O25   1.223176 D    
C18   H10   1.081223 S    
C2    C34   1.380695 A    
C73   C77   1.415941 A    
C5    H1    1.073499 S    
C38   C62   1.470653 S    
C19   N19   1.321366 A    
C86   H38   1.112205 S    
C7    H3    1.061719 S    
C64   C68   1.404710 A    
N3    N31   1.384477 A    
N31   Ni4   1.846453 S    
O14   H59   1.013967 S    
C13   H5    1.078258 S    
C21   C45   1.374430 A    
C23   N23   1.339036 A    
C104  H56   1.112309 S    
C60   C78   1.357247 A    
N39   O21   1.301205 A    
C83   C85   1.512960 S    
C82   C110  1.513716 S    
C75   C79   1.397070 A    
C26   H18   1.077621 S    
C87   H43   1.112494 S    
C90   C94   1.381434 A    
C31   C35   1.388157 A    
C101  H49   1.112474 S    
C69   H33   1.077838 S    
C26   C38   1.387865 A    
C48   C55   1.458167 S    
C65   C105  1.483719 S    
C58   C86   1.497808 S    
C25   C37   1.387896 A    
C65   C71   1.410884 A    
C72   C76   1.408630 A    
C29   N29   1.324442 A    
N6    N26   1.384476 A    
N8    Ni8   1.854148 S    
C110  O27   1.221897 D    
C32   N32   1.341316 A    
N3    Ni3   1.880929 S    
C27   C39   1.390407 A    
N39   O22   1.301396 A    
C8    N8    1.312256 A    
C2    N2    1.336675 A    
C21   N21   1.331475 A    
C36   C75   1.442718 S    
C34   C73   1.486705 S    
N4    Ni4   1.874987 S    
N10   Ni1   1.882610 S    
C17   N17   1.333348 A    
N37   O17   1.303053 A    
N11   N19   1.389470 A    
N9    Ni2   1.876897 S    
N24   Ni4   1.853261 S    
N16   Ni7   1.860028 S    
C95   C99   1.401247 A    
C11   N11   1.345183 A    
C105  O10   1.398102 S    
N2    Ni2   1.874987 S    
N40   O24   1.301509 A    
C111  O30   1.399567 S    
C51   H27   1.078695 S    
C14   H6    1.082014 S    
C81   N37   1.470349 S    
N35   O5    1.300564 A    
C8    H4    1.081833 S    
N43   O37   1.300928 A    
C2    N34   1.412738 S    
C83   C111  1.516730 S    
N42   O36   1.300728 A    
C6    H2    1.081895 S    
C82   N38   1.475798 S    
C32   H24   1.075222 S    
C57   C79   1.361264 A    
N32   Ni3   1.832528 S    
C97   H45   1.083027 S    
C20   C44   1.374388 A    
C92   C103  1.493172 S    
C91   C95   1.389690 A    
C82   C88   1.528797 S    
C22   N22   1.338657 A    
C3    N3    1.337740 A    
C10   N42   1.429650 S    
C106  O11   1.223644 D    
C105  O9    1.223273 D    
C103  H51   1.112414 S    
C79   C83   1.521076 S    
N19   Ni7   1.881280 S    
C52   C56   1.342524 D    
C51   C55   1.336823 D    
C100  H48   1.084218 S    
C109  O26   1.395488 S    
C15   C47   1.374238 A    
C84   C112  1.514625 S    
C32   C36   1.375922 A    
C87   H39   1.103270 S    
O10   H57   1.013027 S    
C60   C88   1.498500 S    
C99   C100  1.376478 A    
C107  O13   1.223283 D    
C68   C108  1.488519 S    
C99   H47   1.083641 S    
C9    C41   1.371135 A    
C30   H22   1.071696 S    
O16   H60   1.013921 S    
C86   H42   1.112179 S    
C59   C77   1.373904 A    
C28   H20   1.081148 S    
C29   C33   1.368797 A    
C14   C46   1.365705 A    
N41   O33   1.300616 A    
C16   C48   1.374682 A    
C108  O15   1.223086 D    
N27   Ni8   1.879322 S    
C13   C45   1.375054 A    
C50   C54   1.343215 D    
C28   N28   1.333467 A    
C67   C69   1.409762 A    
C42   C93   1.419101 S    
C81   C87   1.530679 S    
C24   C48   1.387955 A    
N13   Ni6   1.873711 S    
C94   C98   1.402870 A    
C46   C53   1.449242 S    
N44   O40   1.300840 A    
C66   C106  1.482910 S    
C57   C61   1.394467 A    
C88   H40   1.111095 S    
C5    N5    1.318727 A    
N15   Ni8   1.873711 S    
C18   N18   1.333904 A    
N36   O7    1.298021 A    
C19   H11   1.081677 S    
N36   O8    1.301640 A    
C110  O28   1.398435 S    
C4    C36   1.367911 A    
C10   N10   1.324510 A    
C17   C41   1.365587 A    
C88   H44   1.111526 S    
N30   Ni1   1.832528 S    
C27   N27   1.333280 A    
N22   Ni2   1.853261 S    
N23   Ni3   1.839628 S    
O32   H64   1.013810 S    
C5    C37   1.372473 A    
C91   C104  1.492804 S    
C96   C100  1.394329 A    
N21   Ni1   1.839628 S    
N14   Ni5   1.860028 S    
C102  H54   1.112349 S    
C112  O32   1.399025 S    
C49   C50   1.456342 S    
C22   H14   1.070006 S    
C49   C53   1.334856 D    
C7    C39   1.395743 A    
C103  C104  1.518612 S    
O12   H58   1.013922 S    
C9    N9    1.326681 A    
N40   O23   1.301789 A    
C33   C74   1.413346 S    
C1    C33   1.374486 A    
C71   C75   1.407139 A    
C52   H28   1.085287 S    
C12   N44   1.429415 S    
N38   O20   1.302200 A    
C12   C44   1.386660 A    
C83   N39   1.474738 S    
C22   C46   1.377496 A    
N29   Ni2   1.846453 S    
C12   N12   1.328949 A    
C68   C70   1.390320 A    
N42   O35   1.300999 A    
C21   H13   1.067789 S    
C11   N43   1.437115 S    
C62   C66   1.412482 A    
N13   N21   1.389717 A    
O28   H62   1.013809 S    
C56   H32   1.084367 S    
C20   N20   1.324099 A    
C80   C84   1.507849 S    
N7    Ni7   1.840205 S    
C106  O12   1.398601 S    
N15   N23   1.389717 A    
C69   C73   1.419676 A    
C37   C61   1.448742 S    
N2    N30   1.384476 A    
C107  O14   1.399357 S    
C63   C67   1.415372 A    
C3    N35   1.438630 S    
C70   C74   1.410966 A    
N10   N18   1.389587 A    
N1    N29   1.384477 A    
C43   C96   1.402602 S    
N37   O18   1.302195 A    
C20   H12   1.080173 S    
N43   O38   1.294814 A    
C81   C109  1.514870 S    
C31   H23   1.068415 S    
N12   N20   1.389587 A    
C30   N30   1.343087 A    
C24   N24   1.346314 A    
C35   C76   1.469130 S    
N5    Ni5   1.840205 S    
N11   Ni4   1.876897 S    
C6    N6    1.335667 A    
N28   Ni7   1.885594 S    
C93   C97   1.400929 A    
N16   N24   1.389834 A    
C57   C85   1.500853 S    
C15   H7    1.081572 S    
N7    N27   1.384478 A    
N38   O19   1.302551 A    
C108  O16   1.399113 S    
C15   N15   1.337890 A    
C67   C107  1.484244 S    
C91   C92   1.370557 A    
C27   H19   1.071795 S    
C16   N16   1.337555 A    
C77   C81   1.526915 S    
C101  C102  1.514418 S    
C58   C62   1.399490 A    
C29   H21   1.076170 S    
N9    N17   1.389470 A    
C85   H41   1.112900 S    
N44   O39   1.300900 A    
C102  H50   1.110624 S    
C90   C101  1.494767 S    
C89   C90   1.354169 A    
C41   C94   1.410064 S    
C50   H26   1.086382 S    
C24   H16   1.073936 S    
C92   C96   1.391093 A    
C49   H25   1.084200 S    
N34   O3    1.300854 A    
C104  H52   1.111974 S    
N6    Ni6   1.854148 S    
C59   C87   1.485045 S    
C74   C78   1.389098 A    
C13   N13   1.337751 A    
N35   O6    1.300074 A    
C17   H9    1.081927 S    
C8    C40   1.358384 A    
C66   C72   1.398992 A    
C54   H30   1.085456 S    
C14   N14   1.332874 A    
N4    N32   1.384476 A    
C89   C93   1.389200 A    
N41   O34   1.299056 A    
C44   C95   1.408405 S    
C53   H29   1.087453 S    
C85   H37   1.113493 S    
C51   C52   1.466643 S    
C84   C86   1.519300 S    
N14   N22   1.389834 A    
C72   H36   1.079116 S    
C55   H31   1.085970 S    
