data_mof_unit_23226.cif
_audit_creation_date              2012-12-10T18:02:12-0500
_audit_creation_method            fapswitch 2.2
_symmetry_space_group_name_H-M    P1
_symmetry_Int_Tables_number       1
_space_group_crystal_system       triclinic
_cell_length_a                    10.820706
_cell_length_b                    9.498082
_cell_length_c                    23.52469
_cell_angle_alpha                 89.999937
_cell_angle_beta                  90.369656
_cell_angle_gamma                 90.0
_cell_volume                      2417.72211184

loop_
_atom_site_label
_atom_site_type_symbol
_atom_type_description
_atom_site_fract_x
_atom_site_fract_y
_atom_site_fract_z
_atom_type_partial_charge
C1    C     C_R   0.262012 0.500007 0.500013 0.813397
C2    C     C_R   0.737988 0.500007 0.499987 0.813394
C3    C     C_R   0.581560 0.611052 0.242181 -0.199272
C4    C     C_R   0.418434 0.611055 0.757818 -0.199286
C5    C     C_R   0.582875 0.601621 0.301613 0.334742
C6    C     C_R   0.417119 0.601621 0.698386 0.334748
C7    C     C_R   0.505840 0.502810 0.328766 -0.211519
C8    C     C_R   0.494156 0.502809 0.671233 -0.211514
C9    C     C_R   0.430967 0.411365 0.296367 0.339624
C10   C     C_R   0.569024 0.411362 0.703633 0.339628
C11   C     C_R   0.430963 0.422951 0.236958 -0.197089
C12   C     C_R   0.569026 0.422948 0.763042 -0.197081
C13   C     C_R   0.505438 0.522578 0.209539 0.227346
C14   C     C_R   0.494555 0.522580 0.790461 0.227349
C15   C     C_R   0.063888 0.372012 0.500008 -0.175058
C16   C     C_R   0.936110 0.628039 0.499962 -0.175115
C17   C     C_R   0.936112 0.372012 0.499989 -0.175059
C18   C     C_R   0.063890 0.628039 0.500041 -0.175116
C19   C     C_R   0.871786 0.500023 0.499966 -0.001084
C20   C     C_R   0.128214 0.500023 0.500034 -0.001082
C21   C     C_R   0.408134 0.074438 0.473140 -0.042061
C22   C     C_R   0.591792 0.925561 0.526914 -0.046174
C23   C     C_R   0.591866 0.074438 0.526860 -0.042075
C24   C     C_R   0.408208 0.925561 0.473086 -0.046198
C25   C     C_R   0.501216 0.500216 0.391066 0.912783
C26   C     C_R   0.498783 0.500216 0.608934 0.912784
C27   C     C_R   0.606533 0.544387 0.880092 0.541040
C28   C     C_R   0.393460 0.544388 0.119907 0.541040
C29   C     C_R   0.386240 0.526752 0.880949 0.543852
C30   C     C_R   0.613752 0.526746 0.119050 0.543852
C31   C     C_R   0.385649 0.535364 0.940492 -0.020387
C32   C     C_R   0.614343 0.535359 0.059507 -0.020387
C33   C     C_R   0.499075 0.539787 0.970005 -0.017146
C34   C     C_R   0.500918 0.539786 0.029995 -0.017146
C35   C     C_R   0.610677 0.542814 0.939699 -0.020167
C36   C     C_R   0.389315 0.542817 0.060300 -0.020167
C37   C     C_R   0.274620 0.537310 0.971148 -0.161293
C38   C     C_R   0.725372 0.537302 0.028851 -0.161293
C39   C     C_R   0.276444 0.543162 0.030412 -0.161460
C40   C     C_R   0.723548 0.543155 0.969587 -0.161460
Cu1   Cu    Cu3+1 0.500000 0.640660 0.500000 0.948060
Cu2   Cu    Cu3+1 0.500000 0.359340 0.500000 0.955657
H1    H     H_    0.186013 0.535020 0.949484 0.188808
H2    H     H_    0.813979 0.535009 0.050515 0.188808
H3    H     H_    0.189183 0.545138 0.052700 0.189240
H4    H     H_    0.810809 0.545129 0.947299 0.189240
H5    H     H_    0.641473 0.685860 0.221277 0.176121
H6    H     H_    0.358523 0.685864 0.778722 0.176115
H7    H     H_    0.370922 0.355437 0.212021 0.177267
H8    H     H_    0.629063 0.355429 0.787980 0.177268
H9    H     H_    0.111993 0.271968 0.500003 0.139751
H10   H     H_    0.888006 0.728080 0.499921 0.137542
H11   H     H_    0.888007 0.271968 0.499992 0.139754
H12   H     H_    0.111994 0.728080 0.500084 0.137542
H13   H     H_    0.334642 0.130542 0.451628 0.131904
H14   H     H_    0.665416 0.869489 0.548386 0.122324
H15   H     H_    0.665357 0.130542 0.548373 0.131908
H16   H     H_    0.334584 0.869489 0.451614 0.122332
N1    N     N_R   0.495644 0.532528 0.851700 -0.442520
N2    N     N_R   0.504348 0.532526 0.148300 -0.442520
N3    N     N_R   0.500000 0.852070 0.500000 -0.156272
N4    N     N_R   0.500000 0.147930 0.500000 -0.161444
O1    O     O_R   0.319640 0.618740 0.500000 -0.600602
O2    O     O_R   0.680360 0.381260 0.500000 -0.592894
O3    O     O_R   0.680360 0.618740 0.500000 -0.600596
O4    O     O_R   0.319640 0.381260 0.500000 -0.592894
O5    O     O_R   0.499960 0.618810 0.417880 -0.575959
O6    O     O_R   0.500040 0.381190 0.582120 -0.569149
O7    O     O_R   0.500040 0.618810 0.582120 -0.575955
O8    O     O_R   0.499960 0.381190 0.417880 -0.569145
O9    O     O_2   0.712653 0.558321 0.850792 -0.535285
O10   O     O_2   0.287340 0.558326 0.149208 -0.535286
O11   O     O_2   0.278311 0.509958 0.852701 -0.535390
O12   O     O_2   0.721681 0.509947 0.147298 -0.535389
O13   O     O_3   0.671505 0.673280 0.333080 -0.589475
C41   C     C_3   0.646218 0.819100 0.332863 0.087255
H17   H     H_    0.550283 0.839973 0.347424 0.144283
H18   H     H_    0.658906 0.864180 0.289637 0.130193
C42   C     C_3   0.736397 0.891575 0.373758 -0.316987
H19   H     H_    0.726985 0.844930 0.416852 0.236387
H20   H     H_    0.832599 0.873637 0.359120 0.224251
C43   C     C_3   0.712630 0.049633 0.377360 -0.913081
H21   H     H_    0.720014 0.098861 0.334686 0.258126
H22   H     H_    0.781840 0.098918 0.406188 0.256348
H23   H     H_    0.619318 0.069627 0.394724 0.261668
O14   O     O_3   0.328487 0.673272 0.666918 -0.589476
C44   C     C_3   0.353753 0.819096 0.667139 0.087244
H24   H     H_    0.449697 0.839990 0.652595 0.144274
H25   H     H_    0.341022 0.864170 0.710364 0.130209
C45   C     C_3   0.263598 0.891557 0.626230 -0.317001
H26   H     H_    0.273050 0.844913 0.583137 0.236404
H27   H     H_    0.167387 0.873601 0.640852 0.224250
C46   C     C_3   0.287345 0.049619 0.622632 -0.913089
H28   H     H_    0.279936 0.098844 0.665305 0.258131
H29   H     H_    0.218143 0.098892 0.593797 0.256346
H30   H     H_    0.380663 0.069629 0.605276 0.261666
O15   O     O_3   0.344597 0.326631 0.322952 -0.592388
C47   C     C_3   0.371869 0.182745 0.313790 0.064698
H31   H     H_    0.439790 0.147538 0.346357 0.154709
H32   H     H_    0.410916 0.160506 0.270970 0.124625
C48   C     C_3   0.252910 0.097403 0.319979 -0.325027
H33   H     H_    0.211924 0.117258 0.362426 0.213508
H34   H     H_    0.185328 0.131852 0.287019 0.238753
C49   C     C_3   0.276383 0.939865 0.313250 -0.923201
H35   H     H_    0.318315 0.917237 0.271247 0.267357
H36   H     H_    0.187569 0.881902 0.316330 0.271472
H37   H     H_    0.338965 0.901851 0.347425 0.237417
O16   O     O_3   0.655388 0.326618 0.677050 -0.592388
C50   C     C_3   0.628097 0.182735 0.686208 0.064685
H38   H     H_    0.560201 0.147535 0.653629 0.154720
H39   H     H_    0.589011 0.160500 0.729021 0.124620
C51   C     C_3   0.747056 0.097380 0.680040 -0.325033
H40   H     H_    0.788078 0.117231 0.637600 0.213520
H41   H     H_    0.814612 0.131822 0.713012 0.238752
C52   C     C_3   0.723564 0.939844 0.686765 -0.923203
H42   H     H_    0.681579 0.917223 0.728757 0.267343
H43   H     H_    0.812379 0.881875 0.683708 0.271486
H44   H     H_    0.661022 0.901834 0.652573 0.237423

loop_
_geom_bond_atom_site_label_1
_geom_bond_atom_site_label_2
_ccdc_geom_bond_type
C38   C40   A    
C44   H24   S    
C8    C10   A    
C5    O13   S    
C48   H33   S    
C17   H11   S    
C8    C26   S    
Cu1   Cu2   S    
C10   O16   S    
C25   O5    A    
C41   C42   S    
Cu1   N3    S    
C2    O3    A    
C49   H36   S    
O15   C47   S    
C21   H13   S    
Cu1   O5    S    
C13   N2    S    
C40   H4    S    
C14   N1    S    
C24   N3    A    
C6    C8    A    
C41   H18   S    
C50   H39   S    
C30   O12   S    
C29   O11   S    
C52   H42   S    
Cu2   O8    S    
O16   C50   S    
C23   H15   S    
C51   H40   S    
C33   C35   A    
C23   N4    A    
C29   N1    A    
C12   H8    S    
C52   H43   S    
C30   N2    A    
C31   C33   A    
C32   C38   A    
Cu2   N4    S    
C18   C20   A    
C3    C13   A    
C39   H3    S    
C46   H29   S    
Cu2   O6    S    
C28   O10   S    
C1    O1    A    
C51   H41   S    
C49   H35   S    
C2    O2    A    
C1    O4    A    
C28   N2    A    
C15   C20   A    
C37   C39   A    
C41   H17   S    
C4    C6    A    
C50   C51   S    
C5    C7    A    
O14   C44   S    
C22   H14   S    
C27   C35   A    
C31   C37   A    
C32   C34   A    
C37   H1    S    
O13   C41   S    
C38   H2    S    
C11   H7    S    
C45   H27   S    
C15   H9    S    
C52   H44   S    
C33   C34   A    
C46   H28   S    
C9    C11   A    
C21   N4    A    
C10   C12   A    
C24   H16   S    
C12   C14   A    
C47   H31   S    
C46   H30   S    
C43   H22   S    
C44   H25   S    
C21   C24   A    
Cu1   O1    S    
C43   H23   S    
Cu2   O2    S    
C27   O9    S    
C45   C46   S    
Cu1   O7    S    
C4    H6    S    
C15   C17   A    
C1    C20   S    
C9    O15   S    
C2    C19   S    
C36   C39   A    
C16   H10   S    
C3    C5    A    
C6    O14   S    
C42   C43   S    
Cu1   O3    S    
C42   H20   S    
C48   C49   S    
C47   C48   S    
C47   H32   S    
C7    C25   S    
C48   H34   S    
C26   O6    A    
C35   C40   A    
C29   C31   A    
C27   N1    A    
C50   H38   S    
C22   N3    A    
C30   C32   A    
C11   C13   A    
C45   H26   S    
C16   C19   A    
C3    H5    S    
C17   C19   A    
C34   C36   A    
C49   H37   S    
C4    C14   A    
C18   H12   S    
C42   H19   S    
C7    C9    A    
C28   C36   A    
C16   C18   A    
C43   H21   S    
C44   C45   S    
Cu2   O4    S    
C26   O7    A    
C22   C23   A    
C25   O8    A    
C51   C52   S    
