data_mof_unit_41845.cif
_audit_creation_date              2012-12-11T16:19:54-0500
_audit_creation_method            fapswitch 2.2
_symmetry_space_group_name_H-M    P1
_symmetry_Int_Tables_number       1
_space_group_crystal_system       triclinic
_cell_length_a                    13.53603
_cell_length_b                    14.023097
_cell_length_c                    30.037328
_cell_angle_alpha                 97.52178
_cell_angle_beta                  90.089823
_cell_angle_gamma                 118.800274
_cell_volume                      4939.61583377

loop_
_atom_site_label
_atom_site_type_symbol
_atom_type_description
_atom_site_fract_x
_atom_site_fract_y
_atom_site_fract_z
_atom_type_partial_charge
C1    C     C_R   0.720108 0.098509 0.568815 0.558575
C2    C     C_R   0.372396 0.725460 0.687251 0.036349
C3    C     C_R   0.277649 0.719526 0.665592 -0.125550
C4    C     C_R   0.277142 0.730875 0.620109 -0.125592
C5    C     C_R   0.280438 0.708439 0.844130 -0.163663
C6    C     C_R   0.256927 0.674661 0.886491 0.010966
C7    C     C_R   0.405281 0.623443 0.881099 -0.155826
C8    C     C_R   0.432999 0.665069 0.840527 -0.132045
C9    C     C_R   0.366307 0.701419 0.820785 0.012602
C10   C     C_1   0.374954 0.716649 0.774352 -0.056322
C11   C     C_1   0.375817 0.722301 0.734737 -0.045851
C12   C     C_R   0.385003 0.791576 0.552451 0.541531
C13   C     C_R   0.313021 0.621599 0.903382 0.034250
C14   C     C_3   0.359154 0.049593 0.723196 -0.205220
C15   C     C_3   0.223860 0.122204 0.712590 0.168945
C16   C     C_3   0.213710 0.135800 0.764394 -0.211601
C17   C     C_1   0.299570 0.193561 0.878315 -0.024376
C18   C     C_3   0.344044 0.139181 0.703314 0.052831
C19   C     C_3   0.342312 0.056108 0.774721 0.172342
C20   C     C_3   0.322684 0.155451 0.790623 0.052399
C21   C     C_3   0.424360 0.261672 0.778808 -0.210424
C22   C     C_3   0.434967 0.253314 0.727494 -0.212531
C23   C     C_R   0.399359 0.117218 0.569957 0.536560
C24   C     C_1   0.310299 0.170645 0.839259 -0.054472
C25   C     C_1   0.359220 0.132889 0.655000 -0.055721
C26   C     C_1   0.374136 0.128318 0.615615 -0.026486
C27   C     C_3   0.738607 0.184315 0.729401 -0.228571
C28   C     C_3   0.943745 0.275083 0.713292 -0.175484
C29   C     C_3   0.974899 0.299730 0.764920 0.185210
C30   C     C_1   0.949853 0.227264 0.873891 -0.008415
C31   C     C_3   0.827997 0.170162 0.701285 0.033127
C32   C     C_3   0.769814 0.196920 0.780419 -0.256012
C33   C     C_3   0.886232 0.202426 0.787513 0.084308
C34   C     C_R   0.719130 0.094904 0.442289 0.584453
C35   C     C_3   0.877179 0.092790 0.764235 -0.204686
C36   C     C_3   0.834638 0.070047 0.714301 -0.221176
C37   C     C_1   0.918765 0.217099 0.835353 -0.041766
C38   C     C_1   0.797454 0.151396 0.653140 -0.078873
C39   C     C_1   0.767802 0.130938 0.613898 -0.016740
C40   C     C_3   0.413751 0.808091 0.269636 -0.045864
C41   C     C_3   0.229230 0.628401 0.269776 -0.197036
C42   C     C_3   0.221797 0.611691 0.217719 -0.216521
C43   C     C_1   0.310278 0.609162 0.110614 -0.006645
C44   C     C_3   0.354387 0.695985 0.288690 0.064193
C45   C     C_R   0.382637 0.785107 0.424780 0.549792
C46   C     C_3   0.404726 0.787076 0.217070 -0.184037
C47   C     C_3   0.341381 0.661923 0.199929 0.044187
C48   C     C_3   0.406374 0.608915 0.219368 -0.215792
C49   C     C_3   0.414580 0.629429 0.271650 -0.239038
C50   C     C_1   0.329736 0.638848 0.150556 -0.069375
C51   C     C_1   0.361061 0.714870 0.338165 -0.071190
C52   C     C_1   0.368376 0.739809 0.378341 -0.011424
C53   C     C_R   0.360692 0.134675 0.399986 -0.025324
C54   C     C_R   0.444953 0.217831 0.378659 -0.137160
C55   C     C_R   0.430773 0.220491 0.333282 -0.137183
C56   C     C_R   0.395995 0.115243 0.443031 0.518294
C57   C     C_R   0.331847 0.141318 0.308457 0.014793
C58   C     C_R   0.242396 0.064759 0.329592 -0.038691
C59   C     C_R   0.254712 0.061366 0.375785 0.006544
C60   C     C_R   0.234735 0.086633 0.146537 -0.138226
C61   C     C_R   0.226166 0.110811 0.103925 -0.177523
C62   C     C_R   0.420772 0.259832 0.114579 0.274908
C63   C     C_R   0.428442 0.238106 0.158794 0.017438
C64   C     C_R   0.332668 0.152727 0.174652 -0.044694
C65   C     C_1   0.327601 0.141196 0.221292 -0.030582
C66   C     C_1   0.325913 0.138083 0.260914 -0.003868
C67   C     C_R   0.371916 0.748867 0.595806 0.020334
C68   C     C_R   0.315922 0.201581 0.088579 -0.008143
C69   C     C_R   0.765810 0.125270 0.398768 0.042765
C70   C     C_R   0.737986 0.038370 0.363246 -0.147368
C71   C     C_R   0.746830 0.057279 0.318834 -0.130368
C72   C     C_R   0.783860 0.163148 0.309058 0.022847
C73   C     C_R   0.819871 0.252009 0.343810 -0.140442
C74   C     C_R   0.813225 0.234708 0.388984 0.005640
C75   C     C_R   0.833112 0.285961 0.158111 0.272668
C76   C     C_R   0.871273 0.295743 0.114621 -0.130979
C77   C     C_R   0.856723 0.115130 0.108483 -0.143848
C78   C     C_R   0.463785 0.747543 0.617269 -0.129251
C79   C     C_R   0.817708 0.104685 0.151285 -0.168879
C80   C     C_R   0.809516 0.191052 0.176680 0.041483
C81   C     C_1   0.794241 0.186986 0.223631 0.001406
C82   C     C_1   0.788146 0.179270 0.262947 -0.027413
C83   C     C_R   0.888781 0.212726 0.090558 -0.027888
C84   C     C_R   0.284100 0.232036 0.922831 0.535700
C85   C     C_R   0.268573 0.551866 0.939500 0.558824
C86   C     C_R   0.992203 0.240869 0.918920 0.555104
C87   C     C_R   0.292762 0.242011 0.048955 0.552681
C88   C     C_R   0.275184 0.558597 0.064836 0.555621
C89   C     C_R   0.464033 0.736222 0.662779 -0.119742
C90   C     C_R   0.952727 0.232256 0.049984 0.551194
Cr1   Cr    Cr6+3 0.583400 0.162540 0.509180 1.059014
Cr2   Cr    Cr6+3 0.584070 0.916690 0.495550 1.023787
Cr3   Cr    Cr6+3 0.332550 0.920810 0.495240 1.029839
Cr4   Cr    Cr6+3 0.086700 0.177000 0.983690 1.015484
Cr5   Cr    Cr6+3 0.336880 0.419130 0.994740 1.033380
Cr6   Cr    Cr6+3 0.084850 0.422220 0.995960 1.045836
H1    H     H_    0.297154 0.966365 0.705581 0.070351
H2    H     H_    0.159520 0.035740 0.698692 0.078243
H3    H     H_    0.139620 0.060496 0.773005 0.057835
H4    H     H_    0.196618 0.204747 0.775393 0.200759
H5    H     H_    0.520960 0.266315 0.720370 0.105328
H6    H     H_    0.426164 0.319924 0.714627 0.149112
H7    H     H_    0.503949 0.275410 0.796078 0.163454
H8    H     H_    0.444746 0.060325 0.717040 0.155101
H9    H     H_    0.230255 0.738689 0.828978 0.072363
H10   H     H_    0.414809 0.334686 0.791105 0.093859
H11   H     H_    0.771801 0.272540 0.798357 0.110551
H12   H     H_    0.734418 0.258178 0.722168 0.115016
H13   H     H_    0.009349 0.263746 0.694932 0.160406
H14   H     H_    0.941675 0.346786 0.702143 0.069112
H15   H     H_    0.969199 0.374563 0.779247 0.081479
H16   H     H_    0.749425 0.995707 0.708640 0.120198
H17   H     H_    0.891199 0.050825 0.692926 0.106219
H18   H     H_    0.817898 0.023272 0.781419 0.098843
H19   H     H_    0.205800 0.710059 0.684251 0.097716
H20   H     H_    0.653312 0.111788 0.720103 0.135958
H21   H     H_    0.703668 0.125882 0.794680 0.146453
H22   H     H_    0.961145 0.096689 0.766619 0.156191
H23   H     H_    0.360345 0.826493 0.202529 0.161922
H24   H     H_    0.188946 0.546642 0.281494 0.103569
H25   H     H_    0.180394 0.669837 0.282545 0.176399
H26   H     H_    0.174631 0.650860 0.205315 0.136448
H27   H     H_    0.173355 0.522077 0.204667 0.101545
H28   H     H_    0.505055 0.675013 0.284604 0.119942
H29   H     H_    0.205348 0.732054 0.604784 0.133219
H30   H     H_    0.375362 0.549118 0.284551 0.127206
H31   H     H_    0.492881 0.643989 0.207259 0.136762
H32   H     H_    0.505166 0.849969 0.281131 0.062953
H33   H     H_    0.491142 0.824611 0.204823 0.092524
H34   H     H_    0.362391 0.518715 0.207298 0.137601
H35   H     H_    0.145841 0.062515 0.084273 0.148820
H36   H     H_    0.161662 0.020752 0.158741 0.138160
H37   H     H_    0.164242 0.006787 0.309833 0.177101
H38   H     H_    0.526145 0.276558 0.396078 0.145582
H39   H     H_    0.538368 0.761779 0.599696 0.130646
H40   H     H_    0.499477 0.281339 0.317066 0.114885
H41   H     H_    0.892278 0.370237 0.100783 0.126813
H42   H     H_    0.853065 0.334603 0.335654 0.097618
H43   H     H_    0.701339 0.953971 0.369447 0.139100
H44   H     H_    0.800035 0.031484 0.165608 0.118388
H45   H     H_    0.867969 0.049177 0.090600 0.145116
H46   H     H_    0.500277 0.659990 0.822733 0.108789
H47   H     H_    0.721167 0.988469 0.291973 0.108492
H48   H     H_    0.451998 0.586482 0.893493 0.132544
H49   H     H_    0.537280 0.739752 0.679221 0.102892
H50   H     H_    0.263329 0.979243 0.779413 0.070735
O1    O     O_R   0.494060 0.188820 0.559230 -0.506984
O2    O     O_R   0.480140 0.824500 0.445020 -0.501846
O3    O     O_R   0.308480 0.808690 0.440220 -0.489753
O4    O     O_R   0.340970 0.020670 0.455610 -0.508007
O5    O     O_3   0.500010 0.000010 0.499990 -0.256696
O6    O     O_R   0.969690 0.151000 0.934080 -0.507124
O7    O     O_R   0.187530 0.180840 0.938210 -0.508421
O8    O     O_R   0.358160 0.327300 0.941250 -0.514365
O9    O     O_R   0.323950 0.507710 0.953980 -0.516665
O10   O     O_R   0.170530 0.527770 0.952070 -0.468065
O11   O     O_R   0.987720 0.318450 0.945940 -0.497365
O12   O     O_R   0.678470 0.153390 0.554100 -0.482446
O13   O     O_R   0.976400 0.159230 0.032040 -0.511719
O14   O     O_R   0.193740 0.188470 0.029020 -0.511656
O15   O     O_R   0.364860 0.335530 0.039220 -0.459561
O16   O     O_R   0.330170 0.515340 0.044800 -0.487411
O17   O     O_R   0.177230 0.536000 0.050040 -0.498994
O18   O     O_R   0.993930 0.326080 0.036750 -0.501260
O19   O     O_3   0.169480 0.339450 0.991460 -0.270090
O20   O     O_R   0.697870 0.003940 0.549410 -0.514619
O21   O     O_R   0.480980 0.827230 0.535590 -0.503699
O22   O     O_R   0.309390 0.811640 0.537920 -0.513006
O23   O     O_R   0.341810 0.023400 0.546180 -0.502446
O24   O     O_R   0.493150 0.185870 0.461540 -0.514750
O25   O     O_R   0.677630 0.150660 0.463530 -0.459256
O26   O     O_R   0.696960 0.000990 0.451710 -0.522546
C91   C     C_2   0.174526 0.697889 0.911303 0.234944
H51   H     H_    0.107413 0.701025 0.892823 0.081545
O27   O     O_2   0.185063 0.721113 0.952274 -0.483957
O28   O     O_3   0.205385 0.201010 0.694090 -0.565516
C92   C     C_3   0.139797 0.156828 0.652404 -0.011921
H52   H     H_    0.049215 0.120039 0.658503 0.128237
H53   H     H_    0.153046 0.092224 0.632079 0.120178
C93   C     C_3   0.169747 0.249104 0.624614 -0.366192
H54   H     H_    0.259423 0.283860 0.616435 0.157643
H55   H     H_    0.114801 0.216642 0.592766 0.109553
H56   H     H_    0.157691 0.315654 0.643677 0.152490
O29   O     O_3   0.440167 0.069118 0.798421 -0.567414
C94   C     C_3   0.410141 0.989315 0.827366 -0.014907
H57   H     H_    0.364168 0.905590 0.807656 0.136983
H58   H     H_    0.356252 0.999426 0.853451 0.135718
C95   C     C_3   0.516003 0.001421 0.850852 -0.361572
H59   H     H_    0.569876 0.087600 0.867491 0.160378
H60   H     H_    0.491947 0.945769 0.876718 0.124671
H61   H     H_    0.564323 0.978298 0.826026 0.143034
O30   O     O_3   0.084980 0.315115 0.773748 -0.567133
C96   C     C_3   0.167227 0.423853 0.769344 -0.008880
H62   H     H_    0.164826 0.482861 0.797329 0.141229
H63   H     H_    0.154201 0.446715 0.736552 0.124209
C97   C     C_3   0.283494 0.433023 0.771550 -0.370107
H64   H     H_    0.286257 0.370989 0.745799 0.207165
H65   H     H_    0.348318 0.513875 0.763897 0.108766
H66   H     H_    0.303978 0.421467 0.805556 0.144123
C98   C     C_2   0.371216 0.886673 0.287600 0.208821
H67   H     H_    0.422158 0.955624 0.313606 0.114145
O31   O     O_2   0.279308 0.872570 0.274129 -0.522963
C99   C     C_2   0.156563 0.982498 0.397791 0.247781
H68   H     H_    0.154669 0.993265 0.434121 0.119105
O32   O     O_2   0.075166 0.905439 0.375479 -0.506815
C100  C     C_2   0.533798 0.306059 0.188986 0.257184
H69   H     H_    0.545744 0.278268 0.219592 0.100786
O33   O     O_2   0.607796 0.394463 0.180579 -0.445831
O34   O     O_3   0.513258 0.342657 0.098111 -0.494237
C101  C     C_3   0.573296 0.295543 0.074534 0.026542
H70   H     H_    0.521575 0.237940 0.044035 0.114856
H71   H     H_    0.597886 0.250602 0.096298 0.146190
C102  C     C_3   0.680954 0.386461 0.059603 -0.335485
H72   H     H_    0.735227 0.444097 0.089479 0.189664
H73   H     H_    0.728389 0.350185 0.040704 0.088761
H74   H     H_    0.659795 0.432568 0.037445 0.159064
O35   O     O_3   0.816081 0.367311 0.182058 -0.527546
C103  C     C_3   0.921576 0.456352 0.199874 -0.015142
H75   H     H_    0.974339 0.496096 0.172416 0.120740
H76   H     H_    0.967823 0.428839 0.221101 0.119209
C104  C     C_3   0.902235 0.541697 0.229398 -0.337958
H77   H     H_    0.850915 0.504806 0.257524 0.165790
H78   H     H_    0.984607 0.612552 0.243587 0.104102
H79   H     H_    0.857045 0.571677 0.209169 0.191885
C105  C     C_2   0.857454 0.332790 0.424322 0.227926
H80   H     H_    0.870294 0.410683 0.415823 0.098302
O36   O     O_2   0.884741 0.329419 0.462603 -0.496013

loop_
_geom_bond_atom_site_label_1
_geom_bond_atom_site_label_2
_ccdc_geom_bond_type
C44   C49   S    
C15   C18   S    
C99   H68   S    
Cr4   O13   S    
Cr2   O2    S    
C45   O2    A    
C41   C42   S    
C14   C18   S    
Cr3   O3    S    
C35   C36   S    
C61   C68   A    
C57   C66   S    
C60   H36   S    
C12   O21   A    
Cr1   O1    S    
C81   C82   T    
C53   C59   A    
C7    C8    A    
C5    H9    S    
C76   H41   S    
C87   O14   A    
C40   C46   S    
C49   H30   S    
C99   O32   D    
Cr3   O23   S    
C104  H77   S    
C22   H5    S    
C15   O28   S    
C103  C104  S    
C95   H61   S    
C43   C88   S    
C1    O20   A    
C1    O12   A    
Cr2   O26   S    
C74   C105  S    
C86   O6    A    
Cr5   O15   S    
C85   O9    A    
C5    C6    A    
C67   C78   A    
C100  O33   D    
C94   H58   S    
C73   H42   S    
C75   O35   S    
Cr4   O6    S    
C15   C16   S    
C54   H38   S    
C29   C33   S    
O29   C94   S    
C76   C83   A    
C35   H18   S    
C95   H60   S    
C73   C74   A    
C23   C26   S    
C41   H25   S    
C90   O13   A    
Cr1   O12   S    
C7    C13   A    
C33   C35   S    
C46   C47   S    
C84   O8    A    
C19   C20   S    
Cr3   O22   S    
C8    C9    A    
C92   H53   S    
C63   C100  S    
C36   H16   S    
C70   C71   A    
O30   C96   S    
C30   C86   S    
C75   C80   A    
C32   H21   S    
C31   C36   S    
Cr5   O9    S    
C21   H10   S    
C93   H56   S    
C72   C73   A    
C27   H20   S    
C92   C93   S    
C91   O27   D    
Cr6   O11   S    
C70   H43   S    
C78   C89   A    
C21   C22   S    
C48   H34   S    
Cr3   O4    S    
C18   C25   S    
C46   H33   S    
C97   H66   S    
C2    C11   S    
Cr5   O19   S    
Cr4   O19   S    
C7    H48   S    
C93   H55   S    
C42   H27   S    
C105  H80   S    
C47   C50   S    
C57   C58   A    
C102  H73   S    
C58   H37   S    
C38   C39   T    
C12   C67   S    
C29   O30   S    
C17   C24   T    
C27   C31   S    
C51   C52   T    
C19   H50   S    
C78   H39   S    
C20   C24   S    
C97   H65   S    
Cr5   O16   S    
C61   H35   S    
C100  H69   S    
C80   C81   S    
C94   C95   S    
C40   C98   S    
C45   C52   S    
C28   H14   S    
C25   C26   T    
C91   H51   S    
C49   H28   S    
C23   O1    A    
C32   H11   S    
C33   C37   S    
C14   H8    S    
C63   C64   A    
C30   C37   T    
C90   O18   A    
C60   C61   A    
C85   O10   A    
C2    C89   A    
C89   H49   S    
C75   C76   A    
C101  C102  S    
C5    C9    A    
C62   C63   A    
C59   C99   S    
C84   O7    A    
C103  H76   S    
C47   C48   S    
C23   O23   A    
C102  H72   S    
C16   C20   S    
C96   C97   S    
Cr2   O5    S    
C96   H63   S    
O34   C101  S    
C77   C79   A    
C69   C74   A    
C16   H3    S    
C34   C69   S    
C4    H29   S    
C44   C51   S    
O28   C92   S    
C87   O15   A    
C92   H52   S    
C101  H71   S    
C55   C57   A    
C41   C44   S    
Cr3   O5    S    
C65   C66   T    
C15   H2    S    
C56   O4    A    
C3    C4    A    
C28   C29   S    
C34   O26   A    
C93   H54   S    
C42   H26   S    
C14   H1    S    
C71   H47   S    
C9    C10   S    
C53   C56   S    
C83   C90   S    
C102  H74   S    
C54   C55   A    
C48   C49   S    
Cr4   O14   S    
Cr1   O24   S    
C56   O24   A    
C27   C32   S    
C18   C22   S    
C14   C19   S    
C29   H15   S    
C28   C31   S    
C16   H4    S    
C97   H64   S    
C19   O29   S    
C12   O22   A    
C4    C67   A    
Cr6   O17   S    
C43   C50   T    
C53   C54   A    
C6    C91   S    
C62   C68   A    
C28   H13   S    
C104  H79   S    
C88   O17   A    
C94   H57   S    
C22   H6    S    
C31   C38   S    
Cr1   O25   S    
C60   C64   A    
Cr5   O8    S    
C32   C33   S    
C17   C84   S    
C2    C3    A    
C58   C59   A    
C71   C72   A    
C104  H78   S    
Cr6   O18   S    
C3    H19   S    
C64   C65   S    
C6    C13   A    
Cr1   O5    S    
Cr2   O21   S    
C103  H75   S    
Cr6   O10   S    
C27   H12   S    
C98   H67   S    
Cr4   O7    S    
C88   O16   A    
O35   C103  S    
C105  O36   D    
C62   O34   S    
C46   H23   S    
C79   H44   S    
C45   O3    A    
C42   C47   S    
C101  H70   S    
C41   H24   S    
C36   H17   S    
C69   C70   A    
C86   O11   A    
C77   H45   S    
C10   C11   T    
C1    C39   S    
C79   C80   A    
C21   H7    S    
Cr2   O20   S    
C40   C44   S    
C20   C21   S    
C98   O31   D    
C96   H62   S    
C13   C85   S    
C68   C87   S    
C77   C83   A    
Cr6   O19   S    
C95   H59   S    
C35   H22   S    
C8    H46   S    
C72   C82   S    
C34   O25   A    
C55   H40   S    
C48   H31   S    
C40   H32   S    
