data_mof_unit_54286.cif
_audit_creation_date              2012-12-11T15:38:18-0500
_audit_creation_method            fapswitch 2.2
_symmetry_space_group_name_H-M    P1
_symmetry_Int_Tables_number       1
_space_group_crystal_system       triclinic
_cell_length_a                    20.511815
_cell_length_b                    7.448311
_cell_length_c                    18.94407
_cell_angle_alpha                 90.000359
_cell_angle_beta                  107.246604
_cell_angle_gamma                 90.000351
_cell_volume                      2764.11187123

loop_
_atom_site_label
_atom_site_type_symbol
_atom_type_description
_atom_site_fract_x
_atom_site_fract_y
_atom_site_fract_z
_atom_type_partial_charge
O1    O     O_R   0.422200 0.494350 0.423850 -0.528445
O2    O     O_R   0.577800 0.994350 0.576150 -0.528444
O3    O     O_R   0.555980 0.819730 0.435060 -0.528172
O4    O     O_R   0.444020 0.319730 0.564940 -0.528171
C1    C     C_R   0.573228 0.654264 0.418947 0.709193
C2    C     C_R   0.426772 0.154263 0.581052 0.709192
O5    O     O_R   0.421370 0.823790 0.415230 -0.532393
O6    O     O_R   0.578630 0.323790 0.584770 -0.532394
O7    O     O_R   0.442220 0.998380 0.556180 -0.537019
O8    O     O_R   0.557780 0.498380 0.443820 -0.537019
C3    C     C_R   0.396634 0.655505 0.394689 0.694865
C4    C     C_R   0.603366 0.155506 0.605311 0.694864
O9    O     O_3   0.507000 0.662200 0.546270 -0.379423
O10   O     O_3   0.493000 0.162200 0.453730 -0.379422
V1    V     V_3+5 0.498700 0.935390 0.491420 1.434116
V2    V     V_3+5 0.501300 0.435390 0.508580 1.434117
C5    C     C_1   0.666511 0.145597 0.667523 -0.177778
C6    C     C_1   0.333489 0.645594 0.332478 -0.177776
C7    C     C_1   0.719435 0.134692 0.718940 0.005000
C8    C     C_1   0.280565 0.634690 0.281060 0.005001
C9    C     C_1   0.781902 0.120794 0.779417 0.004600
C10   C     C_1   0.218098 0.620796 0.220583 0.004601
C11   C     C_1   0.834719 0.109852 0.830958 -0.183285
C12   C     C_1   0.165280 0.609854 0.169042 -0.183286
C13   C     C_3   0.289241 0.245248 0.844248 0.527681
C14   C     C_3   0.710758 0.745252 0.155750 0.527676
C15   C     C_3   0.267647 0.910006 0.822503 0.747015
C16   C     C_3   0.732352 0.410012 0.177498 0.747018
C17   C     C_3   0.310601 0.910856 0.761819 0.465644
C18   C     C_3   0.689399 0.410866 0.238182 0.465628
C19   C     C_1   0.387585 0.137712 0.633008 -0.175627
C20   C     C_1   0.612415 0.637717 0.366991 -0.175639
C21   C     C_3   0.228542 0.100793 0.814484 -0.305574
C22   C     C_3   0.771457 0.600801 0.185516 -0.305594
C23   C     C_3   0.336575 0.246007 0.790897 0.601001
C24   C     C_3   0.663423 0.746013 0.209100 0.601005
C25   C     C_3   0.309550 0.105803 0.725903 -0.245030
C26   C     C_3   0.690448 0.605817 0.274095 -0.245035
C27   C     C_3   0.234533 0.155319 0.677155 0.594388
C28   C     C_3   0.765466 0.655346 0.322842 0.594430
C29   C     C_3   0.187015 0.159498 0.730857 0.580323
C30   C     C_3   0.812984 0.659513 0.269143 0.580360
C31   C     C_1   0.354336 0.118453 0.675933 0.076147
C32   C     C_1   0.645664 0.618464 0.324066 0.076148
C33   C     C_1   0.177614 0.110540 0.858419 0.019373
C34   C     C_1   0.822385 0.610544 0.141581 0.019365
C35   C     C_1   0.132278 0.112408 0.888626 -0.234899
C36   C     C_1   0.867722 0.612409 0.111374 -0.234902
O11   O     O_R   0.942270 0.764870 0.056240 -0.529835
O12   O     O_R   0.057730 0.264870 0.943760 -0.529835
O13   O     O_R   0.078640 0.431230 0.084780 -0.526365
O14   O     O_R   0.921360 0.931230 0.915220 -0.526366
C37   C     C_R   0.102474 0.599851 0.106386 0.702476
C38   C     C_R   0.897526 0.099849 0.893614 0.702476
O15   O     O_R   0.944030 0.435400 0.064960 -0.541414
O16   O     O_R   0.055970 0.935400 0.935040 -0.541412
O17   O     O_R   0.922190 0.260960 0.923840 -0.525758
O18   O     O_R   0.077810 0.760960 0.076160 -0.525758
C39   C     C_R   0.921982 0.603671 0.075492 0.718192
C40   C     C_R   0.078018 0.103671 0.924508 0.718193
O19   O     O_3   0.993030 0.592980 0.953770 -0.384576
O20   O     O_3   0.006970 0.092980 0.046230 -0.384576
V3    V     V_3+5 0.001290 0.319740 0.008580 1.380477
V4    V     V_3+5 0.998710 0.819740 0.991420 1.380479
O21   O     O_3   0.403365 0.197723 0.832793 -0.625472
H1    H     H_    0.435357 0.228888 0.804300 0.313201
O22   O     O_3   0.596633 0.697719 0.167204 -0.625475
H2    H     H_    0.564641 0.728882 0.195696 0.313202
O23   O     O_3   0.262983 0.416526 0.846746 -0.626767
H3    H     H_    0.236300 0.408098 0.881946 0.291830
O24   O     O_3   0.737016 0.916530 0.153251 -0.626772
H4    H     H_    0.763701 0.908101 0.118053 0.291832
O25   O     O_3   0.341664 0.418499 0.761601 -0.622909
H5    H     H_    0.296486 0.476252 0.746014 0.389795
O26   O     O_3   0.658331 0.918507 0.238394 -0.622911
H6    H     H_    0.703506 0.976275 0.253976 0.389801
O27   O     O_3   0.212577 0.025651 0.621287 -0.671523
H7    H     H_    0.234514 0.048860 0.581961 0.296098
O28   O     O_3   0.787421 0.525693 0.378715 -0.671528
H8    H     H_    0.765487 0.548919 0.418042 0.296088
O29   O     O_3   0.330481 0.209695 0.917127 -0.623311
H9    H     H_    0.301007 0.204628 0.950268 0.291731
O30   O     O_3   0.669519 0.709694 0.082871 -0.623311
H10   H     H_    0.698993 0.704625 0.049730 0.291732
O31   O     O_3   0.221395 0.760259 0.804744 -0.551651
C41   C     C_3   0.177103 0.722271 0.849382 0.194611
H11   H     H_    0.152494 0.592495 0.829684 0.132197
H12   H     H_    0.131457 0.807202 0.835399 0.086664
C42   C     C_3   0.209503 0.708637 0.934465 -0.331878
H13   H     H_    0.260919 0.648841 0.949316 0.233425
H14   H     H_    0.214033 0.843304 0.960375 0.209706
C43   C     C_3   0.168150 0.590956 0.970603 -0.818963
H15   H     H_    0.115542 0.642030 0.958245 0.274045
H16   H     H_    0.193233 0.590486 0.031043 0.213305
H17   H     H_    0.166432 0.450933 0.950944 0.218024
O32   O     O_3   0.778604 0.260267 0.195257 -0.551653
C44   C     C_3   0.822897 0.222278 0.150620 0.194619
H18   H     H_    0.847505 0.092504 0.170319 0.132199
H19   H     H_    0.868543 0.307210 0.164605 0.086662
C45   C     C_3   0.790498 0.208641 0.065537 -0.331874
H20   H     H_    0.739082 0.148843 0.050686 0.233427
H21   H     H_    0.785968 0.343305 0.039627 0.209706
C46   C     C_3   0.831852 0.090958 0.029400 -0.818969
H22   H     H_    0.884459 0.142039 0.041755 0.274048
H23   H     H_    0.806768 0.090476 0.968960 0.213305
H24   H     H_    0.833573 0.950939 0.049062 0.218025
O33   O     O_3   0.304884 0.890751 0.899956 -0.584347
C47   C     C_3   0.375555 0.852008 0.929660 0.133302
H25   H     H_    0.388986 0.885741 0.989377 0.123077
H26   H     H_    0.409086 0.943095 0.910623 0.226856
C48   C     C_3   0.392450 0.652547 0.926502 -0.249811
H27   H     H_    0.370714 0.574538 0.964078 0.191514
H28   H     H_    0.370102 0.601983 0.870094 0.308488
C49   C     C_3   0.469385 0.620973 0.949434 -0.789852
H29   H     H_    0.493083 0.697505 0.913087 0.249293
H30   H     H_    0.479686 0.475999 0.944474 0.249476
H31   H     H_    0.492886 0.662726 0.007729 0.236372
O34   O     O_3   0.695115 0.390751 0.100045 -0.584345
C50   C     C_3   0.624444 0.352009 0.070340 0.133306
H32   H     H_    0.611013 0.385743 0.010624 0.123081
H33   H     H_    0.590913 0.443093 0.089378 0.226857
C51   C     C_3   0.607549 0.152548 0.073496 -0.249816
H34   H     H_    0.629287 0.074539 0.035922 0.191519
H35   H     H_    0.629894 0.101986 0.129904 0.308481
C52   C     C_3   0.530614 0.120972 0.050558 -0.789860
H36   H     H_    0.506913 0.197509 0.086902 0.249292
H37   H     H_    0.520311 0.975999 0.055519 0.249474
H38   H     H_    0.507116 0.162718 0.992263 0.236373
O35   O     O_3   0.378751 0.855713 0.792477 -0.646366
H39   H     H_    0.400431 0.835212 0.752819 0.302502
O36   O     O_3   0.621249 0.355715 0.207524 -0.646364
H40   H     H_    0.599569 0.335216 0.247182 0.302505
O37   O     O_3   0.279697 0.785364 0.706105 -0.638702
H41   H     H_    0.304710 0.783010 0.668575 0.302187
O38   O     O_3   0.720304 0.285382 0.293898 -0.638714
H42   H     H_    0.695290 0.283032 0.331428 0.302185
O39   O     O_3   0.170712 0.341159 0.736171 -0.634857
H43   H     H_    0.131413 0.349563 0.756528 0.306801
O40   O     O_3   0.829288 0.841173 0.263826 -0.634840
H44   H     H_    0.868587 0.849571 0.243468 0.306795
O41   O     O_3   0.120825 0.076235 0.701656 -0.574104
C53   C     C_3   0.113964 0.895111 0.678498 0.152294
H45   H     H_    0.092114 0.821163 0.716600 0.080304
H46   H     H_    0.161584 0.827063 0.680772 0.210228
C54   C     C_3   0.060440 0.877818 0.601689 -0.309669
H47   H     H_    0.022762 0.773446 0.604478 0.145163
H48   H     H_    0.029499 0.001726 0.587198 0.194307
C55   C     C_3   0.090687 0.830053 0.538859 -0.751326
H49   H     H_    0.141005 0.765169 0.558919 0.238085
H50   H     H_    0.096659 0.950631 0.507176 0.219481
H51   H     H_    0.056533 0.736100 0.499640 0.209479
O42   O     O_3   0.879172 0.576250 0.298347 -0.574109
C56   C     C_3   0.886031 0.395125 0.321505 0.152270
H52   H     H_    0.907881 0.321173 0.283405 0.080302
H53   H     H_    0.838409 0.327084 0.319228 0.210225
C57   C     C_3   0.939552 0.377832 0.398315 -0.309611
H54   H     H_    0.977236 0.273478 0.395528 0.145162
H55   H     H_    0.970486 0.501750 0.412812 0.194302
C58   C     C_3   0.909302 0.330039 0.461141 -0.751330
H56   H     H_    0.858961 0.265274 0.441075 0.238102
H57   H     H_    0.903376 0.450587 0.492865 0.219447
H58   H     H_    0.943427 0.235964 0.500324 0.209484
O43   O     O_3   0.240669 0.322233 0.641478 -0.575366
C59   C     C_3   0.183271 0.428065 0.603439 0.191497
H59   H     H_    0.197701 0.494339 0.557732 0.085353
H60   H     H_    0.179566 0.540545 0.640081 0.184645
C60   C     C_3   0.113390 0.337313 0.568224 -0.311203
H61   H     H_    0.098429 0.356452 0.507268 0.134464
H62   H     H_    0.115450 0.193180 0.576124 0.262105
C61   C     C_3   0.056271 0.412521 0.596899 -0.750197
H63   H     H_    0.075072 0.499345 0.646086 0.232330
H64   H     H_    0.026842 0.302607 0.612411 0.233602
H65   H     H_    0.020739 0.492970 0.553237 0.215528
O44   O     O_3   0.759328 0.822270 0.358511 -0.575364
C62   C     C_3   0.816725 0.928098 0.396560 0.191547
H66   H     H_    0.802292 0.994354 0.442268 0.085320
H67   H     H_    0.820430 0.040593 0.359924 0.184633
C63   C     C_3   0.886611 0.837360 0.431772 -0.311138
H68   H     H_    0.901585 0.856585 0.492725 0.134423
H69   H     H_    0.884549 0.693209 0.423910 0.262047
C64   C     C_3   0.943719 0.912525 0.403067 -0.750150
H70   H     H_    0.924912 0.999408 0.353901 0.232315
H71   H     H_    0.973115 0.802591 0.387516 0.233647
H72   H     H_    0.979284 0.992913 0.446726 0.215485

loop_
_geom_bond_atom_site_label_1
_geom_bond_atom_site_label_2
_ccdc_geom_bond_type
C17   O37   S    
C3    C6    S    
C25   C31   S    
C14   O30   S    
C14   O24   S    
C37   O18   A    
O15   C39   A    
C15   C17   S    
C21   C33   S    
O25   H5    S    
O43   C59   S    
O1    C3    A    
C55   H51   S    
O2    C4    A    
C54   C55   S    
C2    O7    A    
C49   H29   S    
C24   O22   S    
O38   H42   S    
C60   H62   S    
C64   H70   S    
C15   C21   S    
O5    C3    A    
C19   C31   T    
C11   C38   S    
O30   H10   S    
C27   O27   S    
C10   C12   T    
C59   H59   S    
C7    C9    S    
C55   H50   S    
O31   C41   S    
C41   H12   S    
C50   C51   S    
C61   H63   S    
C23   O21   S    
C18   O36   S    
C44   H18   S    
C47   H25   S    
C18   C26   S    
C15   O31   S    
O44   C62   S    
C45   H20   S    
C44   H19   S    
C35   C40   S    
O34   C50   S    
C57   H55   S    
C14   C22   S    
C17   O35   S    
C48   H27   S    
C47   H26   S    
C22   C30   S    
O15   V3    S    
C4    C5    S    
C52   H38   S    
O33   C47   S    
C58   H57   S    
O17   V3    S    
C22   C34   S    
C42   H14   S    
C30   O42   S    
C29   O39   S    
C1    C20   S    
C28   C30   S    
C2    C19   S    
C16   C22   S    
O6    V2    S    
O11   V4    S    
C13   O29   S    
O12   V3    S    
C53   C54   S    
C45   H21   S    
C54   H48   S    
O14   C38   A    
C26   C32   S    
C54   H47   S    
C62   C63   S    
C33   C35   T    
O18   V4    S    
O40   H44   S    
C34   C36   T    
C58   H58   S    
O22   H2    S    
C63   C64   S    
C63   H68   S    
O13   V3    S    
C55   H49   S    
C62   H67   S    
O14   V4    S    
C64   H71   S    
C60   H61   S    
C41   H11   S    
C12   C37   S    
O27   H7    S    
C43   H17   S    
O29   H9    S    
O16   C40   A    
C42   C43   S    
C46   H24   S    
O4    V2    S    
O19   V4    S    
O26   H6    S    
C29   O41   S    
O20   V3    S    
C24   O26   S    
C49   H30   S    
C58   H56   S    
C15   O33   S    
O6    C4    A    
O32   C44   S    
C43   H16   S    
C20   C32   T    
C28   O28   S    
C48   H28   S    
O1    V2    S    
C56   C57   S    
O2    V1    S    
C50   H33   S    
C13   C23   S    
C60   C61   S    
C14   C24   S    
C8    C10   S    
C18   O38   S    
C23   O25   S    
C9    C11   T    
O37   H41   S    
C46   H23   S    
C53   H46   S    
O4    C2    A    
C56   H53   S    
C27   O43   S    
O36   H40   S    
C44   C45   S    
O3    V1    S    
C36   C39   S    
O35   H39   S    
C64   H72   S    
C57   H54   S    
C23   C25   S    
C30   O40   S    
O10   V1    S    
C57   C58   S    
O3    C1    A    
C41   C42   S    
C63   H69   S    
C50   H32   S    
C51   H34   S    
O39   H43   S    
O11   C39   A    
C47   C48   S    
C16   O32   S    
O12   C40   A    
C51   C52   S    
C59   H60   S    
O7    V1    S    
C21   C29   S    
C1    O8    A    
C25   C27   S    
C62   H66   S    
O8    V2    S    
O41   C53   S    
C24   C26   S    
C28   O44   S    
O16   V4    S    
C52   H36   S    
C26   C28   S    
O5    V1    S    
C43   H15   S    
C5    C7    T    
C16   C18   S    
C48   C49   S    
C6    C8    T    
C59   C60   S    
C45   C46   S    
O23   H3    S    
C49   H31   S    
O28   H8    S    
O24   H4    S    
C13   O23   S    
O42   C56   S    
C27   C29   S    
O21   H1    S    
O9    V2    S    
C17   C25   S    
C46   H22   S    
C52   H37   S    
C53   H45   S    
C16   O34   S    
C61   H64   S    
O13   C37   A    
C42   H13   S    
C51   H35   S    
C61   H65   S    
C13   C21   S    
C56   H52   S    
C38   O17   A    
