data_mof_unit_11971.cif
_audit_creation_date              2012-12-10T17:21:14-0500
_audit_creation_method            fapswitch 2.2
_symmetry_space_group_name_H-M    P1
_symmetry_Int_Tables_number       1
_space_group_crystal_system       triclinic
_cell_length_a                    10.122821
_cell_length_b                    10.682243
_cell_length_c                    10.640309
_cell_angle_alpha                 89.634816
_cell_angle_beta                  95.59865
_cell_angle_gamma                 80.520334
_cell_volume                      1129.16268403

loop_
_atom_site_label
_atom_site_type_symbol
_atom_type_description
_atom_site_fract_x
_atom_site_fract_y
_atom_site_fract_z
_atom_type_partial_charge
C1    C     C_R   0.443116 0.511925 0.265839 0.817034
C2    C     C_2   0.921395 0.521430 0.498274 -0.037602
C3    C     C_R   0.502594 0.257129 0.505169 0.855871
C4    C     C_R   0.556880 0.496944 0.734226 0.835888
C5    C     C_R   0.500331 0.742174 0.500681 0.827110
C6    C     C_3   0.657137 0.043841 0.493780 0.295486
C7    C     C_3   0.647604 0.901579 0.486438 -0.430482
C8    C     C_3   0.458647 0.074842 0.634607 -0.185119
C9    C     C_3   0.408586 0.087861 0.395440 -0.398168
C10   C     C_3   0.507632 0.119348 0.507943 -0.134784
C11   C     C_2   0.321377 0.142408 0.665217 0.955009
C12   C     C_3   0.503071 0.877719 0.503589 0.054886
C13   C     C_2   0.713222 0.082097 0.371728 0.908954
C14   C     C_2   0.120502 0.630409 0.654340 1.065743
C15   C     C_3   0.461666 0.929775 0.632153 -0.402430
C16   C     C_3   0.404797 0.945162 0.394397 -0.349514
C17   C     C_2   0.409110 0.534107 0.131024 0.270580
C18   C     C_2   0.500854 0.578040 0.067288 -0.225471
C19   C     C_2   0.590080 0.515394 0.868478 0.272841
C20   C     C_2   0.491857 0.579343 0.931048 -0.215861
C21   C     C_2   0.069667 0.495558 0.486525 -0.129432
H1    H     H_    0.300400 0.929081 0.404537 0.233226
H2    H     H_    0.530320 0.095832 0.714130 0.211301
H3    H     H_    0.534149 0.882523 0.710251 0.203555
H4    H     H_    0.305281 0.140454 0.400924 0.243244
H5    H     H_    0.436206 0.120063 0.303813 0.225425
H6    H     H_    0.432846 0.906216 0.302052 0.190769
H7    H     H_    0.827249 0.986511 0.821866 0.408611
H8    H     H_    0.119527 0.171704 0.625324 0.388641
H9    H     H_    0.943817 0.360092 0.888516 0.404305
H10   H     H_    0.091222 0.411305 0.115482 0.403468
H11   H     H_    0.704746 0.077913 0.181221 0.381396
H12   H     H_    0.362037 0.905106 0.648829 0.235697
H13   H     H_    0.012568 0.661777 0.804228 0.389063
H14   H     H_    0.395008 0.620238 0.881881 0.217994
H15   H     H_    0.593018 0.600114 0.116652 0.212392
H16   H     H_    0.877155 0.603279 0.548380 0.182172
H17   H     H_    0.105602 0.428519 0.416286 0.194577
H18   H     H_    0.886468 0.370436 0.401803 0.229820
H19   H     H_    0.677227 0.861234 0.394996 0.190188
H20   H     H_    0.720199 0.844741 0.558861 0.230853
N1    N     N_2   0.157300 0.551950 0.551120 -0.166178
N2    N     N_2   0.842730 0.448000 0.448950 -0.160863
O1    O     O_R   0.568940 0.489540 0.307530 -0.611375
O2    O     O_2   0.775470 0.195393 0.668662 -0.230346
O3    O     O_3   0.755393 0.973562 0.755492 -0.595740
O4    O     O_2   0.314221 0.215393 0.753323 -0.551047
O5    O     O_R   0.203445 0.119852 0.595611 -0.763163
O6    O     O_2   0.813709 0.559420 0.005045 -0.292305
O7    O     O_2   0.739272 0.356912 0.043524 -0.286947
O8    O     O_3   0.854597 0.383545 0.839608 -0.456253
O9    O     O_2   0.162302 0.624354 0.024109 -0.282000
O10   O     O_2   0.275161 0.425445 0.941565 -0.233232
O11   O     O_3   0.180823 0.417464 0.159222 -0.553036
O12   O     O_R   0.348880 0.522880 0.340350 -0.563865
O13   O     O_2   0.807328 0.141212 0.376699 -0.540338
O14   O     O_R   0.659099 0.047264 0.253494 -0.833826
O15   O     O_2   0.173105 0.724244 0.674807 -0.598018
O16   O     O_R   0.032341 0.596379 0.737084 -0.760464
O17   O     O_R   0.610030 0.298130 0.483570 -0.557499
O18   O     O_R   0.389960 0.331470 0.516390 -0.609019
O19   O     O_R   0.651120 0.477120 0.659650 -0.522806
O20   O     O_R   0.431060 0.510460 0.692470 -0.612637
O21   O     O_R   0.610040 0.668530 0.483610 -0.649044
O22   O     O_R   0.389970 0.701870 0.516430 -0.596814
O23   O     O_2   0.919698 0.010136 0.594737 -0.250027
S1    S     S_3+6 0.780665 0.059991 0.629872 0.023300
S2    S     S_3+6 0.752615 0.453079 0.943776 0.055420
S3    S     S_3+6 0.253416 0.500729 0.058777 0.056524
Zn1   Zn    Zn3+2 0.646940 0.477740 0.478080 1.067218
Zn2   Zn    Zn3+2 0.353060 0.522260 0.521920 1.047142

loop_
_geom_bond_atom_site_label_1
_geom_bond_atom_site_label_2
_ccdc_geom_bond_type
C6    C10   S    
C16   H1    S    
C7    H19   S    
O1    Zn1   S    
C6    C7    S    
O6    S2    D    
O21   Zn1   S    
N2    Zn1   S    
C9    C10   S    
C1    O1    A    
C11   O4    D    
C19   C20   D    
C2    H16   S    
C12   C15   S    
O17   Zn1   S    
C2    N2    D    
C14   N1    S    
C13   O13   D    
O10   S3    D    
C3    O17   A    
O18   Zn2   S    
C16   H6    S    
C7    H20   S    
C17   C18   D    
C1    O12   A    
C9    H4    S    
O3    S1    S    
C3    C10   S    
C15   H3    S    
C6    C13   S    
C17   S3    S    
C14   O16   S    
C20   H14   S    
C4    O20   A    
H7    O3    S    
C11   O5    S    
H13   O16   S    
O11   S3    S    
C18   H15   S    
H11   O14   S    
C2    C21   S    
C8    C11   S    
C8    C10   S    
C6    S1    S    
C9    C16   S    
O20   Zn2   S    
C9    H5    S    
O23   S1    D    
C8    C15   S    
C18   C20   S    
O8    S2    S    
C3    O18   A    
H10   O11   S    
C7    C12   S    
C14   O15   D    
O2    S1    D    
C13   O14   S    
H8    O5    S    
C21   N1    D    
H9    O8    S    
C4    O19   A    
C19   S2    S    
C8    H2    S    
O19   Zn1   S    
C5    C12   S    
C5    O22   A    
N1    Zn2   S    
H18   N2    S    
O9    S3    D    
O7    S2    D    
O22   Zn2   S    
C4    C19   S    
C1    C17   S    
C15   H12   S    
O12   Zn2   S    
C21   H17   S    
C12   C16   S    
C5    O21   A    
