data_mof_unit_43295.cif
_audit_creation_date              2012-10-26T19:15:04-0400
_audit_creation_method            fapswitch 2.2
_symmetry_space_group_name_H-M    P1
_symmetry_Int_Tables_number       1
_space_group_crystal_system       triclinic
_cell_length_a                    10.849577
_cell_length_b                    10.826212
_cell_length_c                    9.54514
_cell_angle_alpha                 89.986859
_cell_angle_beta                  89.72902
_cell_angle_gamma                 90.758528
_cell_volume                      1121.05959702

loop_
_atom_site_label
_atom_site_type_symbol
_atom_type_description
_atom_site_fract_x
_atom_site_fract_y
_atom_site_fract_z
_atom_type_partial_charge
C1    C     C_R   0.502788 0.262325 0.499942 0.540165
C2    C     C_R   0.528267 0.936606 0.623836 0.017982
C3    C     C_3   0.454590 0.929420 0.756258 -0.265182
C4    C     C_R   0.262726 0.499755 0.500139 0.546442
C5    C     C_3   0.456594 0.069532 0.756935 -0.279879
C6    C     C_R   0.543032 0.600483 0.073325 0.158469
C7    C     C_R   0.447009 0.405982 0.074723 -0.016923
C8    C     C_R   0.447555 0.405763 0.926011 -0.021696
C9    C     C_R   0.542613 0.600694 0.925897 0.159026
C10   C     C_3   0.669424 0.655018 0.918977 -0.278879
C11   C     C_3   0.670211 0.653989 0.077908 -0.284129
C12   C     C_R   0.936208 0.453454 0.608990 0.013216
C13   C     C_R   0.502565 0.737723 0.499855 0.547689
C14   C     C_R   0.737231 0.500460 0.499709 0.550242
C15   C     C_R   0.060674 0.451339 0.608338 0.026432
C16   C     C_R   0.130114 0.500902 0.499045 0.000020
C17   C     C_R   0.066104 0.551643 0.384788 -0.165026
C18   C     C_R   0.936675 0.552070 0.384569 -0.165104
C19   C     C_R   0.869762 0.502142 0.498725 0.002794
C20   C     C_3   0.849928 0.265817 0.735651 -0.392098
C21   C     C_3   0.127914 0.253200 0.736922 -0.256857
C22   C     C_3   0.141718 0.196326 0.590446 -0.415494
C23   C     C_3   0.924002 0.387246 0.745790 -0.115924
C24   C     C_3   0.067464 0.382204 0.744035 -0.082882
C25   C     C_R   0.529173 0.063819 0.623896 0.017170
C26   C     C_R   0.516231 0.129425 0.498950 0.005771
C27   C     C_R   0.521794 0.064698 0.371372 -0.165679
C28   C     C_R   0.521593 0.935956 0.371295 -0.166831
C29   C     C_R   0.515580 0.870948 0.498799 0.006465
Cu1   Cu    Cu3+1 0.499990 0.499980 0.640670 0.922226
Cu2   Cu    Cu3+1 0.500010 0.500020 0.359330 0.926217
H1    H     H_    0.115571 0.591606 0.296584 0.133571
H2    H     H_    0.672424 0.747992 0.124666 0.116865
H3    H     H_    0.889694 0.592572 0.296501 0.119923
H4    H     H_    0.888944 0.448358 0.829952 0.118022
H5    H     H_    0.108492 0.440830 0.827958 0.114270
H6    H     H_    0.519589 0.112652 0.271821 0.128410
H7    H     H_    0.519341 0.888076 0.271701 0.129123
H8    H     H_    0.360990 0.888836 0.740292 0.139562
H9    H     H_    0.750165 0.286497 0.729794 0.168392
H10   H     H_    0.874509 0.211351 0.641655 0.141772
H11   H     H_    0.864328 0.209556 0.831232 0.119032
H12   H     H_    0.507068 0.889267 0.844391 0.129198
H13   H     H_    0.055108 0.200613 0.529899 0.153216
H14   H     H_    0.215734 0.245026 0.530926 0.156624
H15   H     H_    0.168074 0.097987 0.600381 0.124227
H16   H     H_    0.221453 0.262920 0.781531 0.127319
H17   H     H_    0.077827 0.187419 0.806549 0.139759
H18   H     H_    0.364193 0.109661 0.742274 0.130474
H19   H     H_    0.511301 0.109623 0.844420 0.126416
H20   H     H_    0.405817 0.328757 0.130416 0.111694
H21   H     H_    0.407932 0.328031 0.870978 0.103487
H22   H     H_    0.737091 0.591300 0.871837 0.146668
H23   H     H_    0.671117 0.749534 0.873858 0.120630
H24   H     H_    0.737902 0.588515 0.121535 0.144561
N1    N     N_R   0.500790 0.500930 0.147930 -0.229064
N2    N     N_R   0.500790 0.500890 0.852020 -0.231060
O1    O     O_R   0.500000 0.319640 0.618810 -0.513455
O2    O     O_R   0.500010 0.319680 0.381230 -0.514148
O3    O     O_R   0.319650 0.499970 0.618810 -0.498493
O4    O     O_R   0.319660 0.500010 0.381230 -0.506291
O5    O     O_R   0.499990 0.680320 0.618770 -0.497799
O6    O     O_R   0.500000 0.680360 0.381190 -0.507286
O7    O     O_R   0.680340 0.499990 0.618770 -0.508440
O8    O     O_R   0.680350 0.500030 0.381190 -0.504920

loop_
_geom_bond_atom_site_label_1
_geom_bond_atom_site_label_2
_ccdc_geom_bond_type
C4    C16   S    
C20   H11   S    
C23   C24   S    
C20   C23   S    
Cu1   O7    S    
Cu2   N1    S    
C9    C10   S    
C8    H21   S    
C23   H4    S    
C13   O6    A    
C12   C15   A    
C28   H7    S    
C21   H17   S    
C14   O7    A    
C4    O3    A    
C6    C9    A    
Cu1   O5    S    
C2    C3    S    
C3    H8    S    
C7    C8    A    
C4    O4    A    
C21   C22   S    
C18   H3    S    
C12   C23   S    
C3    H12   S    
C26   C27   A    
C24   H5    S    
C7    N1    A    
C27   H6    S    
C2    C29   A    
C5    C25   S    
Cu1   O1    S    
C12   C19   A    
C13   C29   S    
C15   C24   S    
C22   H15   S    
C14   O8    A    
C20   H10   S    
C2    C25   A    
C9    N2    A    
C1    O2    A    
Cu1   Cu2   S    
C10   H23   S    
C17   H1    S    
C5    H19   S    
C5    H18   S    
C10   C11   S    
C6    C11   S    
C7    H20   S    
C15   C16   A    
Cu1   N2    S    
Cu2   O6    S    
C11   H2    S    
C22   H14   S    
C11   H24   S    
C17   C18   A    
C18   C19   A    
C21   C24   S    
Cu2   O2    S    
C27   C28   A    
Cu2   O8    S    
C10   H22   S    
Cu2   O4    S    
C28   C29   A    
C3    C5    S    
C25   C26   A    
C1    O1    A    
C20   H9    S    
C14   C19   S    
C1    C26   S    
C8    N2    A    
C22   H13   S    
C13   O5    A    
C6    N1    A    
C16   C17   A    
C21   H16   S    
Cu1   O3    S    
