data_mof_unit_54488.cif
_audit_creation_date              2012-12-10T17:35:01-0500
_audit_creation_method            fapswitch 2.2
_symmetry_space_group_name_H-M    P1
_symmetry_Int_Tables_number       1
_space_group_crystal_system       triclinic
_cell_length_a                    12.330229
_cell_length_b                    13.102417
_cell_length_c                    13.846339
_cell_angle_alpha                 104.713461
_cell_angle_beta                  73.837465
_cell_angle_gamma                 116.817205
_cell_volume                      1895.83245527

loop_
_atom_site_label
_atom_site_type_symbol
_atom_type_description
_atom_site_fract_x
_atom_site_fract_y
_atom_site_fract_z
_atom_type_partial_charge
C1    C     C_R   0.144539 0.714187 0.509409 0.878993
C2    C     C_1   0.979262 0.512759 0.791761 -0.177004
C3    C     C_R   0.734073 0.984212 0.345952 0.396636
C4    C     C_R   0.775319 0.163716 0.462478 -0.143294
C5    C     C_R   0.180274 0.915001 0.585055 -0.346946
C6    C     C_R   0.255574 0.032000 0.603522 0.482567
C7    C     C_R   0.380426 0.074034 0.555327 0.271897
C8    C     C_R   0.432376 0.995354 0.494135 -0.087852
C9    C     C_R   0.349650 0.881179 0.461595 -0.042077
C10   C     C_R   0.562011 0.025960 0.460474 0.066754
C11   C     C_R   0.605486 0.952024 0.381582 -0.006806
C12   C     C_R   0.984753 0.504788 0.686341 0.812423
C13   C     C_R   0.519821 0.850486 0.336941 -0.203974
C14   C     C_R   0.393683 0.816488 0.373997 0.379890
C15   C     C_R   0.649959 0.125875 0.505716 -0.180870
C16   C     C_R   0.817825 0.091232 0.384816 -0.241348
C17   C     C_R   0.225395 0.838570 0.515203 -0.138623
C18   C     C_R   0.648397 0.685540 0.653081 0.364154
C19   C     C_R   0.251524 0.350926 0.364753 0.105742
C20   C     C_R   0.351202 0.319578 0.334263 -0.234928
C21   C     C_R   0.451382 0.377200 0.384156 -0.111782
C22   C     C_R   0.452709 0.466949 0.466296 0.048544
C23   C     C_R   0.855871 0.285824 0.486216 0.812408
C24   C     C_R   0.348310 0.496086 0.494690 0.300304
C25   C     C_R   0.553153 0.528690 0.521160 -0.059575
C26   C     C_R   0.549121 0.620813 0.600471 0.049939
C27   C     C_R   0.445922 0.646871 0.627047 -0.257124
C28   C     C_R   0.347707 0.585241 0.576360 -0.184138
C29   C     C_R   0.657861 0.502835 0.501378 0.084568
C30   C     C_R   0.745770 0.652065 0.631950 -0.012255
C31   C     C_R   0.014574 0.494361 0.313558 0.864321
C32   C     C_1   0.020779 0.489077 0.208301 -0.097607
C33   C     C_2   0.024300 0.478874 0.015251 -0.227600
C34   C     C_2   0.970024 0.533049 0.988421 0.488928
C35   C     C_1   0.974804 0.521588 0.880929 -0.152803
C36   C     C_1   0.023783 0.484374 0.120025 0.098217
Cu1   Cu    Cu3+1 0.899780 0.525060 0.522890 0.966963
Cu2   Cu    Cu3+1 0.100220 0.474940 0.477110 0.967288
H1    H     H_    0.820899 0.698737 0.673552 0.132770
H2    H     H_    0.439606 0.715121 0.688802 0.183246
H3    H     H_    0.668806 0.434692 0.442426 0.151823
H4    H     H_    0.174355 0.305956 0.325364 0.126520
H5    H     H_    0.526338 0.349825 0.356739 0.153175
H6    H     H_    0.350996 0.250595 0.271520 0.156013
H7    H     H_    0.272884 0.610983 0.604558 0.196365
H8    H     H_    0.067593 0.427321 0.958357 0.118655
H9    H     H_    0.915476 0.119540 0.351605 0.183162
H10   H     H_    0.549760 0.798071 0.270589 0.222057
H11   H     H_    0.623181 0.176849 0.574423 0.197039
H12   H     H_    0.085202 0.884062 0.625556 0.168005
N1    N     N_R   0.748810 0.563010 0.557590 -0.212079
N2    N     N_R   0.250540 0.437620 0.443020 -0.201770
O1    O     O_R   0.025040 0.682470 0.528790 -0.585413
O2    O     O_R   0.194310 0.640150 0.490130 -0.575890
O3    O     O_R   0.903380 0.524130 0.659910 -0.576398
O4    O     O_R   0.072660 0.481800 0.621240 -0.592612
O5    O     O_R   0.805690 0.359850 0.509870 -0.556065
O6    O     O_R   0.974960 0.317530 0.471210 -0.593001
O7    O     O_R   0.927340 0.518200 0.378760 -0.576463
O8    O     O_R   0.096620 0.475870 0.340090 -0.548478
O9    O     O_3   0.918452 0.601558 0.063478 -0.588822
C37   C     C_3   0.840190 0.632298 0.029720 0.107918
H13   H     H_    0.770711 0.644902 0.097014 0.199306
H14   H     H_    0.785552 0.562168 0.975109 0.125195
C38   C     C_3   0.913679 0.746842 0.986582 -0.339939
H15   H     H_    0.955438 0.816879 0.047212 0.264932
H16   H     H_    0.990008 0.740843 0.923335 0.208546
C39   C     C_3   0.830508 0.778360 0.947077 -0.846048
H17   H     H_    0.790259 0.710638 0.884566 0.254294
H18   H     H_    0.885569 0.861776 0.917117 0.249075
H19   H     H_    0.754555 0.787452 0.009367 0.290117
Cl1   Cl    Cl    0.297288 0.710194 0.291939 -0.619373
O10   O     O_3   0.648710 0.778283 0.728300 -0.614737
C40   C     C_3   0.693737 0.879367 0.683451 0.035352
H20   H     H_    0.643409 0.932829 0.730367 0.169568
H21   H     H_    0.675851 0.861911 0.604757 0.140746
C41   C     C_3   0.832199 0.949343 0.683944 -0.356125
H22   H     H_    0.847968 0.968777 0.763032 0.222857
H23   H     H_    0.884488 0.897993 0.636359 0.216103
C42   C     C_3   0.881106 0.062524 0.642292 -0.838316
H24   H     H_    0.870213 0.044474 0.561945 0.264554
H25   H     H_    0.980928 0.112062 0.645388 0.291471
H26   H     H_    0.830492 0.116088 0.688237 0.237836
Cl2   Cl    Cl    0.794774 0.896575 0.249080 -0.684999
Cl3   Cl    Cl    0.455902 0.225270 0.555235 -0.664853
O11   O     O_3   0.203229 0.106410 0.663491 -0.583337
C43   C     C_3   0.231990 0.136685 0.761862 0.110613
H27   H     H_    0.237795 0.225787 0.791608 0.186045
H28   H     H_    0.323653 0.139348 0.762452 0.133735
C44   C     C_3   0.129205 0.054755 0.833189 -0.425604
H29   H     H_    0.039115 0.054602 0.833004 0.230325
H30   H     H_    0.123607 0.965413 0.806151 0.210638
C45   C     C_3   0.152942 0.091660 0.941787 -0.876389
H31   H     H_    0.241732 0.090578 0.944138 0.256034
H32   H     H_    0.076957 0.030819 0.991487 0.271893
H33   H     H_    0.156494 0.180021 0.971576 0.256798

loop_
_geom_bond_atom_site_label_1
_geom_bond_atom_site_label_2
_ccdc_geom_bond_type
C2    C35   T    
C24   N2    A    
C23   O6    A    
C43   H27   S    
C45   H31   S    
O10   C40   S    
C19   C20   A    
C18   C26   A    
C30   N1    A    
C2    C12   S    
C7    C8    A    
C41   H22   S    
C26   C27   A    
Cu1   Cu2   S    
C40   H21   S    
C32   C36   T    
C10   C15   A    
C5    C6    A    
Cu1   N1    S    
C5    C17   A    
C33   C36   S    
C34   C35   S    
C31   O7    A    
C1    O1    A    
C37   H14   S    
Cu2   O6    S    
C19   N2    A    
C39   H17   S    
C38   H16   S    
C40   C41   S    
C18   C30   A    
C19   H4    S    
Cu1   O1    S    
C45   H32   S    
C21   H5    S    
C13   C14   A    
C33   H8    S    
C42   H26   S    
C16   H9    S    
C20   H6    S    
C41   H23   S    
C25   C29   A    
C28   H7    S    
C40   H20   S    
C42   H25   S    
C4    C23   S    
O11   C43   S    
C8    C9    A    
C25   C26   A    
C22   C25   A    
C34   O9    S    
C31   O8    A    
C4    C16   A    
C9    C14   A    
C37   H13   S    
C44   H30   S    
C31   C32   S    
Cu2   O2    S    
C27   H2    S    
C38   C39   S    
C33   C34   D    
C12   O4    A    
Cu1   O7    S    
C1    O2    A    
Cu2   O8    S    
C9    C17   A    
C45   H33   S    
C43   H28   S    
C22   C24   A    
C5    H12   S    
C3    Cl2   S    
C44   C45   S    
C29   N1    A    
C41   C42   S    
C23   O5    A    
C37   C38   S    
C29   H3    S    
C14   Cl1   S    
C24   C28   A    
C42   H24   S    
C13   H10   S    
C6    C7    A    
C18   O10   S    
C1    C17   S    
C6    O11   S    
C4    C15   A    
C11   C13   A    
C44   H29   S    
C7    Cl3   S    
C39   H19   S    
Cu2   N2    S    
C30   H1    S    
C15   H11   S    
O9    C37   S    
C12   O3    A    
C3    C11   A    
C10   C11   A    
Cu1   O3    S    
Cu2   O4    S    
C20   C21   A    
C8    C10   A    
C38   H15   S    
C43   C44   S    
C27   C28   A    
C39   H18   S    
C21   C22   A    
Cu1   O5    S    
C3    C16   A    
