data_mof_unit_32894.cif
_audit_creation_date              2012-12-10T18:50:02-0500
_audit_creation_method            fapswitch 2.2
_symmetry_space_group_name_H-M    P1
_symmetry_Int_Tables_number       1
_space_group_crystal_system       triclinic
_cell_length_a                    10.698714
_cell_length_b                    9.901918
_cell_length_c                    10.646919
_cell_angle_alpha                 89.91317
_cell_angle_beta                  91.2992
_cell_angle_gamma                 89.989077
_cell_volume                      1127.61977565

loop_
_atom_site_label
_atom_site_type_symbol
_atom_type_description
_atom_site_fract_x
_atom_site_fract_y
_atom_site_fract_z
_atom_type_partial_charge
C1    C     C_R   0.260081 0.500015 0.499786 0.895470
C2    C     C_R   0.565902 0.928105 0.589517 -0.180704
C3    C     C_R   0.434257 0.929000 0.409605 0.493601
C4    C     C_R   0.434213 0.071278 0.409629 0.478673
C5    C     C_R   0.499144 0.499880 0.257794 0.892737
C6    C     C_R   0.739866 0.499998 0.500162 0.849055
C7    C     C_R   0.498124 0.499580 0.742022 0.961696
C8    C     C_3   0.385806 0.581277 0.070147 -0.547745
C9    C     C_3   0.485053 0.351990 0.072072 -0.440838
C10   C     C_3   0.388804 0.588859 0.925902 0.313656
C11   C     C_3   0.483128 0.350619 0.928862 0.318743
C12   C     C_3   0.623384 0.556366 0.927765 -0.644141
C13   C     C_3   0.626557 0.559187 0.073260 0.839788
C14   C     C_3   0.500011 0.499293 0.121224 -0.085796
C15   C     C_3   0.496920 0.498241 0.878452 -0.018677
C16   C     C_R   0.063195 0.383475 0.462766 -0.169445
C17   C     C_R   0.064867 0.616688 0.536558 -0.158309
C18   C     C_R   0.935092 0.383476 0.462850 -0.167942
C19   C     C_R   0.936770 0.616673 0.536677 -0.168457
C20   C     C_R   0.872402 0.500037 0.499903 -0.021729
C21   C     C_R   0.127557 0.500062 0.499678 -0.003180
C22   C     C_R   0.565878 0.071585 0.589534 -0.168567
H1    H     H_    0.384389 0.685253 0.109258 0.198041
H2    H     H_    0.114533 0.706928 0.566312 0.162281
H3    H     H_    0.885424 0.293252 0.433070 0.169622
H4    H     H_    0.888460 0.706908 0.566521 0.159663
H5    H     H_    0.618659 0.125396 0.661420 0.165719
H6    H     H_    0.618754 0.874043 0.661358 0.165143
H7    H     H_    0.343874 0.775154 0.345606 0.367067
H8    H     H_    0.343694 0.225308 0.345684 0.364229
H9    H     H_    0.213425 0.622701 0.886868 0.332848
H10   H     H_    0.380557 0.192409 0.894333 0.329901
H11   H     H_    0.583645 0.752890 0.076439 0.319669
H12   H     H_    0.563293 0.287048 0.107415 0.201834
H13   H     H_    0.743217 0.498183 0.205921 0.343280
H14   H     H_    0.297814 0.532030 0.100424 0.228139
H15   H     H_    0.397036 0.307040 0.107389 0.242746
H16   H     H_    0.407375 0.695660 0.897972 0.086283
H17   H     H_    0.564391 0.289442 0.897198 0.083551
H18   H     H_    0.638332 0.659571 0.889161 0.182438
H19   H     H_    0.701519 0.493486 0.892497 0.210707
H20   H     H_    0.111501 0.293226 0.432972 0.166742
N1    N     N_R   0.499970 0.857200 0.499970 -0.166218
N2    N     N_R   0.499970 0.142800 0.499970 -0.166227
O1    O     O_R   0.316750 0.614620 0.499990 -0.657473
O2    O     O_3   0.363865 0.134063 0.316981 -0.747730
O3    O     O_3   0.273357 0.547967 0.872753 -0.687958
O4    O     O_3   0.371347 0.291539 0.883277 -0.666352
O5    O     O_3   0.646640 0.692488 0.116853 -0.739193
O6    O     O_3   0.727470 0.478185 0.115597 -0.754891
O7    O     O_R   0.316750 0.385380 0.499990 -0.638732
O8    O     O_R   0.499970 0.614670 0.314790 -0.593531
O9    O     O_R   0.499970 0.385330 0.314790 -0.636887
O10   O     O_R   0.683220 0.614710 0.500010 -0.610537
O11   O     O_R   0.683220 0.385290 0.500010 -0.627086
O12   O     O_R   0.500010 0.614660 0.685200 -0.645417
O13   O     O_R   0.500010 0.385340 0.685200 -0.596123
O14   O     O_3   0.364102 0.866464 0.316853 -0.740976
Zn1   Zn    Zn3+2 0.499980 0.653120 0.500000 0.962430
Zn2   Zn    Zn3+2 0.499980 0.346880 0.500000 0.965109

loop_
_geom_bond_atom_site_label_1
_geom_bond_atom_site_label_2
_ccdc_geom_bond_type
C2    C22   A    
O10   Zn1   S    
C2    H6    S    
C9    C14   S    
C12   C15   S    
C5    O8    A    
C1    C21   S    
C16   C21   A    
O8    Zn1   S    
C1    O7    A    
C6    O11   A    
C19   C20   A    
O12   Zn1   S    
N1    Zn1   S    
C2    N1    A    
C10   H16   S    
C3    N1    A    
H13   O6    S    
C9    H15   S    
C11   O4    S    
H9    O3    S    
O11   Zn2   S    
C12   C13   S    
C11   H17   S    
H10   O4    S    
C1    O1    A    
C5    C14   S    
C12   H19   S    
C18   H3    S    
C22   N2    A    
C7    O12   A    
C6    O10   A    
C13   O5    S    
C5    O9    A    
C17   C19   A    
O9    Zn2   S    
N2    Zn2   S    
C18   C20   A    
C22   H5    S    
C9    C11   S    
C9    H12   S    
C4    O2    S    
C7    O13   A    
C17   H2    S    
H11   O5    S    
C3    C4    A    
C3    O14   S    
C16   H20   S    
C8    H1    S    
C6    C20   S    
H7    O14   S    
C16   C18   A    
C8    H14   S    
C10   O3    S    
C19   H4    S    
O1    Zn1   S    
O13   Zn2   S    
C8    C14   S    
O7    Zn2   S    
C4    N2    A    
C7    C15   S    
C10   C15   S    
C13   C14   S    
C11   C15   S    
H8    O2    S    
C8    C10   S    
C17   C21   A    
C13   O6    S    
C12   H18   S    
