data_mof_unit_53410.cif
_audit_creation_date              2012-12-11T14:17:32-0500
_audit_creation_method            fapswitch 2.2
_symmetry_space_group_name_H-M    P1
_symmetry_Int_Tables_number       1
_space_group_crystal_system       triclinic
_cell_length_a                    6.942904
_cell_length_b                    13.662638
_cell_length_c                    20.441873
_cell_angle_alpha                 101.897756
_cell_angle_beta                  90.984916
_cell_angle_gamma                 90.810732
_cell_volume                      1896.83524803

loop_
_atom_site_label
_atom_site_type_symbol
_atom_type_description
_atom_site_fract_x
_atom_site_fract_y
_atom_site_fract_z
_atom_type_partial_charge
O1    O     O_R   0.506860 0.599390 0.449240 -0.548651
O2    O     O_R   0.180220 0.594600 0.586780 -0.527626
O3    O     O_R   0.004500 0.400610 0.550760 -0.542069
C1    C     C_R   0.351662 0.611976 0.614609 0.709477
O4    O     O_R   0.177490 0.611290 0.451970 -0.540865
O5    O     O_R   0.001750 0.417420 0.414990 -0.530340
C2    C     C_R   0.346251 0.637791 0.435067 0.719741
O6    O     O_R   0.509610 0.582580 0.585010 -0.519611
O7    O     O_3   0.337420 0.436370 0.488020 -0.367016
V1    V     V_3+5 0.064680 0.511800 0.502220 1.636895
O8    O     O_R   0.671710 0.405400 0.413220 -0.518692
C3    C     C_R   0.838871 0.384205 0.386599 0.782339
O9    O     O_R   0.674440 0.388710 0.548030 -0.533290
C4    C     C_R   0.843119 0.362363 0.564914 0.806507
V2    V     V_3+5 0.564010 0.488200 0.497780 1.660680
O10   O     O_3   0.841140 0.563630 0.511980 -0.373242
C5    C     C_R   0.825092 0.106626 0.604989 -0.101872
C6    C     C_R   0.849263 0.281523 0.601702 -0.153304
C7    C     C_R   0.846270 0.309419 0.921778 0.258853
C8    C     C_R   0.797959 0.381248 0.885049 0.421633
C9    C     C_R   0.768968 0.353609 0.815736 0.295472
C10   C     C_R   0.817280 0.255747 0.780771 -0.090726
C11   C     C_R   0.843670 0.179018 0.818216 -0.177371
C12   C     C_R   0.832381 0.231332 0.709712 0.083574
C13   C     C_R   0.831179 0.129903 0.675623 -0.101646
C14   C     C_R   0.840089 0.053668 0.712113 0.421678
C15   C     C_R   0.852013 0.077025 0.782372 0.351412
C16   C     C_R   0.859928 0.305286 0.671440 -0.144985
C17   C     C_R   0.828316 0.181791 0.568318 0.347633
C18   C     C_R   0.857565 0.208224 0.889762 -0.218699
H1    H     H_    0.893190 0.381996 0.694976 0.208923
C19   C     C_2   0.984147 0.307966 0.277759 0.271941
C20   C     C_2   0.845225 0.307435 0.323895 0.138928
C21   C     C_2   0.009302 0.224739 0.219215 0.428351
C22   C     C_2   0.862015 0.193109 0.175631 -0.299813
C23   C     C_2   0.284338 0.737067 0.801083 -0.111427
C24   C     C_2   0.342678 0.833792 0.816511 0.316090
C25   C     C_2   0.245382 0.680161 0.731706 0.382624
C26   C     C_2   0.378334 0.673331 0.683218 0.205882
C27   C     C_R   0.369844 0.887952 0.386383 -0.090854
H2    H     H_    0.375582 0.966202 0.411127 0.170483
C28   C     C_R   0.355301 0.714359 0.394656 -0.060193
C29   C     C_R   0.347649 0.682774 0.070438 0.330417
C30   C     C_R   0.344780 0.606772 0.106952 0.455011
C31   C     C_R   0.349838 0.630336 0.176696 -0.263116
C32   C     C_R   0.358638 0.730782 0.212452 0.019549
C33   C     C_R   0.364076 0.808067 0.175127 -0.012972
C34   C     C_R   0.361812 0.757118 0.283995 0.111682
C35   C     C_R   0.369689 0.859876 0.316293 0.091687
C36   C     C_R   0.377139 0.934035 0.278579 -0.107480
C37   C     C_R   0.374995 0.908729 0.209267 -0.125216
C38   C     C_R   0.356470 0.685254 0.324911 -0.185392
C39   C     C_R   0.361688 0.815554 0.425299 -0.150602
C40   C     C_R   0.358470 0.783389 0.104203 -0.233430
O11   O     O_R   0.203230 0.917310 0.915020 -0.527907
O12   O     O_R   0.535500 0.888690 0.048040 -0.543880
O13   O     O_R   0.711080 0.082610 0.085000 -0.546028
C41   C     C_R   0.366882 0.862120 0.064910 0.759043
O14   O     O_R   0.532630 0.905370 0.913230 -0.513782
O15   O     O_R   0.708190 0.099410 0.949230 -0.535992
C42   C     C_R   0.361368 0.886305 0.886495 0.729036
O16   O     O_R   0.206120 0.900510 0.050790 -0.545019
O17   O     O_3   0.375360 0.063570 0.011990 -0.370290
V3    V     V_3+5 0.648170 0.988200 0.997780 1.659066
O18   O     O_R   0.038240 0.111390 0.951940 -0.528122
C43   C     C_R   0.869337 0.135494 0.933220 0.885974
O19   O     O_R   0.041120 0.094710 0.086750 -0.517844
C44   C     C_R   0.873942 0.116953 0.112920 0.787688
V4    V     V_3+5 0.148810 0.011930 0.002180 1.669295
O20   O     O_3   0.871750 0.936430 0.988010 -0.366815
Cl1   Cl    Cl    0.812843 0.148356 0.480399 -0.602753
Cl2   Cl    Cl    0.678064 0.206678 0.316778 -0.556781
Cl3   Cl    Cl    0.243261 0.175810 0.207568 -0.560632
H3    H     H_    0.722522 0.227560 0.185641 0.188152
H4    H     H_    0.254323 0.698707 0.841466 0.173757
Cl4   Cl    Cl    0.350205 0.909651 0.756219 -0.500536
Cl5   Cl    Cl    0.034894 0.604421 0.720087 -0.511696
Cl6   Cl    Cl    0.615262 0.721051 0.704201 -0.403951
H5    H     H_    0.360967 0.838365 0.479301 0.144886
H6    H     H_    0.384215 0.012465 0.302883 0.206889
Cl7   Cl    Cl    0.850160 0.926678 0.669398 -0.458203
H7    H     H_    0.352534 0.606076 0.304493 0.159586
Cl8   Cl    Cl    0.336644 0.651632 0.982087 -0.490888
H8    H     H_    0.346509 0.567832 0.201234 0.201842
Cl9   Cl    Cl    0.335804 0.479817 0.066355 -0.394887
H9    H     H_    0.381477 0.969254 0.182577 0.161572
H10   H     H_    0.816510 0.030212 0.577226 0.201051
Cl10  Cl    Cl    0.874513 0.345566 0.009880 -0.472639
Cl11  Cl    Cl    0.629079 0.435656 0.777997 -0.514090
Cl12  Cl    Cl    0.764113 0.506496 0.926833 -0.343751
Cl13  Cl    Cl    0.872397 0.972572 0.820976 -0.507002
Cl14  Cl    Cl    0.150487 0.408998 0.284486 -0.611311

loop_
_geom_bond_atom_site_label_1
_geom_bond_atom_site_label_2
_ccdc_geom_bond_type
C41   O16   A    
C22   H3    S    
C5    C17   A    
C4    C6    S    
C7    C8    A    
C1    O6    A    
C9    Cl11  S    
C31   C32   A    
O14   V3    S    
C23   C24   D    
C39   H5    S    
C28   C39   A    
O5    C3    A    
C25   C26   D    
C27   C35   A    
C29   Cl8   S    
C21   C22   D    
C2    C28   S    
C20   Cl2   S    
O8    V2    S    
O17   V4    S    
O12   V3    S    
C15   Cl13  S    
O1    V2    S    
V3    O20   S    
O7    V1    S    
O15   C43   A    
O1    C2    A    
O9    C4    A    
C37   H9    S    
C32   C34   A    
O14   C42   A    
O19   C44   A    
C26   Cl6   S    
C6    C16   A    
C12   C13   A    
C7    Cl10  S    
O4    C2    A    
C33   C37   A    
C13   C14   A    
C8    Cl12  S    
O16   V4    S    
O19   V4    S    
C19   C21   S    
O2    C1    A    
C29   C30   A    
C11   C18   A    
C23   H4    S    
C29   C40   A    
C1    C26   S    
C36   C37   A    
C14   C15   A    
C6    C17   A    
C18   C43   S    
C38   H7    S    
O11   V4    S    
O3    C4    A    
C33   C40   A    
C27   H2    S    
C24   Cl4   S    
O18   C43   A    
C14   Cl7   S    
C11   C15   A    
O9    V2    S    
C10   C12   A    
C31   H8    S    
O13   C44   A    
C30   Cl9   S    
O2    V1    S    
C30   C31   A    
O13   V3    S    
C40   C41   S    
C32   C33   A    
C34   C35   A    
C5    H10   S    
C16   H1    S    
C12   C16   A    
C36   H6    S    
O5    V1    S    
C24   C42   S    
O8    C3    A    
C27   C39   A    
C25   Cl5   S    
O6    V2    S    
O15   V3    S    
C5    C13   A    
C19   C20   D    
C23   C25   S    
O7    V2    S    
O4    V1    S    
O3    V1    S    
V1    O10   S    
C19   Cl14  S    
C22   C44   S    
O18   V4    S    
O11   C42   A    
O12   C41   A    
V4    O20   S    
C21   Cl3   S    
O17   V3    S    
C34   C38   A    
C8    C9    A    
C35   C36   A    
C10   C11   A    
C3    C20   S    
C9    C10   A    
C7    C18   A    
V2    O10   S    
C28   C38   A    
C17   Cl1   S    
