data_mof_unit_47398.cif
_audit_creation_date              2012-12-11T18:13:27-0500
_audit_creation_method            fapswitch 2.2
_symmetry_space_group_name_H-M    P1
_symmetry_Int_Tables_number       1
_space_group_crystal_system       triclinic
_cell_length_a                    8.379361
_cell_length_b                    12.993507
_cell_length_c                    18.666152
_cell_angle_alpha                 99.511259
_cell_angle_beta                  90.153144
_cell_angle_gamma                 99.708283
_cell_volume                      1974.70237742

loop_
_atom_site_label
_atom_site_type_symbol
_atom_type_description
_atom_site_fract_x
_atom_site_fract_y
_atom_site_fract_z
_atom_type_partial_charge
Ba1   Ba    Ba6+2 0.852780 0.548340 0.465070 1.807607
Ba2   Ba    Ba6+2 0.337060 0.451750 0.534940 1.764105
C1    C     C_3   0.658316 0.853939 0.174274 -0.273844
C2    C     C_R   0.915606 0.352903 0.086567 0.019751
C3    C     C_R   0.763547 0.294489 0.061049 -0.077974
C4    C     C_3   0.143765 0.780537 0.248534 0.373084
C5    C     C_R   0.700983 0.300637 0.992332 -0.102001
C6    C     C_R   0.791735 0.362201 0.946430 0.016435
C7    C     C_R   0.949914 0.413115 0.968827 0.024484
C8    C     C_R   0.727495 0.373071 0.878706 -0.130984
C9    C     C_R   0.822292 0.429028 0.830235 -0.026712
C10   C     C_R   0.981692 0.480424 0.852793 0.017079
C11   C     C_R   0.043814 0.472363 0.922335 0.018010
C12   C     C_3   0.594320 0.777495 0.225117 0.274446
C13   C     C_R   0.766388 0.432074 0.758864 -0.020184
C14   C     C_R   0.873122 0.478616 0.710774 -0.289929
C15   C     C_R   0.025287 0.538805 0.733750 -0.019644
C16   C     C_3   0.094333 0.830617 0.184288 0.601472
C17   C     C_R   0.079988 0.539775 0.806131 -0.053787
C18   C     C_R   0.170481 0.458395 0.061516 0.063711
C19   C     C_R   0.226092 0.465752 0.134739 0.028503
C20   C     C_R   0.118095 0.425021 0.186232 -0.031116
C21   C     C_R   0.967287 0.363643 0.159979 -0.017302
C22   C     C_R   0.233051 0.593979 0.832404 -0.034052
C23   C     C_3   0.603206 0.216871 0.312857 0.755763
C24   C     C_R   0.296943 0.580206 0.898734 0.048677
C25   C     C_R   0.202529 0.520751 0.944523 0.043895
C26   C     C_R   0.267406 0.510923 0.012824 0.068831
C27   C     C_R   0.456691 0.623810 0.919082 -0.017327
C28   C     C_3   0.127887 0.809275 0.692102 0.231002
C29   C     C_R   0.522766 0.612238 0.984796 -0.067803
C30   C     C_R   0.429053 0.555385 0.032612 0.068491
C31   C     C_R   0.388268 0.515205 0.156070 -0.042790
C32   C     C_R   0.493914 0.543437 0.099798 -0.049980
C33   C     C_R   0.432494 0.538110 0.232339 0.058576
C34   C     C_3   0.656204 0.141038 0.249202 -0.279927
C35   C     C_R   0.312834 0.513939 0.282497 -0.108812
C36   C     C_R   0.163497 0.449691 0.261885 0.067982
C37   C     C_R   0.752064 0.189373 0.544116 -0.242964
C38   C     C_R   0.417202 0.819209 0.501764 -0.206065
C39   C     C_R   0.396359 0.985906 0.466024 -0.037588
C40   C     C_3   0.162365 0.850377 0.772785 -0.319040
C41   C     C_R   0.339608 0.877530 0.462590 0.056817
C42   C     C_R   0.567247 0.860095 0.534097 0.025649
C43   C     C_R   0.624321 0.973280 0.544998 -0.001244
C44   C     C_R   0.535776 0.036911 0.509330 -0.004604
C45   C     C_3   0.059979 0.240408 0.741864 0.360402
C46   C     C_R   0.600861 0.146472 0.510443 0.046540
C47   C     C_R   0.839659 0.128751 0.578590 0.068795
C48   C     C_R   0.767717 0.025395 0.586290 -0.013095
C49   C     C_3   0.997700 0.208596 0.379929 0.254283
C50   C     C_3   0.027626 0.094925 0.354351 0.317343
C51   C     C_3   0.706194 0.677482 0.676925 0.333511
C52   C     C_3   0.751190 0.697242 0.759279 0.401130
C53   C     C_3   0.533852 0.095381 0.818593 -0.349197
C54   C     C_3   0.671604 0.542746 0.103992 -0.307853
C55   C     C_3   0.825587 0.982842 0.648642 -0.323665
C56   C     C_3   0.081904 0.210290 0.816243 -0.370132
C57   C     C_3   0.511395 0.182933 0.708892 0.396713
C58   C     C_3   0.457575 0.083867 0.742648 -0.201513
C59   C     C_R   0.012650 0.407190 0.038718 0.044303
H1    H     H_    0.551852 0.823260 0.274727 0.141438
H2    H     H_    0.590312 0.623129 0.667494 0.078795
H3    H     H_    0.750394 0.919050 0.202869 0.140802
H4    H     H_    0.881527 0.700077 0.767897 -0.101892
H5    H     H_    0.690179 0.629059 0.783025 -0.061996
H6    H     H_    0.492609 0.722454 0.195057 0.000214
H7    H     H_    0.558384 0.889088 0.155098 0.185910
H8    H     H_    0.710979 0.265742 0.341298 -0.015003
H9    H     H_    0.685296 0.070053 0.268148 0.148757
H10   H     H_    0.561752 0.116450 0.205170 0.192114
H11   H     H_    0.765813 0.178720 0.224808 0.069988
H12   H     H_    0.137897 0.785471 0.805039 0.119655
H13   H     H_    0.711445 0.811543 0.126098 0.145979
H14   H     H_    0.123026 0.322940 0.742446 0.075255
H15   H     H_    0.928039 0.235763 0.731424 -0.089218
H16   H     H_    0.211148 0.230174 0.834455 0.142358
H17   H     H_    0.009969 0.253582 0.856503 0.070361
H18   H     H_    0.039709 0.124123 0.814010 0.123892
H19   H     H_    0.645815 0.196951 0.706576 -0.101605
H20   H     H_    0.458474 0.168813 0.652770 0.040141
H21   H     H_    0.491663 0.014332 0.707213 0.072280
H22   H     H_    0.050215 0.710861 0.254198 0.042312
H23   H     H_    0.290071 0.888796 0.781469 0.160042
H24   H     H_    0.323718 0.069047 0.746185 0.135644
H25   H     H_    0.690537 0.246713 0.095088 0.118957
H26   H     H_    0.580317 0.258665 0.975750 0.081617
H27   H     H_    0.832491 0.472665 0.655018 0.062385
H28   H     H_    0.604340 0.336048 0.864134 0.105596
H29   H     H_    0.885318 0.328999 0.196985 0.119969
H30   H     H_    0.307192 0.644506 0.800656 0.130710
H31   H     H_    0.531208 0.664985 0.883081 0.164687
H32   H     H_    0.646046 0.651442 0.998673 0.148666
H33   H     H_    0.258878 0.753134 0.234867 0.000964
H34   H     H_    0.088985 0.911682 0.792442 0.140848
H35   H     H_    0.342462 0.537754 0.339935 0.099341
H36   H     H_    0.336699 0.027385 0.431708 0.106856
H37   H     H_    0.807592 0.269199 0.538934 0.019452
H38   H     H_    0.371451 0.735046 0.496815 0.074607
H39   H     H_    0.971841 0.847917 0.194090 0.027954
H40   H     H_    0.154928 0.878356 0.663517 0.039197
H41   H     H_    0.000547 0.775822 0.679077 0.028929
H42   H     H_    0.839531 0.826955 0.365871 0.371038
H43   H     H_    0.815972 0.978540 0.835121 0.349977
H44   H     H_    0.472046 0.308458 0.166029 0.338721
H45   H     H_    0.882861 0.209559 0.408626 -0.043903
H46   H     H_    0.308430 0.030605 0.282398 0.377055
H47   H     H_    0.481118 0.154400 0.856892 0.122017
H48   H     H_    0.508446 0.018890 0.838699 0.192776
H49   H     H_    0.667150 0.120780 0.817866 0.120233
H50   H     H_    0.693356 0.477656 0.131242 0.173664
H51   H     H_    0.722690 0.524043 0.049785 0.126218
H52   H     H_    0.734975 0.621260 0.129101 0.200664
H53   H     H_    0.885459 0.045458 0.691837 0.115775
H54   H     H_    0.717170 0.949049 0.675207 0.190288
H55   H     H_    0.909996 0.927659 0.631140 0.143813
H56   H     H_    0.094480 0.250807 0.419051 0.084916
H57   H     H_    0.021278 0.840692 0.029709 0.379495
H58   H     H_    0.015426 0.075097 0.294568 0.123360
H59   H     H_    0.151731 0.088867 0.370708 0.016955
H60   H     H_    0.797697 0.637622 0.646186 -0.111489
O1    O     O_2   0.873090 0.425890 0.325140 -0.441794
O2    O     O_2   0.169227 0.123618 0.551164 -0.462077
O3    O     O_3   0.127058 0.170509 0.689602 -0.602335
O4    O     O_3   0.122420 0.434370 0.414380 -0.497533
O5    O     O_3   0.578370 0.633800 0.536380 -0.477328
O6    O     O_2   0.341510 0.231850 0.465510 -0.469012
O7    O     O_3   0.509697 0.159868 0.359614 -0.641687
O8    O     O_2   0.447931 0.468150 0.756963 -0.503115
O9    O     O_3   0.454114 0.268580 0.750570 -0.593702
O10   O     O_3   0.659500 0.627100 0.368810 -0.436988
O11   O     O_2   0.767979 0.538557 0.249851 -0.427538
O12   O     O_3   0.695915 0.771810 0.651754 -0.611671
O13   O     O_3   0.992419 0.256252 0.317920 -0.652721
O14   O     O_3   0.718618 0.725375 0.243821 -0.606174
O15   O     O_2   0.848200 0.768190 0.534530 -0.490185
O16   O     O_3   0.081160 0.685950 0.404810 -0.469008
O17   O     O_2   0.348969 0.736526 0.351071 -0.605350
O18   O     O_2   0.947899 0.983748 0.461467 -0.362177
O19   O     O_2   0.724355 0.025294 0.390929 -0.380143
O20   O     O_3   0.872954 0.879784 0.333724 -0.509920
O21   O     O_2   0.524670 0.814771 0.804696 -0.340508
O22   O     O_2   0.744457 0.813740 0.891390 -0.300505
O23   O     O_3   0.159859 0.854157 0.314000 -0.577004
O24   O     O_3   0.807466 0.924881 0.790336 -0.570624
O25   O     O_2   0.312978 0.243775 0.267441 -0.340875
O26   O     O_2   0.493152 0.394292 0.339089 -0.336757
O27   O     O_3   0.559424 0.336514 0.203493 -0.606537
O28   O     O_2   0.313603 0.945531 0.105670 -0.241416
O29   O     O_2   0.123140 0.038462 0.176070 -0.312625
O30   O     O_3   0.359086 0.984941 0.244985 -0.555471
O31   O     O_2   0.253104 0.736833 0.072606 -0.285422
O32   O     O_2   0.017928 0.630599 0.116370 -0.384407
O33   O     O_3   0.966947 0.770519 0.038916 -0.498953
O34   O     O_2   0.316610 0.574140 0.674900 -0.451630
O35   O     O_3   0.067290 0.565720 0.585630 -0.482700
O36   O     O_3   0.530210 0.372990 0.631200 -0.492115
O37   O     O_3   0.232443 0.739639 0.665789 -0.591223
O38   O     O_3   0.611340 0.366290 0.463630 -0.445594
O39   O     O_3   0.108550 0.314140 0.595200 -0.489057
P1    P     P_3+3 0.041040 0.394770 0.336330 1.048082
P2    P     P_3+3 0.672880 0.754030 0.556100 1.011605
P3    P     P_3+3 0.216419 0.796090 0.386797 0.980109
P4    P     P_3+3 0.148670 0.605320 0.663680 0.986020
P5    P     P_3+3 0.058005 0.181875 0.603344 0.974470
P6    P     P_3+3 0.637582 0.606693 0.273492 1.065261
P7    P     P_3+3 0.524436 0.228094 0.449652 1.020340
P8    P     P_3+3 0.552684 0.385803 0.725263 0.919030
S1    S     S_3+6 0.889178 0.996233 0.388112 -0.161106
S2    S     S_3+6 0.702265 0.814449 0.813126 -0.103965
S3    S     S_3+6 0.485128 0.299908 0.280475 -0.114583
S4    S     S_3+6 0.223739 0.952953 0.175375 -0.072981
S5    S     S_3+6 0.086303 0.738544 0.101379 -0.103197

loop_
_geom_bond_atom_site_label_1
_geom_bond_atom_site_label_2
_ccdc_geom_bond_type
C6    C7    A    
C57   O9    S    
C32   C54   S    
O19   S1    D    
O28   S4    D    
C52   S2    S    
C1    H7    S    
O12   P2    S    
O27   S3    S    
C38   H38   S    
C5    C6    A    
C55   H54   S    
C52   H4    S    
O15   P2    D    
C51   C52   S    
C24   C25   A    
Ba2   O34   S    
O1    P1    D    
C16   H39   S    
C7    C59   A    
C33   C35   A    
C23   O7    S    
O11   P6    D    
C45   H15   S    
O5    P2    S    
C49   H45   S    
C49   O13   S    
C12   H1    S    
C19   C31   A    
C12   O14   S    
C13   C14   A    
C20   C36   A    
O32   S5    D    
C33   P6    S    
C10   C17   A    
Ba1   Ba2   S    
C54   H52   S    
C18   C59   A    
C1    H13   S    
C7    C11   A    
Ba1   O1    S    
C56   H16   S    
C15   C17   A    
C58   H21   S    
C36   P1    S    
O29   S4    D    
O10   P6    S    
O26   S3    D    
C14   C15   A    
C4    H33   S    
O7    P7    S    
C12   H6    S    
O18   S1    D    
O17   P3    D    
Ba1   O15   S    
C54   H50   S    
O33   S5    S    
C34   H10   S    
O37   P4    S    
O21   S2    D    
H46   O30   S    
Ba2   O6    S    
C23   S3    S    
Ba1   P1    S    
C57   C58   S    
C19   C20   A    
C53   H48   S    
C27   C29   A    
C39   C41   A    
C42   P2    S    
H42   O20   S    
O36   P8    S    
C34   H9    S    
C55   H55   S    
C38   C41   A    
C4    C16   S    
C44   C46   A    
C40   H34   S    
C26   C30   A    
C40   H23   S    
Ba1   O5    S    
C8    H28   S    
Ba2   P4    S    
O16   P3    S    
C2    C21   A    
Ba2   O38   S    
C37   H37   S    
C18   C26   A    
C29   H32   S    
H44   O27   S    
C2    C59   A    
O30   S4    S    
C49   C50   S    
C35   H35   S    
C30   C32   A    
C57   H19   S    
Ba1   O35   S    
C16   S5    S    
C47   P5    S    
C35   C36   A    
C15   P4    S    
O9    P8    S    
C29   C30   A    
Ba1   O38   S    
C39   C44   A    
C28   H41   S    
O20   S1    S    
C31   C32   A    
C21   H29   S    
C51   O12   S    
O6    P7    D    
O39   P5    S    
C18   C19   A    
C1    C12   S    
C56   H18   S    
O31   S5    D    
C50   H59   S    
C6    C8    A    
C37   C47   A    
Ba1   P2    S    
C9    C13   A    
C53   H49   S    
C49   H56   S    
C39   H36   S    
C13   P8    S    
C23   H8    S    
C3    H25   S    
C4    O23   S    
C22   H30   S    
Ba2   O5    S    
Ba1   O16   S    
C42   C43   A    
C3    C5    A    
C28   O37   S    
O24   S2    S    
C40   H12   S    
Ba2   O35   S    
C4    H22   S    
O8    P8    D    
C48   C55   S    
H43   O24   S    
O4    P1    S    
C57   H20   S    
O22   S2    D    
C22   C24   A    
C2    C3    A    
Ba1   O10   S    
C50   S1    S    
C9    C10   A    
C55   H53   S    
C52   H5    S    
C16   S4    S    
O34   P4    D    
O13   P1    S    
C50   H58   S    
C53   H47   S    
Ba1   O4    S    
C17   C22   A    
C45   H14   S    
O23   P3    S    
C51   H60   S    
C45   C56   S    
C51   H2    S    
C45   O3    S    
C46   P7    S    
C43   C48   A    
Ba2   O36   S    
C28   H40   S    
C31   C33   A    
O14   P6    S    
O38   P7    S    
H57   O33   S    
C28   C40   S    
C1    H3    S    
O25   S3    D    
C8    C9    A    
C56   H17   S    
C23   C34   S    
O3    P5    S    
O2    P5    D    
Ba2   O4    S    
C43   C44   A    
C38   C42   A    
C5    H26   S    
C10   C11   A    
O35   P4    S    
C24   C27   A    
Ba2   O39   S    
C47   C48   A    
C25   C26   A    
C14   H27   S    
C20   C21   A    
C11   C25   A    
C58   H24   S    
C53   C58   S    
C54   H51   S    
C27   H31   S    
C34   H11   S    
C37   C46   A    
C41   P3    S    
