data_mof_unit_23104.cif
_audit_creation_date              2012-12-11T15:16:44-0500
_audit_creation_method            fapswitch 2.2
_symmetry_space_group_name_H-M    P1
_symmetry_Int_Tables_number       1
_space_group_crystal_system       triclinic
_cell_length_a                    25.145044
_cell_length_b                    7.229537
_cell_length_c                    21.931481
_cell_angle_alpha                 90.002101
_cell_angle_beta                  110.290984
_cell_angle_gamma                 90.003494
_cell_volume                      3739.44826006

loop_
_atom_site_label
_atom_site_type_symbol
_atom_type_description
_atom_site_fract_x
_atom_site_fract_y
_atom_site_fract_z
_atom_type_partial_charge
O1    O     O_R   0.554350 0.505270 0.581390 -0.531461
O2    O     O_R   0.445650 0.005270 0.418610 -0.531466
O3    O     O_R   0.553380 0.177580 0.454800 -0.540791
O4    O     O_R   0.446620 0.677580 0.545200 -0.540792
C1    C     C_R   0.565910 0.344688 0.438393 0.677141
C2    C     C_R   0.434088 0.844684 0.561602 0.677161
O5    O     O_R   0.560970 0.175640 0.583140 -0.532519
O6    O     O_R   0.439030 0.675640 0.416860 -0.532529
O7    O     O_R   0.453290 0.004120 0.547860 -0.539089
O8    O     O_R   0.546710 0.504120 0.452140 -0.539080
C3    C     C_R   0.576087 0.343902 0.607577 0.676835
C4    C     C_R   0.423911 0.843887 0.392423 0.676806
O9    O     O_3   0.464660 0.338800 0.488280 -0.372964
O10   O     O_3   0.535340 0.838800 0.511720 -0.372948
V1    V     V_3+5 0.506560 0.064420 0.502170 1.414904
V2    V     V_3+5 0.493440 0.564420 0.497830 1.414922
C5    C     C_R   0.148571 0.984087 0.288760 -0.151981
C6    C     C_R   0.851459 0.483525 0.711224 -0.151974
H1    H     H_    0.063270 0.011592 0.222379 0.111887
H2    H     H_    0.936762 0.511008 0.777606 0.111872
H3    H     H_    0.234198 0.982948 0.400948 0.131926
H4    H     H_    0.765842 0.482146 0.599028 0.131928
H5    H     H_    0.136329 0.014483 0.330463 0.122848
H6    H     H_    0.863714 0.513660 0.669513 0.122849
C7    C     C_R   0.120848 0.942563 0.172393 -0.035578
C8    C     C_R   0.879156 0.442487 0.827608 -0.035548
C9    C     C_R   0.396505 0.811651 0.273852 -0.159060
C10   C     C_R   0.603472 0.312052 0.726157 -0.159088
C11   C     C_R   0.357061 0.807903 0.211095 -0.111764
C12   C     C_R   0.642910 0.308452 0.788918 -0.111759
C13   C     C_R   0.299810 0.840298 0.199884 -0.151056
C14   C     C_R   0.700169 0.340696 0.800127 -0.151052
C15   C     C_R   0.280255 0.878196 0.251791 0.075793
C16   C     C_R   0.719740 0.378283 0.748211 0.075794
C17   C     C_R   0.321290 0.883806 0.316359 0.068753
C18   C     C_R   0.678714 0.383718 0.683636 0.068750
C19   C     C_R   0.221446 0.910345 0.241772 0.071981
C20   C     C_R   0.778556 0.410290 0.758227 0.071986
C21   C     C_R   0.205499 0.949154 0.296618 0.133900
C22   C     C_R   0.794521 0.448767 0.703372 0.133888
C23   C     C_R   0.246349 0.953768 0.359088 -0.193337
C24   C     C_R   0.753678 0.453216 0.640895 -0.193336
C25   C     C_R   0.303203 0.921269 0.368909 -0.189612
C26   C     C_R   0.696817 0.420867 0.631078 -0.189587
C27   C     C_R   0.177705 0.906313 0.179472 -0.203161
C28   C     C_R   0.822289 0.406427 0.820534 -0.203146
C29   C     C_R   0.106803 0.982040 0.227249 -0.164729
C30   C     C_R   0.893220 0.481619 0.772741 -0.164754
C31   C     C_R   0.379621 0.849798 0.326919 -0.080021
C32   C     C_R   0.620374 0.349875 0.673081 -0.080002
H7    H     H_    0.186328 0.878039 0.135557 0.100637
H8    H     H_    0.813653 0.378402 0.864456 0.100601
H9    H     H_    0.440662 0.784139 0.281146 0.108314
H10   H     H_    0.559308 0.284683 0.718866 0.108319
H11   H     H_    0.271957 0.834457 0.149954 0.115376
H12   H     H_    0.728016 0.334991 0.850061 0.115365
H13   H     H_    0.370972 0.778587 0.170583 0.127439
H14   H     H_    0.628986 0.279382 0.829438 0.127438
H15   H     H_    0.333020 0.926140 0.418277 0.112792
H16   H     H_    0.667005 0.425603 0.581705 0.112753
C33   C     C_R   0.139061 0.781390 0.900453 -0.049587
C34   C     C_R   0.860958 0.281306 0.099574 -0.049551
C35   C     C_R   0.173350 0.779381 0.861795 -0.156086
C36   C     C_R   0.826673 0.279278 0.138238 -0.156119
H17   H     H_    0.198874 0.657761 0.862737 0.151776
H18   H     H_    0.801164 0.157628 0.137324 0.151699
C37   C     C_R   0.176112 0.931772 0.823125 -0.031953
C38   C     C_R   0.823886 0.431722 0.176871 -0.031843
C39   C     C_R   0.143155 0.090137 0.824178 -0.038842
C40   C     C_R   0.856813 0.590138 0.175795 -0.038818
C41   C     C_R   0.108594 0.091862 0.862604 -0.174948
C42   C     C_R   0.891377 0.591883 0.137371 -0.174898
H19   H     H_    0.082998 0.213371 0.861585 0.134588
H20   H     H_    0.916958 0.713433 0.138379 0.134641
C43   C     C_R   0.105423 0.938625 0.900791 -0.094404
C44   C     C_R   0.894573 0.438603 0.099209 -0.094463
N1    N     N_R   0.233894 0.073503 0.763122 -0.262961
N2    N     N_R   0.765777 0.573503 0.236459 -0.262979
N3    N     N_R   0.267727 0.060823 0.728035 -0.280124
N4    N     N_R   0.731942 0.560841 0.271544 -0.280127
C45   C     C_R   0.282979 0.893284 0.711223 0.505572
C46   C     C_R   0.717024 0.393299 0.288766 0.505413
N5    N     N_R   0.262911 0.738957 0.731279 -0.271867
N6    N     N_R   0.737423 0.238947 0.269116 -0.271815
N7    N     N_R   0.229071 0.751789 0.766377 -0.255069
N8    N     N_R   0.771262 0.251756 0.234016 -0.254773
C47   C     C_R   0.213541 0.919391 0.782935 0.516403
C48   C     C_R   0.786462 0.419368 0.217057 0.516180
C49   C     C_R   0.337110 0.706558 0.654754 -0.132306
C50   C     C_R   0.663184 0.206584 0.345601 -0.132301
H21   H     H_    0.321803 0.579728 0.669125 0.140696
H22   H     H_    0.678731 0.079748 0.331527 0.140720
C51   C     C_R   0.373404 0.694659 0.618647 -0.159255
C52   C     C_R   0.626883 0.194683 0.381701 -0.159361
H23   H     H_    0.384974 0.559023 0.606405 0.121150
H24   H     H_    0.615555 0.059036 0.394242 0.121215
C53   C     C_R   0.394670 0.855579 0.599084 -0.047764
C54   C     C_R   0.605321 0.355601 0.400898 -0.047782
C55   C     C_R   0.378252 0.028487 0.616335 -0.162312
C56   C     C_R   0.621441 0.528520 0.383275 -0.162161
H25   H     H_    0.393488 0.155860 0.602238 0.124410
H26   H     H_    0.605962 0.655902 0.397067 0.124344
C57   C     C_R   0.342018 0.040277 0.652311 -0.137129
C58   C     C_R   0.657674 0.540314 0.347297 -0.137134
H27   H     H_    0.330628 0.176028 0.664666 0.135644
H28   H     H_    0.668825 0.676071 0.334647 0.135631
C59   C     C_R   0.321046 0.879634 0.672238 0.022405
C60   C     C_R   0.678951 0.379663 0.327747 0.022453
O11   O     O_R   0.953220 0.285790 0.047790 -0.534473
O12   O     O_R   0.046780 0.785790 0.952210 -0.534474
O13   O     O_R   0.939020 0.617570 0.916840 -0.533750
O14   O     O_R   0.060980 0.117570 0.083160 -0.533757
C61   C     C_R   0.923947 0.448715 0.892458 0.676061
C62   C     C_R   0.076054 0.948731 0.107542 0.676066
O15   O     O_R   0.946600 0.615450 0.045180 -0.531051
O16   O     O_R   0.053400 0.115450 0.954820 -0.531065
O17   O     O_R   0.054370 0.786770 0.081410 -0.534105
O18   O     O_R   0.945630 0.286770 0.918590 -0.534111
C63   C     C_R   0.933752 0.446750 0.061042 0.676328
C64   C     C_R   0.066247 0.946755 0.938958 0.676341
O19   O     O_3   0.035300 0.454160 0.011680 -0.361873
O20   O     O_3   0.964700 0.954160 0.988320 -0.361868
V3    V     V_3+5 0.993450 0.728620 0.997830 1.477723
V4    V     V_3+5 0.006550 0.228620 0.002170 1.477720
C65   C     C_1   0.141915 0.251250 0.784782 0.327499
N9    N     N_1   0.140749 0.380622 0.753257 -0.303022
C66   C     C_1   0.858036 0.751232 0.215197 0.327281
N10   N     N_1   0.859187 0.880582 0.246729 -0.302923
C67   C     C_1   0.141328 0.621610 0.940829 0.289956
N11   N     N_1   0.143420 0.493303 0.973137 -0.340734
C68   C     C_1   0.858708 0.121483 0.059218 0.289979
N12   N     N_1   0.856627 0.993141 0.026926 -0.340728

loop_
_geom_bond_atom_site_label_1
_geom_bond_atom_site_label_2
_ccdc_geom_bond_type
C40   C66   S    
C55   C57   A    
C35   H17   S    
C51   C53   A    
C9    C11   A    
O1    C3    A    
C42   C44   A    
O2    C4    A    
C2    O7    A    
C58   H28   S    
C4    C31   S    
O3    V1    S    
C21   C23   A    
C33   C43   A    
O5    C3    A    
C5    H5    S    
C6    H6    S    
C36   C38   A    
C20   C22   A    
N6    N8    A    
O14   V4    S    
N2    N4    A    
C52   C54   A    
C28   H8    S    
C56   C58   A    
C33   C35   A    
C5    C21   A    
C39   C41   A    
C6    C22   A    
O19   V4    S    
C34   C36   A    
C45   N5    A    
C10   C32   A    
O13   C61   A    
C45   C59   S    
C17   C31   A    
C13   C15   A    
C46   C60   S    
C49   H21   S    
C17   C25   A    
C7    C29   A    
C16   C18   A    
C8    C30   A    
N7    C47   A    
C39   C65   S    
O6    V2    S    
C11   C13   A    
C23   C25   A    
C34   C44   A    
C24   C26   A    
O14   C62   A    
C53   C55   A    
C50   C52   A    
N1    N3    A    
C35   C37   A    
C41   C43   A    
C44   C63   S    
O15   V3    S    
O13   V3    S    
C2    C53   S    
C42   H20   S    
O12   C64   A    
C41   H19   S    
C10   H10   S    
O5    V1    S    
C15   C19   A    
O16   C64   A    
C37   C39   A    
C36   H18   S    
O4    V2    S    
O12   V3    S    
C50   H22   S    
O6    C4    A    
C49   C59   A    
C56   H26   S    
H1    C29   S    
C57   H27   S    
O1    V2    S    
O18   V4    S    
C52   H24   S    
O2    V1    S    
H2    C30   S    
H3    C23   S    
N4    C46   A    
N5    N7    A    
C11   H13   S    
O15   C63   A    
C65   N9    T    
C38   C48   S    
C18   C26   A    
O4    C2    A    
C19   C27   A    
C68   N12   T    
C7    C27   A    
C58   C60   A    
C18   C32   A    
O11   C63   A    
N3    C45   A    
C67   N11   T    
N2    C48   A    
O16   V4    S    
C55   H25   S    
C16   C20   A    
C37   C47   S    
C34   C68   S    
C43   C64   S    
C5    C29   A    
O3    C1    A    
C6    C30   A    
C40   C42   A    
C9    H9    S    
O11   V4    S    
C25   H15   S    
C46   N6    A    
C33   C67   S    
C10   C12   A    
O17   V3    S    
C8    C61   S    
C50   C60   A    
C1    O8    A    
C19   C21   A    
C3    C32   S    
O8    V2    S    
C7    C62   S    
C12   C14   A    
H4    C24   S    
C26   H16   S    
C12   H14   S    
C22   C24   A    
C15   C17   A    
N8    C48   A    
C49   C51   A    
C54   C56   A    
C20   C28   A    
C62   O17   A    
C8    C28   A    
C61   O18   A    
C9    C31   A    
C1    C54   S    
N1    C47   A    
C51   H23   S    
O9    V2    S    
C38   C40   A    
C27   H7    S    
O10   V1    S    
C57   C59   A    
C13   H11   S    
O20   V3    S    
C14   H12   S    
C66   N10   T    
O7    V1    S    
C14   C16   A    
