data_mof_unit_32357.cif
_audit_creation_date              2012-12-11T17:06:36-0500
_audit_creation_method            fapswitch 2.2
_symmetry_space_group_name_H-M    P1
_symmetry_Int_Tables_number       1
_space_group_crystal_system       triclinic
_cell_length_a                    6.953727
_cell_length_b                    14.590393
_cell_length_c                    15.917367
_cell_angle_alpha                 90.478358
_cell_angle_beta                  90.13575
_cell_angle_gamma                 90.017636
_cell_volume                      1614.87710612

loop_
_atom_site_label
_atom_site_type_symbol
_atom_type_description
_atom_site_fract_x
_atom_site_fract_y
_atom_site_fract_z
_atom_type_partial_charge
O1    O     O_R   0.494400 0.415450 0.412630 -0.535678
O2    O     O_R   0.823940 0.405730 0.586760 -0.544702
O3    O     O_R   0.994240 0.584550 0.587370 -0.540203
C1    C     C_R   0.655294 0.383826 0.615555 0.692652
O4    O     O_R   0.824110 0.404430 0.413240 -0.544107
O5    O     O_R   0.994420 0.583240 0.412620 -0.540711
C2    C     C_R   0.654742 0.381254 0.384984 0.694618
O6    O     O_R   0.494230 0.416760 0.587380 -0.536351
O7    O     O_3   0.660800 0.558670 0.500000 -0.371763
V1    V     V_3+5 0.935650 0.489120 0.500000 1.373354
O8    O     O_R   0.324140 0.594270 0.413240 -0.542062
C3    C     C_R   0.155269 0.616765 0.384795 0.702498
O9    O     O_R   0.323960 0.595570 0.586760 -0.540052
C4    C     C_R   0.155356 0.618029 0.615242 0.680388
V2    V     V_3+5 0.435660 0.510880 0.500000 1.387797
O10   O     O_3   0.160640 0.441330 0.500000 -0.369976
C5    C     C_3   0.053713 0.669180 0.771359 0.186512
C6    C     C_3   0.226633 0.715034 0.816111 -0.151178
H1    H     H_    0.302482 0.688284 0.872254 0.101500
C7    C     C_3   0.120744 0.807836 0.810916 -0.033435
C8    C     C_3   0.946476 0.761738 0.767421 -0.122604
C9    C     C_3   0.039890 0.780110 0.680733 -0.174256
C10   C     C_3   0.213419 0.827018 0.724959 -0.131639
C11   C     C_3   0.319091 0.733548 0.729230 -0.143059
C12   C     C_3   0.145513 0.687455 0.685592 -0.056204
H2    H     H_    0.793178 0.773170 0.783722 0.107330
H3    H     H_    0.963939 0.806613 0.624542 0.107715
H4    H     H_    0.279640 0.892957 0.706162 0.100618
H5    H     H_    0.472338 0.721881 0.712972 0.115583
C13   C     C_R   0.262323 0.746828 0.184224 0.007635
C14   C     C_R   0.117978 0.813130 0.180914 -0.141404
C15   C     C_R   0.973426 0.808616 0.242998 -0.189931
H6    H     H_    0.854173 0.856260 0.241880 0.118980
C16   C     C_R   0.985167 0.744387 0.308962 -0.192248
H7    H     H_    0.874338 0.744368 0.356591 0.124856
C17   C     C_R   0.143624 0.684240 0.315743 -0.130147
C18   C     C_R   0.276459 0.685143 0.249647 0.067339
C19   C     C_3   0.492227 0.685990 0.245080 -0.053741
C20   C     C_3   0.473375 0.751064 0.169087 0.135928
H8    H     H_    0.554021 0.722537 0.300456 0.071053
H9    H     H_    0.534566 0.820798 0.178824 0.094610
C21   C     C_R   0.494223 0.316578 0.742380 0.103806
C22   C     C_R   0.647997 0.317808 0.685670 -0.110873
C23   C     C_R   0.799382 0.255583 0.699496 -0.180363
H10   H     H_    0.921455 0.254107 0.657657 0.132172
C24   C     C_R   0.788107 0.189917 0.763622 -0.178642
H11   H     H_    0.902520 0.140198 0.769536 0.126910
C25   C     C_R   0.624815 0.184341 0.815629 -0.112915
C26   C     C_R   0.482835 0.251465 0.805767 0.100214
C27   C     C_3   0.271502 0.240296 0.794072 -0.406555
C28   C     C_3   0.283890 0.311376 0.725109 -0.398435
H12   H     H_    0.188908 0.264194 0.849801 0.177861
H13   H     H_    0.233632 0.170735 0.770373 0.164971
H14   H     H_    0.208712 0.376373 0.740981 0.163392
H15   H     H_    0.252842 0.283249 0.661398 0.169946
C29   C     C_R   0.491513 0.312340 0.257885 0.060355
C30   C     C_R   0.644884 0.313324 0.315257 -0.102921
C31   C     C_R   0.794349 0.249790 0.301570 -0.188498
H16   H     H_    0.915734 0.247681 0.344024 0.130080
C32   C     C_R   0.782959 0.184472 0.235944 -0.203516
H17   H     H_    0.896189 0.134071 0.229719 0.126059
C33   C     C_R   0.623158 0.181643 0.181305 -0.143794
C34   C     C_R   0.481523 0.248538 0.192477 0.126538
C35   C     C_3   0.268598 0.237880 0.201623 -0.043205
C36   C     C_3   0.279903 0.308564 0.272773 -0.411884
H18   H     H_    0.229928 0.168696 0.225099 0.103197
H19   H     H_    0.246051 0.279674 0.335397 0.151116
H20   H     H_    0.207157 0.374508 0.259263 0.167947
O11   O     O_R   0.771650 0.079500 0.908680 -0.537906
O12   O     O_R   0.441690 0.091800 0.082800 -0.539877
O13   O     O_R   0.271460 0.912980 0.083410 -0.540817
C37   C     C_R   0.610607 0.112789 0.112723 0.696365
O14   O     O_R   0.441930 0.090510 0.909280 -0.538348
O15   O     O_R   0.271690 0.911670 0.908660 -0.536353
C38   C     C_R   0.610980 0.112888 0.880890 0.699783
O16   O     O_R   0.771410 0.080810 0.083440 -0.544408
O17   O     O_3   0.605100 0.937580 0.996050 -0.368467
V3    V     V_3+5 0.330220 0.007110 0.996030 1.383348
O18   O     O_R   0.941980 0.900620 0.909250 -0.544928
C39   C     C_R   0.110693 0.877897 0.880876 0.681745
O19   O     O_R   0.941740 0.901920 0.082770 -0.543386
C40   C     C_R   0.110326 0.881319 0.112601 0.690791
V4    V     V_3+5 0.830220 0.985300 0.996000 1.372430
O20   O     O_3   0.105210 0.054870 0.996020 -0.372623
N1    N     N_2   0.517877 0.711059 0.087584 -0.499365
H21   H     H_    0.427880 0.730457 0.039224 0.252617
C41   C     C_3   0.717711 0.707003 0.063421 -0.532874
H22   H     H_    0.746177 0.639016 0.034908 0.195952
H23   H     H_    0.814389 0.714669 0.118054 0.207538
H24   H     H_    0.750178 0.761158 0.017019 0.211437
C42   C     C_3   0.964908 0.576941 0.794280 -0.363025
C43   C     C_3   0.876559 0.579649 0.881475 -0.793123
H25   H     H_    0.987605 0.597947 0.929009 0.224460
H26   H     H_    0.758107 0.630656 0.883447 0.225180
H27   H     H_    0.816858 0.511213 0.896759 0.224767
H28   H     H_    0.851557 0.558908 0.747702 0.182502
H29   H     H_    0.078278 0.523451 0.792062 0.165750
C44   C     C_3   0.145155 0.266857 0.124970 -0.293386
C45   C     C_3   0.248844 0.323219 0.058317 -0.755081
H30   H     H_    0.303005 0.388007 0.085938 0.228256
H31   H     H_    0.370002 0.283701 0.030704 0.222505
H32   H     H_    0.146652 0.340204 0.007045 0.206058
H33   H     H_    0.090127 0.203773 0.093857 0.202434
H34   H     H_    0.017480 0.305963 0.146862 0.185588
C46   C     C_3   0.587776 0.591195 0.232398 -0.241405
C47   C     C_3   0.478021 0.523882 0.175969 -0.731777
H35   H     H_    0.338945 0.505748 0.205278 0.205852
H36   H     H_    0.449517 0.551121 0.112631 0.255418
H37   H     H_    0.565950 0.461149 0.167719 0.200311
H38   H     H_    0.735993 0.599941 0.208337 0.177363
H39   H     H_    0.603123 0.559160 0.295085 0.170221

loop_
_geom_bond_atom_site_label_1
_geom_bond_atom_site_label_2
_ccdc_geom_bond_type
C19   H8    S    
C46   H38   S    
O12   V3    S    
C5    C42   S    
C37   O16   A    
O19   C40   A    
C20   H9    S    
O17   V3    S    
C18   C19   S    
C14   C40   S    
C6    C11   S    
C17   C18   A    
C16   H7    S    
O5    C3    A    
C19   C20   S    
C47   H35   S    
O17   V4    S    
C31   C32   A    
C44   H33   S    
C29   C30   A    
C32   C33   A    
C6    H1    S    
C11   H5    S    
C42   H28   S    
O8    V2    S    
C45   H30   S    
C36   H19   S    
C9    C12   S    
C27   H12   S    
C10   C11   S    
O1    V2    S    
C3    C17   S    
O7    V1    S    
C6    C7    S    
C1    O6    A    
C21   C28   S    
O13   C40   A    
C35   C44   S    
C46   H39   S    
O15   C39   A    
O9    C4    A    
O14   C38   A    
C25   C38   S    
O16   V4    S    
O19   V4    S    
C8    H2    S    
C23   C24   A    
C27   C28   S    
N1    C41   S    
C24   C25   A    
C27   H13   S    
V2    O10   S    
C7    C39   S    
C11   C12   S    
C42   C43   S    
O4    C2    A    
C31   H16   S    
N1    H21   S    
C43   H27   S    
C5    C8    S    
O18   C39   A    
C13   C18   A    
C32   H17   S    
C35   H18   S    
O2    C1    A    
C22   C23   A    
C33   C34   A    
O11   V4    S    
V4    O20   S    
C7    C10   S    
O14   V3    S    
C36   H20   S    
C43   H26   S    
C5    C6    S    
C29   C34   A    
C33   C37   S    
C10   H4    S    
C42   H29   S    
O3    C4    A    
C25   C26   A    
C45   H31   S    
C44   C45   S    
O6    V2    S    
C9    H3    S    
C41   H23   S    
C21   C22   A    
C20   N1    S    
O2    V1    S    
C23   H10   S    
C24   H11   S    
O1    C2    A    
C14   C15   A    
O5    V1    S    
O8    C3    A    
C1    C22   S    
C46   C47   S    
C28   H14   S    
C5    C12   S    
C15   H6    S    
C19   C46   S    
O9    V2    S    
O7    V2    S    
O4    V1    S    
O3    V1    S    
V1    O10   S    
C35   C36   S    
O18   V4    S    
C30   C31   A    
C13   C14   A    
C47   H36   S    
C44   H34   S    
C43   H25   S    
C16   C17   A    
C13   C20   S    
O11   C38   A    
C28   H15   S    
C4    C12   S    
C21   C26   A    
C34   C35   S    
V3    O20   S    
C45   H32   S    
C7    C8    S    
C41   H22   S    
C26   C27   S    
O15   V3    S    
C41   H24   S    
C9    C10   S    
O12   C37   A    
C8    C9    S    
C2    C30   S    
O13   V3    S    
C29   C36   S    
C15   C16   A    
C47   H37   S    
