data_mof_unit_61950.cif
_audit_creation_date              2012-10-26T18:58:27-0400
_audit_creation_method            fapswitch 2.2
_symmetry_space_group_name_H-M    P1
_symmetry_Int_Tables_number       1
_space_group_crystal_system       triclinic
_cell_length_a                    19.583994
_cell_length_b                    18.207766
_cell_length_c                    16.016673
_cell_angle_alpha                 90.004629
_cell_angle_beta                  92.157361
_cell_angle_gamma                 90.025129
_cell_volume                      5707.18909481

loop_
_atom_site_label
_atom_site_type_symbol
_atom_type_description
_atom_site_fract_x
_atom_site_fract_y
_atom_site_fract_z
_atom_type_partial_charge
C1    C     C_R   0.367425 0.499981 0.502999 0.545500
C2    C     C_R   0.928397 0.500199 0.497169 0.032902
C3    C     C_R   0.458799 0.721569 0.443646 0.119514
C4    C     C_R   0.541201 0.278431 0.556354 0.119514
C5    C     C_R   0.541212 0.721609 0.556346 0.119285
C6    C     C_R   0.458788 0.278391 0.443654 0.119284
C7    C     C_R   0.457943 0.799430 0.442762 -0.050775
C8    C     C_R   0.542057 0.200570 0.557238 -0.050775
C9    C     C_R   0.542065 0.799472 0.557242 -0.050779
C10   C     C_R   0.457934 0.200528 0.442758 -0.050779
C11   C     C_R   0.500003 0.839239 0.500005 -0.032430
C12   C     C_R   0.632575 0.500019 0.497001 0.545500
C13   C     C_R   0.499997 0.160761 0.499994 -0.032430
C14   C     C_R   0.477288 0.961410 0.569141 -0.078364
C15   C     C_R   0.522712 0.038589 0.430859 -0.078364
C16   C     C_R   0.522717 0.961419 0.430864 -0.078401
C17   C     C_R   0.477283 0.038581 0.569136 -0.078401
C18   C     C_R   0.499995 0.078093 0.499995 0.032904
C19   C     C_R   0.500005 0.921906 0.500005 0.032904
C20   C     C_R   0.499761 0.499997 0.341290 0.567113
C21   C     C_R   0.500239 0.500003 0.658709 0.567113
C22   C     C_R   0.497537 0.567450 0.956236 0.286239
C23   C     C_R   0.708698 0.500087 0.491949 -0.012343
C24   C     C_R   0.502463 0.432550 0.043764 0.286239
C25   C     C_R   0.496303 0.567391 0.043482 0.286181
C26   C     C_R   0.503696 0.432609 0.956518 0.286181
C27   C     C_R   0.500997 0.500046 0.912310 -0.080753
C28   C     C_R   0.499003 0.499954 0.087690 -0.080753
C29   C     C_1   0.500820 0.500030 0.822512 -0.061478
C30   C     C_1   0.499180 0.499970 0.177488 -0.061478
C31   C     C_1   0.499440 0.499986 0.252412 0.005645
C32   C     C_1   0.500560 0.500014 0.747588 0.005645
C33   C     C_R   0.746193 0.433022 0.489585 -0.021129
C34   C     C_R   0.291301 0.499913 0.508051 -0.012344
C35   C     C_R   0.253807 0.566978 0.510415 -0.021129
C36   C     C_R   0.253895 0.432769 0.510884 -0.020887
C37   C     C_R   0.746105 0.567231 0.489116 -0.020887
C38   C     C_R   0.817458 0.434018 0.492050 -0.116268
C39   C     C_R   0.182542 0.565982 0.507949 -0.116268
C40   C     C_R   0.182630 0.433575 0.508460 -0.114914
C41   C     C_R   0.817370 0.566425 0.491540 -0.114914
C42   C     C_R   0.853249 0.500263 0.494287 0.002283
C43   C     C_R   0.146751 0.499736 0.505713 0.002283
C44   C     C_1   0.714499 0.361723 0.479666 0.242669
C45   C     C_R   0.964343 0.547142 0.444979 -0.101616
C46   C     C_1   0.285501 0.638276 0.520334 0.242669
C47   C     C_1   0.285683 0.361549 0.520826 0.241939
C48   C     C_1   0.714317 0.638451 0.479173 0.241939
C49   C     C_1   0.414871 0.682173 0.384605 0.295837
C50   C     C_1   0.585129 0.317827 0.615395 0.295836
C51   C     C_1   0.585173 0.682252 0.615337 0.296119
C52   C     C_1   0.414827 0.317748 0.384663 0.296119
C53   C     C_1   0.412544 0.838345 0.384396 0.207239
C54   C     C_1   0.587456 0.161655 0.615603 0.207239
C55   C     C_1   0.587468 0.838433 0.615608 0.207273
C56   C     C_R   0.035657 0.452858 0.555021 -0.101616
C57   C     C_1   0.412532 0.161567 0.384392 0.207273
C58   C     C_R   0.035458 0.546962 0.447828 -0.099816
C59   C     C_R   0.964542 0.453037 0.552172 -0.099817
C60   C     C_R   0.071602 0.499801 0.502831 0.032902
Cu1   Cu    Cu3+1 0.500000 0.573360 0.500000 1.017937
Cu2   Cu    Cu3+1 0.500000 0.426640 0.500000 1.017937
H1    H     H_    0.845422 0.382632 0.490291 0.125711
H2    H     H_    0.540747 0.067629 0.376951 0.133991
H3    H     H_    0.540754 0.932386 0.376958 0.133855
H4    H     H_    0.459246 0.067613 0.623041 0.133855
H5    H     H_    0.489980 0.629473 0.143554 0.333141
H6    H     H_    0.510020 0.370527 0.856446 0.333141
H7    H     H_    0.498195 0.629888 0.855907 0.332476
H8    H     H_    0.501805 0.370112 0.144093 0.332476
H9    H     H_    0.154578 0.617368 0.509709 0.125711
H10   H     H_    0.154789 0.382042 0.508560 0.125080
H11   H     H_    0.845210 0.617958 0.491439 0.125080
H12   H     H_    0.937421 0.583184 0.401195 0.119765
H13   H     H_    0.062579 0.416816 0.598805 0.119765
H14   H     H_    0.062267 0.582937 0.406297 0.123220
H15   H     H_    0.937733 0.417063 0.593703 0.123220
H16   H     H_    0.459253 0.932371 0.623049 0.133990
N1    N     N_R   0.500000 0.683620 0.500000 -0.265119
N2    N     N_1   0.379269 0.348595 0.337128 -0.269167
N3    N     N_1   0.376326 0.869419 0.337862 -0.231720
N4    N     N_1   0.623675 0.130581 0.662137 -0.231720
N5    N     N_1   0.623689 0.869544 0.662141 -0.231619
N6    N     N_1   0.376311 0.130456 0.337858 -0.231619
N7    N     N_R   0.500000 0.316380 0.500000 -0.265119
N8    N     N_1   0.689880 0.304304 0.470946 -0.278064
N9    N     N_1   0.310120 0.695696 0.529054 -0.278064
N10   N     N_1   0.310378 0.304194 0.529567 -0.278763
N11   N     N_1   0.689622 0.695806 0.470432 -0.278763
N12   N     N_1   0.379342 0.651298 0.337026 -0.270853
N13   N     N_1   0.620658 0.348702 0.662973 -0.270853
N14   N     N_1   0.620731 0.651405 0.662872 -0.269167
O1    O     O_R   0.400190 0.561980 0.499990 -0.493146
O2    O     O_3   0.507362 0.364824 0.917576 -0.602573
O3    O     O_3   0.495007 0.635290 0.917010 -0.602911
O4    O     O_3   0.504992 0.364710 0.082990 -0.602911
O5    O     O_R   0.599810 0.438020 0.500010 -0.493146
O6    O     O_R   0.599810 0.561980 0.500010 -0.493107
O7    O     O_R   0.400190 0.438020 0.499990 -0.493106
O8    O     O_R   0.499980 0.561940 0.380310 -0.498376
O9    O     O_R   0.500020 0.438060 0.619690 -0.498376
O10   O     O_R   0.500020 0.561940 0.619690 -0.498445
O11   O     O_R   0.499980 0.438060 0.380310 -0.498445
O12   O     O_3   0.492638 0.635176 0.082424 -0.602573

loop_
_geom_bond_atom_site_label_1
_geom_bond_atom_site_label_2
_ccdc_geom_bond_type
C26   O2    S    
C15   C18   A    
C8    C13   A    
C27   C29   S    
C22   O3    S    
H8    O4    S    
Cu1   O6    S    
C49   N12   T    
C4    C8    A    
C3    N1    A    
C59   H15   S    
C3    C49   S    
C58   H14   S    
C20   O11   A    
C25   C28   A    
C7    C11   A    
C12   C23   S    
C11   C19   S    
C17   H4    S    
C6    N7    A    
C13   C18   S    
C24   C26   A    
C38   C42   A    
C29   C32   T    
C3    C7    A    
C24   O4    S    
C30   C31   T    
Cu1   O1    S    
C58   C60   A    
C15   C16   A    
C36   C47   S    
C53   N3    T    
C34   C35   A    
C41   C42   A    
C38   H1    S    
C40   C43   A    
C23   C33   A    
C22   C25   A    
C1    C34   S    
C15   H2    S    
C9    C55   S    
C5    N1    A    
C12   O6    A    
Cu2   O9    S    
C21   O9    A    
C56   H13   S    
C14   C17   A    
C1    O7    A    
C44   N8    T    
C21   C32   S    
H5    O12   S    
C2    C45   A    
Cu2   N7    S    
C45   C58   A    
C36   C40   A    
C10   C57   S    
C8    C54   S    
C2    C59   A    
C39   C43   A    
C4    N7    A    
C23   C37   A    
H6    O2    S    
C56   C60   A    
C4    C50   S    
C45   H12   S    
C35   C39   A    
C5    C9    A    
C51   N14   T    
Cu2   O5    S    
C20   O8    A    
C2    C42   S    
C17   C18   A    
C26   C27   A    
C57   N6    T    
C37   C48   S    
C9    C11   A    
C12   O5    A    
C43   C60   S    
C21   O10   A    
C48   N11   T    
Cu1   O8    S    
C7    C53   S    
C55   N5    T    
C54   N4    T    
C46   N9    T    
C40   H10   S    
C33   C44   S    
C14   C19   A    
C24   C28   A    
H7    O3    S    
C10   C13   A    
Cu2   O11   S    
C25   O12   S    
C33   C38   A    
C56   C59   A    
C22   C27   A    
C47   N10   T    
C28   C30   S    
Cu1   O10   S    
Cu1   N1    S    
C16   C19   A    
C34   C36   A    
C14   H16   S    
C37   C41   A    
Cu1   Cu2   S    
C6    C10   A    
C41   H11   S    
Cu2   O7    S    
C50   N13   T    
C1    O1    A    
C39   H9    S    
C5    C51   S    
C16   H3    S    
C6    C52   S    
C52   N2    T    
C35   C46   S    
C20   C31   S    
