data_mof_unit_7404.cif
_audit_creation_date              2012-12-11T16:26:07-0500
_audit_creation_method            fapswitch 2.2
_symmetry_space_group_name_H-M    P1
_symmetry_Int_Tables_number       1
_space_group_crystal_system       triclinic
_cell_length_a                    13.944465
_cell_length_b                    13.941937
_cell_length_c                    31.988434
_cell_angle_alpha                 90.242269
_cell_angle_beta                  89.82236
_cell_angle_gamma                 119.994172
_cell_volume                      5386.04430235

loop_
_atom_site_label
_atom_site_type_symbol
_atom_type_description
_atom_site_fract_x
_atom_site_fract_y
_atom_site_fract_z
_atom_type_partial_charge
C1    C     C_R   0.567489 0.444564 0.810361 0.589344
C2    C     C_R   0.876895 0.432353 0.689585 0.580560
C3    C     C_R   0.555526 0.122976 0.810374 0.586119
C4    C     C_R   0.566316 0.444188 0.689738 0.571890
C5    C     C_R   0.877956 0.433855 0.810284 0.575834
C6    C     C_R   0.555720 0.121916 0.689741 0.566660
C7    C     C_R   0.444167 0.566978 0.310420 0.570293
C8    C     C_R   0.432818 0.876568 0.189370 0.579612
C9    C     C_R   0.123049 0.556181 0.310564 0.570523
C10   C     C_R   0.443902 0.567136 0.189363 0.579047
C11   C     C_R   0.433118 0.877520 0.310382 0.569750
C12   C     C_R   0.122599 0.555556 0.189638 0.577487
C13   C     C_1   0.010940 0.542319 0.018396 0.107132
C14   C     C_1   0.533003 0.988990 0.481718 0.107337
C15   C     C_1   0.442843 0.471843 0.016483 0.106398
C16   C     C_1   0.021074 0.552743 0.482844 0.104006
C17   C     C_1   0.531038 0.975699 0.016823 0.101690
C18   C     C_1   0.455713 0.467330 0.481824 0.103541
C19   C     C_1   0.540536 0.003936 0.518923 0.107344
C20   C     C_1   0.995044 0.534352 0.981278 0.107978
C21   C     C_1   0.463412 0.459655 0.519001 0.103170
C22   C     C_1   0.540340 0.993797 0.979833 0.103302
C23   C     C_1   0.003631 0.544150 0.519869 0.104996
C24   C     C_1   0.451427 0.462593 0.979461 0.108804
C25   C     C_R   0.933398 0.474865 0.851266 -0.024880
C26   C     C_R   0.540685 0.065728 0.648860 -0.042423
C27   C     C_R   0.531230 0.461246 0.851700 -0.020698
C28   C     C_R   0.929235 0.468272 0.648135 -0.028745
C29   C     C_R   0.539255 0.069911 0.851663 -0.019762
C30   C     C_R   0.525300 0.458930 0.648878 -0.035222
C31   C     C_R   0.471868 0.931418 0.351685 -0.036315
C32   C     C_R   0.069366 0.540146 0.148295 -0.030066
C33   C     C_R   0.458836 0.528545 0.351782 -0.035857
C34   C     C_R   0.469475 0.925635 0.147247 -0.027652
C35   C     C_R   0.072338 0.543435 0.352447 -0.035391
C36   C     C_R   0.456360 0.530618 0.147140 -0.027164
C37   C     C_R   0.956498 0.579330 0.867743 0.210717
C38   C     C_R   0.619954 0.038853 0.633062 0.220146
C39   C     C_R   0.418116 0.412579 0.862749 0.220093
C40   C     C_R   0.987689 0.581144 0.636293 0.239183
C41   C     C_R   0.595568 0.013292 0.863451 0.217349
C42   C     C_R   0.419285 0.379438 0.633137 0.224422
C43   C     C_R   0.579506 0.963280 0.366817 0.228678
C44   C     C_R   0.036295 0.614809 0.133199 0.213255
C45   C     C_R   0.383551 0.420724 0.366906 0.229065
C46   C     C_R   0.577454 0.958803 0.132041 0.214560
C47   C     C_R   0.042738 0.620846 0.368047 0.227680
C48   C     C_R   0.379869 0.423527 0.131618 0.215527
C49   C     C_R   0.964453 0.595443 0.911676 0.230500
C50   C     C_R   0.628800 0.029830 0.589208 0.243951
C51   C     C_R   0.388684 0.401344 0.905757 0.243134
C52   C     C_R   0.002738 0.608298 0.593156 0.257254
C53   C     C_R   0.607603 0.998031 0.906604 0.243939
C54   C     C_R   0.401557 0.370739 0.589280 0.252752
C55   C     C_R   0.597916 0.970766 0.410585 0.250044
C56   C     C_R   0.029157 0.625802 0.089448 0.237617
C57   C     C_R   0.372698 0.402202 0.410699 0.251359
C58   C     C_R   0.595318 0.961760 0.088249 0.237788
C59   C     C_R   0.038917 0.634221 0.411884 0.250655
C60   C     C_R   0.364411 0.407065 0.087822 0.237204
C61   C     C_R   0.975884 0.518863 0.936978 -0.025425
C62   C     C_R   0.543183 0.022204 0.563299 -0.027725
C63   C     C_R   0.473222 0.459020 0.935685 -0.022815
C64   C     C_R   0.980102 0.523423 0.563747 -0.027303
C65   C     C_R   0.543465 0.018093 0.935987 -0.021610
C66   C     C_R   0.479234 0.456711 0.563359 -0.026041
C67   C     C_R   0.517147 0.971248 0.437351 -0.028829
C68   C     C_R   0.029676 0.545024 0.062667 -0.027640
C69   C     C_R   0.453472 0.483311 0.437460 -0.027905
C70   C     C_R   0.513202 0.956831 0.061110 -0.026527
C71   C     C_R   0.039375 0.553902 0.438534 -0.028013
C72   C     C_R   0.442501 0.488992 0.060841 -0.027010
C73   C     C_R   0.969663 0.424221 0.919304 -0.134165
C74   C     C_R   0.456215 0.031977 0.580373 -0.129496
C75   C     C_R   0.583989 0.517668 0.923414 -0.140437
C76   C     C_R   0.934835 0.413785 0.576721 -0.148623
C77   C     C_R   0.477349 0.061347 0.922989 -0.151823
C78   C     C_R   0.575863 0.543660 0.580409 -0.148859
C79   C     C_R   0.417557 0.955685 0.421108 -0.142400
C80   C     C_R   0.046603 0.461892 0.078871 -0.144593
C81   C     C_R   0.536789 0.583350 0.421195 -0.147423
C82   C     C_R   0.412131 0.938569 0.077062 -0.150489
C83   C     C_R   0.053387 0.468754 0.422136 -0.146492
C84   C     C_R   0.527125 0.588637 0.076998 -0.146843
C85   C     C_R   0.944658 0.400344 0.877261 -0.136438
C86   C     C_R   0.456885 0.057286 0.622368 -0.143300
C87   C     C_R   0.612950 0.515452 0.882168 -0.144677
C88   C     C_R   0.906000 0.385927 0.618180 -0.152579
C89   C     C_R   0.478276 0.090664 0.881603 -0.156068
C90   C     C_R   0.600615 0.542775 0.622329 -0.150102
C91   C     C_R   0.393452 0.932100 0.379033 -0.149606
C92   C     C_R   0.070321 0.461822 0.120913 -0.148550
C93   C     C_R   0.537263 0.607349 0.379150 -0.150920
C94   C     C_R   0.388891 0.919039 0.119399 -0.150685
C95   C     C_R   0.073699 0.465822 0.379814 -0.150191
C96   C     C_R   0.531549 0.611003 0.119468 -0.150631
Cr1   Cr    Cr6+3 0.504240 0.249200 0.750000 1.180322
Cr2   Cr    Cr6+3 0.744960 0.495760 0.750000 1.182052
Cr3   Cr    Cr6+3 0.750800 0.255040 0.750000 1.189769
Cr4   Cr    Cr6+3 0.249200 0.504240 0.250000 1.188597
Cr5   Cr    Cr6+3 0.495760 0.744960 0.250000 1.189452
Cr6   Cr    Cr6+3 0.255040 0.750800 0.250000 1.190152
O1    O     O_R   0.480350 0.140770 0.796330 -0.488375
O2    O     O_R   0.660420 0.519650 0.703670 -0.492377
O3    O     O_R   0.859230 0.339580 0.796330 -0.488719
O4    O     O_R   0.480350 0.140770 0.703670 -0.482904
O5    O     O_R   0.660420 0.519650 0.796330 -0.461505
O6    O     O_R   0.859230 0.339580 0.703670 -0.470509
O7    O     O_R   0.140770 0.480350 0.296330 -0.483469
O8    O     O_R   0.519650 0.660420 0.203670 -0.483555
O9    O     O_R   0.339580 0.859230 0.296330 -0.484387
O10   O     O_R   0.140770 0.480350 0.203670 -0.484807
O11   O     O_R   0.519650 0.660420 0.296330 -0.483706
O12   O     O_R   0.339580 0.859230 0.203670 -0.482195
O13   O     O_R   0.514930 0.348530 0.793250 -0.463698
O14   O     O_R   0.833600 0.485070 0.706750 -0.457323
O15   O     O_R   0.651470 0.166400 0.793250 -0.455110
O16   O     O_R   0.514930 0.348530 0.706750 -0.440680
O17   O     O_R   0.833600 0.485070 0.793250 -0.447214
O18   O     O_R   0.651470 0.166400 0.706750 -0.444638
O19   O     O_R   0.348530 0.514930 0.293250 -0.444708
O20   O     O_R   0.485070 0.833600 0.206750 -0.447132
O21   O     O_R   0.166400 0.651470 0.293250 -0.444945
O22   O     O_R   0.348530 0.514930 0.206750 -0.446440
O23   O     O_R   0.485070 0.833600 0.293250 -0.444506
O24   O     O_R   0.166400 0.651470 0.206750 -0.444775
O25   O     O_3   0.666667 0.333333 0.750000 -0.327919
O26   O     O_3   0.333333 0.666667 0.250000 -0.329413
S1    S     S_3+6 0.992221 0.692851 0.833460 0.113705
O27   O     O_2   0.890362 0.697288 0.821533 -0.198715
O28   O     O_2   0.073857 0.800292 0.853924 -0.191976
O29   O     O_3   0.050928 0.677085 0.790064 -0.465581
H1    H     H_    0.083420 0.749572 0.775739 0.397290
S2    S     S_3+6 0.694696 0.001207 0.668151 0.110270
O30   O     O_2   0.802681 0.101846 0.679711 -0.218232
O31   O     O_2   0.627496 0.952596 0.707064 -0.232426
O32   O     O_3   0.719584 0.905690 0.646452 -0.443807
H2    H     H_    0.764719 0.893508 0.667325 0.384492
S3    S     S_3+6 0.320267 0.387199 0.822634 0.121106
O33   O     O_2   0.277293 0.272942 0.804905 -0.171023
O34   O     O_2   0.225188 0.398263 0.839224 -0.215586
O35   O     O_3   0.383412 0.481137 0.784495 -0.490754
H3    H     H_    0.326970 0.498394 0.774025 0.393521
S4    S     S_3+6 0.057598 0.683285 0.675499 0.094383
O36   O     O_2   0.981016 0.719911 0.693171 -0.225596
O37   O     O_2   0.092379 0.633614 0.709701 -0.256211
O38   O     O_3   0.171881 0.793332 0.656234 -0.440539
H4    H     H_    0.202396 0.846462 0.679823 0.375671
S5    S     S_3+6 0.629154 0.944670 0.824035 0.122709
O39   O     O_2   0.741523 0.022070 0.806086 -0.170778
O40   O     O_2   0.628060 0.844013 0.841382 -0.200207
O41   O     O_3   0.533640 0.904184 0.785916 -0.490122
H5    H     H_    0.518613 0.829610 0.777282 0.392262
S6    S     S_3+6 0.306781 0.303870 0.668306 0.114648
O42   O     O_2   0.300197 0.196154 0.679543 -0.221772
O43   O     O_2   0.324488 0.370572 0.707407 -0.231158
O44   O     O_3   0.186281 0.278219 0.646806 -0.435371
H6    H     H_    0.128744 0.231025 0.667352 0.390641
S7    S     S_3+6 0.691935 0.009077 0.330970 0.107309
O45   O     O_2   0.704952 0.912838 0.317390 -0.217940
O46   O     O_2   0.668436 0.058040 0.293373 -0.248304
O47   O     O_3   0.810765 0.107076 0.352637 -0.442425
H7    H     H_    0.868366 0.123638 0.331199 0.384694
S8    S     S_3+6 0.986670 0.677950 0.169129 0.113992
O48   O     O_2   0.080497 0.786590 0.184326 -0.180620
O49   O     O_2   0.900440 0.697278 0.149048 -0.209148
O50   O     O_3   0.929023 0.592775 0.210096 -0.480829
H8    H     H_    0.862485 0.597649 0.217368 0.392397
S9    S     S_3+6 0.317446 0.308316 0.330959 0.105734
O51   O     O_2   0.207972 0.294764 0.317733 -0.218738
O52   O     O_2   0.389936 0.332257 0.293162 -0.250606
O53   O     O_3   0.297251 0.189623 0.352348 -0.443029
H9    H     H_    0.256328 0.132002 0.330901 0.384429
S10   S     S_3+6 0.690705 0.015319 0.167547 0.112949
O54   O     O_2   0.708692 0.925249 0.184596 -0.180310
O55   O     O_2   0.794753 0.100900 0.146263 -0.211478
O56   O     O_3   0.661771 0.076333 0.207196 -0.482458
H10   H     H_    0.733846 0.140678 0.215353 0.393125
S11   S     S_3+6 0.992842 0.684692 0.332985 0.106949
O57   O     O_2   0.087305 0.792964 0.317924 -0.216984
O58   O     O_2   0.939594 0.609359 0.296222 -0.248329
O59   O     O_3   0.897328 0.706856 0.356322 -0.443912
H11   H     H_    0.877618 0.745732 0.335149 0.384391
S12   S     S_3+6 0.321379 0.309251 0.166568 0.113013
O60   O     O_2   0.213712 0.292328 0.183892 -0.183470
O61   O     O_2   0.301732 0.205429 0.144563 -0.208176
O62   O     O_3   0.410373 0.335520 0.206104 -0.482645
H12   H     H_    0.397548 0.262062 0.215015 0.394276
S13   S     S_3+6 0.031921 0.744918 0.068141 0.090919
O63   O     O_2   0.095504 0.776277 0.027783 -0.239546
O64   O     O_2   0.915286 0.719318 0.060255 -0.188816
O65   O     O_3   0.094267 0.853760 0.100856 -0.463742
H13   H     H_    0.089234 0.914269 0.086802 0.394908
S14   S     S_3+6 0.714069 0.967814 0.432108 0.091705
O66   O     O_2   0.804237 0.084387 0.440960 -0.186989
O67   O     O_2   0.680775 0.902747 0.472026 -0.239506
O68   O     O_3   0.762545 0.907138 0.399416 -0.474567
H14   H     H_    0.828147 0.912849 0.413697 0.388276
S15   S     S_3+6 0.243742 0.292239 0.066354 0.082894
O69   O     O_2   0.203986 0.331275 0.030127 -0.246610
O70   O     O_2   0.272419 0.207396 0.051284 -0.205874
O71   O     O_3   0.140042 0.233952 0.101335 -0.453078
H15   H     H_    0.077926 0.172378 0.086066 0.393679
S16   S     S_3+6 0.044945 0.754673 0.433939 0.086080
O72   O     O_2   0.930655 0.726799 0.447559 -0.198750
O73   O     O_2   0.120457 0.791375 0.471225 -0.243502
O74   O     O_3   0.094748 0.860659 0.400015 -0.467645
H16   H     H_    0.093641 0.921894 0.415415 0.388697
S17   S     S_3+6 0.712560 0.959897 0.066996 0.084219
O75   O     O_2   0.677365 0.884775 0.029478 -0.241100
O76   O     O_2   0.797250 0.075277 0.053985 -0.208114
O77   O     O_3   0.769374 0.912360 0.101575 -0.451202
H17   H     H_    0.833693 0.916017 0.086832 0.394351
S18   S     S_3+6 0.254202 0.285359 0.432304 0.091595
O78   O     O_2   0.281529 0.195745 0.440694 -0.190287
O79   O     O_2   0.222117 0.317941 0.472495 -0.237709
O80   O     O_3   0.144946 0.236387 0.399892 -0.471821
H18   H     H_    0.085446 0.170385 0.414159 0.388551
S19   S     S_3+6 0.749736 0.038889 0.566318 0.090635
O81   O     O_2   0.728461 0.923983 0.557384 -0.180092
O82   O     O_2   0.776177 0.102877 0.526235 -0.245412
O83   O     O_3   0.860644 0.104560 0.597722 -0.468632
H19   H     H_    0.921648 0.102868 0.582416 0.395012
S20   S     S_3+6 0.949607 0.703312 0.935328 0.088714
O84   O     O_2   0.887635 0.663095 0.975829 -0.253671
O85   O     O_2   0.062503 0.800861 0.943605 -0.168280
O86   O     O_3   0.878365 0.743372 0.904677 -0.465070
H20   H     H_    0.869183 0.797848 0.921643 0.388173
S21   S     S_3+6 0.290604 0.249291 0.566351 0.091642
O87   O     O_2   0.195872 0.268913 0.557884 -0.182536
O88   O     O_2   0.328818 0.223970 0.526003 -0.242908
O89   O     O_3   0.246882 0.138365 0.597523 -0.477496
H21   H     H_    0.190667 0.075287 0.580876 0.377237
S22   S     S_3+6 0.709681 0.966882 0.924487 0.091459
O90   O     O_2   0.764214 0.034512 0.962893 -0.222599
O91   O     O_2   0.654846 0.845870 0.935075 -0.220203
O92   O     O_3   0.808852 0.997674 0.888424 -0.441381
H22   H     H_    0.861257 0.978594 0.901653 0.376937
S23   S     S_3+6 0.036576 0.742362 0.575351 0.095179
O93   O     O_2   0.157293 0.805973 0.563978 -0.225395
O94   O     O_2   0.968239 0.730596 0.537433 -0.221041
O95   O     O_3   0.009356 0.812915 0.611741 -0.441279
H23   H     H_    0.026074 0.883140 0.598006 0.374491
S24   S     S_3+6 0.251502 0.307932 0.922955 0.097032
O96   O     O_2   0.256639 0.246500 0.960545 -0.210062
O97   O     O_2   0.195804 0.372746 0.934737 -0.242520
O98   O     O_3   0.176403 0.213617 0.886173 -0.426979
H24   H     H_    0.101286 0.170076 0.898357 0.384719
H25   H     H_    0.093296 0.402483 0.131656 0.216010
H26   H     H_    0.311401 0.910197 0.368257 0.213308
H27   H     H_    0.591827 0.692976 0.130415 0.213427
H28   H     H_    0.094270 0.404726 0.368788 0.213129
H29   H     H_    0.306189 0.895217 0.130108 0.214892
H30   H     H_    0.596970 0.689595 0.368401 0.212879
H31   H     H_    0.393726 0.074445 0.633715 0.218040
H32   H     H_    0.930240 0.321255 0.865484 0.200218
H33   H     H_    0.680971 0.605943 0.633568 0.193959
H34   H     H_    0.433437 0.132704 0.873250 0.179371
H35   H     H_    0.862262 0.299085 0.626598 0.204410
H36   H     H_    0.699971 0.553745 0.874259 0.201751
H37   H     H_    0.047222 0.399949 0.058441 0.199075
H38   H     H_    0.355438 0.955844 0.441544 0.198259
H39   H     H_    0.587218 0.651636 0.056352 0.199709
H40   H     H_    0.053898 0.407098 0.442544 0.193315
H41   H     H_    0.348791 0.934439 0.056326 0.191055
H42   H     H_    0.598639 0.645827 0.441599 0.190739
H43   H     H_    0.390534 0.026257 0.560581 0.197503
H44   H     H_    0.978038 0.365188 0.938672 0.192440
H45   H     H_    0.635670 0.609557 0.560619 0.183674
H46   H     H_    0.428523 0.077380 0.945419 0.174700
H47   H     H_    0.916834 0.348450 0.554253 0.191084
H48   H     H_    0.649009 0.561355 0.946278 0.191053

loop_
_geom_bond_atom_site_label_1
_geom_bond_atom_site_label_2
_ccdc_geom_bond_type
C68   C80   A    
C39   C51   A    
S24   O97   D    
O44   H6    S    
C82   C94   A    
C21   C66   S    
C41   S5    S    
C18   C21   T    
C33   C45   A    
S9    O51   D    
S14   O67   D    
S23   O93   D    
O38   H4    S    
Cr1   O25   S    
C35   C47   A    
S20   O84   D    
S17   O77   S    
S2    O32   S    
C29   C89   A    
S12   O60   D    
Cr6   O9    S    
Cr2   O17   S    
C8    O20   A    
C5    O3    A    
C92   H25   S    
C78   C90   A    
S1    O28   D    
Cr3   O6    S    
C45   C57   A    
C54   C66   A    
C31   C43   A    
C5    O17   A    
Cr6   O12   S    
S8    O48   D    
C11   O23   A    
S1    O27   D    
S21   O89   S    
C10   O22   A    
S5    O40   D    
S7    O45   D    
S3    O35   S    
S18   O79   D    
S14   O68   S    
Cr3   O15   S    
C75   H48   S    
C60   C72   A    
C19   C62   S    
C3    O1    A    
C76   H47   S    
C50   S19   S    
Cr1   O16   S    
Cr5   O26   S    
Cr5   O11   S    
S24   O96   D    
C3    C29   S    
Cr4   O19   S    
C84   C96   A    
C78   H45   S    
C20   C61   S    
S13   O64   D    
C44   C56   A    
O59   H11   S    
C47   S11   S    
C3    O15   A    
C60   S15   S    
C25   C37   A    
Cr3   O18   S    
S10   O54   D    
C93   H30   S    
C2    O14   A    
C59   S16   S    
O35   H3    S    
C51   S24   S    
C37   S1    S    
O29   H1    S    
C43   S7    S    
C28   C88   A    
S15   O71   S    
Cr5   O23   S    
C14   C67   S    
C46   S10   S    
C84   H39   S    
C36   C48   A    
C34   C46   A    
C17   C22   T    
Cr1   O13   S    
C53   C65   A    
C82   H41   S    
C76   C88   A    
C54   S21   S    
S6    O43   D    
C52   S23   S    
C30   C90   A    
S1    O29   S    
C64   C76   A    
C18   C69   S    
S14   O66   D    
C11   C31   S    
S15   O69   D    
O50   H8    S    
O92   H22   S    
C46   C58   A    
S9    O52   D    
C4    O16   A    
C83   H40   S    
S13   O63   D    
C16   C71   S    
S22   O91   D    
C7    O19   A    
S4    O38   S    
Cr3   O3    S    
C6    O18   A    
C25   C85   A    
C48   C60   A    
C71   C83   A    
C9    O7    A    
C66   C78   A    
S17   O75   D    
C39   S3    S    
C72   C84   A    
C49   C61   A    
O71   H15   S    
C7    C33   S    
C11   O9    A    
O74   H16   S    
C23   C64   S    
C67   C79   A    
S6    O44   S    
S4    O37   D    
C52   C64   A    
S5    O41   S    
C27   C39   A    
S19   O81   D    
C48   S12   S    
S18   O78   D    
C26   C38   A    
C9    C35   S    
Cr3   O25   S    
C61   C73   A    
Cr5   O8    S    
C40   C52   A    
C4    C30   S    
Cr2   O5    S    
S20   O85   D    
C88   H35   S    
S22   O92   S    
C80   C92   A    
S13   O65   S    
C22   C65   S    
S21   O87   D    
C15   C72   S    
C73   H44   S    
C57   S18   S    
S19   O82   D    
C65   C77   A    
C81   C93   A    
C74   H43   S    
C36   C96   A    
Cr2   O14   S    
O86   H20   S    
S16   O74   S    
C26   C86   A    
C62   C74   A    
C83   C95   A    
S7    O46   D    
O95   H23   S    
C32   C44   A    
S7    O47   S    
C51   C63   A    
S23   O94   D    
C8    C34   S    
C74   C86   A    
C27   C87   A    
C6    O4    A    
S10   O56   S    
C41   C53   A    
C37   C49   A    
Cr1   O1    S    
C87   H36   S    
C1    O5    A    
C5    C25   S    
Cr1   O4    S    
C9    O21   A    
C43   C55   A    
C15   C24   T    
C42   S6    S    
S16   O73   D    
Cr4   O10   S    
C16   C23   T    
C31   C91   A    
C40   S4    S    
C49   S20   S    
C81   H42   S    
C50   C62   A    
S9    O53   S    
C94   H29   S    
S22   O90   D    
Cr6   O21   S    
S20   O86   S    
C12   O10   A    
O53   H9    S    
C1    C27   S    
O47   H7    S    
C73   C85   A    
C58   S17   S    
C75   C87   A    
C56   S13   S    
Cr2   O25   S    
C85   H32   S    
C13   C20   T    
C29   C41   A    
Cr4   O26   S    
C77   C89   A    
C79   C91   A    
C14   C19   T    
S8    O50   S    
C58   C70   A    
C80   H37   S    
C34   C94   A    
S4    O36   D    
Cr6   O24   S    
S18   O80   S    
C33   C93   A    
C95   H28   S    
S2    O31   D    
S3    O33   D    
S12   O62   S    
S2    O30   D    
C38   C50   A    
C8    O12   A    
C24   C63   S    
C44   S8    S    
O32   H2    S    
Cr6   O26   S    
Cr5   O20   S    
C96   H27   S    
S24   O98   S    
C57   C69   A    
O65   H13   S    
S11   O59   S    
S8    O49   D    
O80   H18   S    
C55   C67   A    
S21   O88   D    
C56   C68   A    
S5    O39   D    
C42   C54   A    
S19   O83   S    
S3    O34   D    
C7    O11   A    
C6    C26   S    
C63   C75   A    
Cr2   O2    S    
C4    O2    A    
C2    O6    A    
O89   H21   S    
S17   O76   D    
S12   O61   D    
C10   O8    A    
S23   O95   S    
O68   H14   S    
C38   S2    S    
O83   H19   S    
C70   C82   A    
S10   O55   D    
C69   C81   A    
C32   C92   A    
C47   C59   A    
S11   O57   D    
S6    O42   D    
Cr4   O7    S    
C55   S14   S    
C12   O24   A    
S16   O72   D    
O62   H12   S    
O56   H10   S    
C59   C71   A    
S15   O70   D    
C79   H38   S    
C28   C40   A    
C77   H46   S    
C30   C42   A    
C2    C28   S    
O41   H5    S    
C1    O13   A    
C10   C36   S    
Cr4   O22   S    
C89   H34   S    
C90   H33   S    
C17   C70   S    
C53   S22   S    
C13   C68   S    
C12   C32   S    
C45   S9    S    
C86   H31   S    
O98   H24   S    
O77   H17   S    
C35   C95   A    
S11   O58   D    
C91   H26   S    
