data_mof_unit_17928.cif
_audit_creation_date              2012-10-26T18:53:17-0400
_audit_creation_method            fapswitch 2.2
_symmetry_space_group_name_H-M    P1
_symmetry_Int_Tables_number       1
_space_group_crystal_system       triclinic
_cell_length_a                    14.714471
_cell_length_b                    14.778355
_cell_length_c                    15.88768
_cell_angle_alpha                 76.480337
_cell_angle_beta                  102.824646
_cell_angle_gamma                 115.251729
_cell_volume                      3008.64457314

loop_
_atom_site_label
_atom_site_type_symbol
_atom_type_description
_atom_site_fract_x
_atom_site_fract_y
_atom_site_fract_z
_atom_type_partial_charge
C1    C     C_R   0.880113 0.312329 0.515410 0.541102
C2    C     C_R   0.187306 0.795054 0.485078 -0.031627
C3    C     C_R   0.782159 0.029384 0.588575 -0.123217
C4    C     C_R   0.999854 0.500021 0.659608 0.538852
C5    C     C_R   0.849414 0.129968 0.570713 -0.118131
C6    C     C_R   0.707348 0.178392 0.512383 -0.137896
C7    C     C_R   0.638298 0.079902 0.538702 0.023623
C8    C     C_R   0.677036 0.003658 0.571578 0.050461
C9    C     C_R   0.531604 0.053903 0.526607 0.004846
C10   C     C_R   0.464908 0.949699 0.534355 0.028374
C11   C     C_R   0.506939 0.875617 0.559190 -0.078102
C12   C     C_3   0.970550 0.391507 0.065927 0.098933
C13   C     C_R   0.610664 0.902278 0.582041 -0.137154
C14   C     C_R   0.488248 0.127741 0.504426 0.203055
C15   C     C_R   0.387383 0.100644 0.466938 -0.016649
C16   C     C_R   0.119704 0.687463 0.488164 0.537873
C17   C     C_R   0.322256 0.998904 0.466925 0.001329
C18   C     C_R   0.358449 0.922851 0.510867 0.018287
C19   C     C_R   0.220181 0.972264 0.428301 0.231218
C20   C     C_R   0.154772 0.869514 0.433996 -0.151769
C21   C     C_R   0.286412 0.823464 0.531269 0.222385
C22   C     C_R   0.701937 0.643560 0.337577 -0.114401
C23   C     C_3   0.003529 0.501819 0.083340 0.079908
C24   C     C_R   0.790694 0.627614 0.369759 0.032863
C25   C     C_R   0.716221 0.511823 0.490623 0.065543
C26   C     C_R   0.623897 0.526245 0.462344 -0.038883
C27   C     C_R   0.616643 0.590748 0.381903 0.034199
C28   C     C_R   0.000320 0.500171 0.340400 0.548804
C29   C     C_R   0.538948 0.478225 0.509944 -0.002857
C30   C     C_R   0.447380 0.493717 0.475122 -0.029450
C31   C     C_R   0.436934 0.540218 0.386263 0.225580
C32   C     C_R   0.523360 0.597147 0.343724 0.290500
C33   C     C_R   0.541535 0.413490 0.590390 -0.100765
C34   C     C_3   0.110952 0.570580 0.055916 0.132473
C35   C     C_R   0.457050 0.363610 0.633748 -0.059779
C36   C     C_R   0.369981 0.384408 0.604260 0.021143
C37   C     C_R   0.367560 0.456758 0.528662 -0.074571
C38   C     C_R   0.285664 0.333505 0.649878 0.194776
C39   C     C_R   0.202362 0.362799 0.624458 0.351851
C40   C     C_3   0.970006 0.392168 0.967524 -0.266130
C41   C     C_R   0.286125 0.490134 0.511745 0.334051
C42   C     C_3   0.926537 0.545825 0.926054 -0.204009
C43   C     C_3   0.924561 0.542803 0.024353 0.048087
C44   C     C_1   0.001277 0.500631 0.250917 0.019866
C45   C     C_3   0.110670 0.566724 0.958516 0.161515
C46   C     C_3   0.002109 0.501955 0.916982 0.013937
C47   C     C_1   0.002297 0.501134 0.175530 0.042321
C48   C     C_1   0.000752 0.501218 0.824644 -0.013290
C49   C     C_1   0.999990 0.500641 0.749107 -0.004904
C50   C     C_R   0.812056 0.204955 0.531734 -0.010595
Cu1   Cu    Cu3+1 0.081750 0.475690 0.522550 1.091509
Cu2   Cu    Cu3+1 0.918250 0.524310 0.477450 0.954200
H1    H     H_    0.891329 0.346824 0.080503 0.147311
H2    H     H_    0.607020 0.397128 0.620852 0.100173
H3    H     H_    0.847515 0.489085 0.039796 0.158659
H4    H     H_    0.162321 0.530419 0.955099 0.169666
H5    H     H_    0.021213 0.357953 0.959434 0.139516
H6    H     H_    0.093656 0.362519 0.098022 0.378633
H7    H     H_    0.129960 0.650306 0.062735 0.147197
H8    H     H_    0.639402 0.842946 0.602747 0.113400
H9    H     H_    0.248997 0.714520 0.629702 0.341275
H10   H     H_    0.358553 0.159725 0.443442 0.207077
H11   H     H_    0.461603 0.796113 0.557839 0.185835
H12   H     H_    0.077958 0.847892 0.399893 0.124965
H13   H     H_    0.587060 0.222687 0.577706 0.319168
H14   H     H_    0.113825 0.015416 0.360649 0.333986
H15   H     H_    0.450643 0.659852 0.246641 0.378918
H16   H     H_    0.361299 0.626610 0.458658 0.317182
H17   H     H_    0.141605 0.297457 0.730958 0.314443
H18   H     H_    0.726318 0.459795 0.548087 0.129433
H19   H     H_    0.947585 0.624367 0.889566 0.190302
H20   H     H_    0.294159 0.456183 0.360041 0.355220
H21   H     H_    0.214860 0.204361 0.719460 0.335245
H22   H     H_    0.848990 0.500489 0.895553 0.097533
H23   H     H_    0.812252 0.971607 0.615222 0.118262
H24   H     H_    0.996978 0.690806 0.014436 0.341504
H25   H     H_    0.219279 0.697079 0.929227 0.340131
H26   H     H_    0.204596 0.569746 0.163975 0.357197
H27   H     H_    0.930248 0.148707 0.586227 0.162548
H28   H     H_    0.680748 0.235267 0.474407 0.188105
H29   H     H_    0.892325 0.344550 0.939001 0.112642
H30   H     H_    0.462000 0.310935 0.693047 0.179659
H31   H     H_    0.699555 0.694631 0.276688 0.171292
H32   H     H_    0.854859 0.665647 0.333801 0.137040
N1    N     N_R   0.795410 0.560790 0.443550 -0.237271
N2    N     N_R   0.204590 0.439170 0.556520 -0.193550
O1    O     O_R   0.977910 0.338120 0.529720 -0.455376
O2    O     O_3   0.310905 0.759541 0.602501 -0.700781
O3    O     O_3   0.538941 0.224919 0.523344 -0.722623
O4    O     O_3   0.186966 0.047140 0.383244 -0.693189
O5    O     O_3   0.516980 0.653638 0.261430 -0.686831
O6    O     O_3   0.289628 0.577442 0.455340 -0.611699
O7    O     O_3   0.119409 0.318769 0.668797 -0.671563
O8    O     O_3   0.343179 0.523315 0.336258 -0.669500
O9    O     O_3   0.285595 0.254343 0.716586 -0.715486
O10   O     O_3   0.938358 0.637413 0.041870 -0.696867
O11   O     O_3   0.144946 0.665375 0.910889 -0.722276
O12   O     O_R   0.839850 0.379180 0.491640 -0.514643
O13   O     O_3   0.186581 0.540588 0.109298 -0.702580
O14   O     O_R   0.069060 0.479460 0.639610 -0.454669
O15   O     O_R   0.931000 0.520530 0.601530 -0.515544
O16   O     O_R   0.160150 0.620820 0.508360 -0.429028
O17   O     O_R   0.022090 0.661880 0.470280 -0.518661
O18   O     O_R   0.069000 0.479470 0.398470 -0.450350
O19   O     O_R   0.930940 0.520540 0.360390 -0.504263
O20   O     O_3   0.029837 0.341931 0.122081 -0.656054

loop_
_geom_bond_atom_site_label_1
_geom_bond_atom_site_label_2
_ccdc_geom_bond_type
C1    O1    A    
Cu2   O17   S    
C20   H12   S    
C8    C13   A    
C18   C21   A    
C19   C20   A    
C7    C8    A    
H14   O4    S    
C13   H8    S    
C45   C46   S    
Cu1   O16   S    
H13   O3    S    
C41   N2    A    
C12   C23   S    
C26   C27   A    
Cu2   N1    S    
H17   O7    S    
C30   C31   A    
C32   O5    S    
C29   C33   A    
Cu1   O14   S    
C23   C43   S    
C15   C17   A    
C42   C46   S    
C39   O7    S    
H16   O6    S    
C35   C36   A    
C45   H4    S    
C38   O9    S    
H25   O11   S    
C5    H27   S    
C2    C16   S    
C9    C10   A    
C12   H1    S    
C44   C47   T    
H20   O8    S    
C21   O2    S    
C37   C41   A    
Cu1   N2    S    
C25   N1    A    
C35   H30   S    
C43   O10   S    
C46   C48   S    
Cu2   O15   S    
C42   H22   S    
C23   C47   S    
C2    C20   A    
Cu1   Cu2   S    
C3    C8    A    
Cu1   O1    S    
C17   C19   A    
C24   N1    A    
Cu1   O18   S    
C28   C44   S    
C30   C37   A    
H6    O20   S    
C12   C40   S    
C40   C46   S    
C9    C14   A    
C14   O3    S    
C29   C30   A    
H9    O2    S    
C28   O18   A    
C16   O17   A    
C6    H28   S    
C31   C32   A    
C28   O19   A    
C23   C34   S    
C4    O15   A    
C2    C21   A    
H15   O5    S    
C17   C18   A    
C34   C45   S    
C6    C50   A    
C16   O16   A    
C48   C49   T    
Cu2   O19   S    
C22   C27   A    
C4    O14   A    
C34   H7    S    
C22   C24   A    
C5    C50   A    
C42   C43   S    
H21   O9    S    
C3    H23   S    
C1    C50   S    
C43   H3    S    
C33   H2    S    
C7    C9    A    
C36   C37   A    
C40   H5    S    
C27   C32   A    
C40   H29   S    
C3    C5    A    
C1    O12   A    
C6    C7    A    
C31   O8    S    
C34   O13   S    
C11   H11   S    
C4    C49   S    
C22   H31   S    
C36   C38   A    
C25   C26   A    
C19   O4    S    
C45   O11   S    
H24   O10   S    
C12   O20   S    
C11   C13   A    
C38   C39   A    
C10   C18   A    
Cu2   O12   S    
C42   H19   S    
C33   C35   A    
C15   H10   S    
C24   H32   S    
C10   C11   A    
C41   O6    S    
C26   C29   A    
H26   O13   S    
C14   C15   A    
C25   H18   S    
C39   N2    A    
