data_mof_unit_32076.cif
_audit_creation_date              2012-12-10T17:00:49-0500
_audit_creation_method            fapswitch 2.2
_symmetry_space_group_name_H-M    P1
_symmetry_Int_Tables_number       1
_space_group_crystal_system       triclinic
_cell_length_a                    10.886293
_cell_length_b                    10.696301
_cell_length_c                    10.034588
_cell_angle_alpha                 89.129597
_cell_angle_beta                  104.770966
_cell_angle_gamma                 90.081945
_cell_volume                      1129.70984627

loop_
_atom_site_label
_atom_site_type_symbol
_atom_type_description
_atom_site_fract_x
_atom_site_fract_y
_atom_site_fract_z
_atom_type_partial_charge
C1    C     C_R   0.493921 0.262602 0.499424 0.949588
C2    C     C_2   0.491972 0.869964 0.491928 -0.371667
C3    C     C_2   0.443260 0.069508 0.379289 -0.177975
C4    C     C_2   0.468473 0.132062 0.497067 -0.315828
C5    C     C_2   0.547712 0.589797 0.936814 -0.102185
C6    C     C_2   0.538786 0.593841 0.084040 -0.073013
C7    C     C_R   0.259560 0.496539 0.441715 0.954981
C8    C     C_R   0.495508 0.737361 0.497490 0.990016
C9    C     C_R   0.740432 0.503840 0.558260 0.955100
C10   C     C_2   0.123458 0.506236 0.406813 -0.340439
C11   C     C_2   0.060331 0.471011 0.499803 -0.169156
C12   C     C_2   0.876788 0.496855 0.592986 -0.425140
C13   C     C_2   0.938856 0.532223 0.498920 -0.046551
C14   C     C_2   0.424337 0.935104 0.381345 -0.013090
H1    H     H_    0.450561 0.431672 0.885264 0.193905
H2    H     H_    0.568516 0.679161 0.140116 0.168755
H3    H     H_    0.480875 0.418004 0.098067 0.176586
H4    H     H_    0.557140 0.914386 0.578256 0.153057
H5    H     H_    0.435892 0.116913 0.280958 0.207290
H6    H     H_    0.463531 0.088114 0.593894 0.175095
H7    H     H_    0.593728 0.667782 0.899070 0.167166
N1    N     N_2   0.501330 0.501330 0.852460 -0.187124
N2    N     N_2   0.501370 0.501360 0.148130 -0.184809
O1    O     O_R   0.499980 0.319060 0.613030 -0.606716
O2    O     O_R   0.500020 0.319100 0.386910 -0.618728
O3    O     O_R   0.317800 0.500000 0.570840 -0.607971
O4    O     O_R   0.317840 0.500040 0.344720 -0.586910
O5    O     O_R   0.499980 0.680900 0.613090 -0.618484
O6    O     O_R   0.500020 0.680940 0.386970 -0.600580
O7    O     O_R   0.682160 0.499960 0.655280 -0.605116
O8    O     O_R   0.682200 0.500000 0.429160 -0.589835
Zn1   Zn    Zn3+2 0.499970 0.499970 0.650990 0.997629
Zn2   Zn    Zn3+2 0.500030 0.500030 0.349010 1.005619
C15   C     C_2   0.883563 0.631045 0.393543 0.986860
O9    O     O_2   0.855880 0.733158 0.430945 -0.623487
O10   O     O_R   0.857811 0.604842 0.253016 -0.799759
H8    H     H_    0.819935 0.679089 0.192543 0.333401
C16   C     C_2   0.114160 0.370925 0.604518 1.003556
O11   O     O_2   0.127605 0.265222 0.566183 -0.560186
O12   O     O_R   0.153930 0.397206 0.745052 -0.770663
H9    H     H_    0.146195 0.489174 0.764467 0.310942
H10   H     H_    0.919939 0.439377 0.682410 0.175262
H11   H     H_    0.082000 0.565009 0.318139 0.200028
C17   C     C_2   0.331401 0.878423 0.262389 0.967133
O13   O     O_2   0.313665 0.926196 0.147524 -0.619950
O14   O     O_R   0.260058 0.774275 0.282434 -0.802763
H12   H     H_    0.199509 0.745584 0.193838 0.346154

loop_
_geom_bond_atom_site_label_1
_geom_bond_atom_site_label_2
_ccdc_geom_bond_type
C7    C10   S    
C16   O12   S    
O1    Zn1   S    
O3    Zn1   S    
C5    N1    D    
C11   C16   S    
N1    Zn1   S    
C1    C4    S    
C3    H5    S    
O8    Zn2   S    
C5    H7    S    
C13   C15   S    
C8    O6    A    
O4    Zn2   S    
O7    Zn1   S    
C11   C13   S    
H3    N2    S    
C3    C14   S    
C7    O3    A    
C9    O7    A    
C2    C14   D    
C6    N2    D    
O12   H9    S    
C17   O14   S    
C15   O10   S    
C5    C6    S    
C8    O5    A    
C9    C12   S    
C2    H4    S    
C10   C11   D    
C9    O8    A    
C6    H2    S    
C3    C4    D    
C4    H6    S    
O6    Zn2   S    
O5    Zn1   S    
C7    O4    A    
C12   C13   D    
C1    O1    A    
C14   C17   S    
C15   O9    D    
O14   H12   S    
O10   H8    S    
C12   H10   S    
C10   H11   S    
C1    O2    A    
H1    N1    S    
C2    C8    S    
C17   O13   D    
O2    Zn2   S    
N2    Zn2   S    
C16   O11   D    
