data_mof_unit_15328.cif
_audit_creation_date              2013-03-05T15:47:05-0500
_audit_creation_method            fapswitch 2.2
_symmetry_space_group_name_H-M    P1
_symmetry_Int_Tables_number       1
_space_group_crystal_system       triclinic
_cell_length_a                    23.600283
_cell_length_b                    10.764719
_cell_length_c                    9.760974
_cell_angle_alpha                 109.680257
_cell_angle_beta                  98.639483
_cell_angle_gamma                 90.421107
_cell_volume                      2303.95768343

loop_
_atom_site_label
_atom_site_type_symbol
_atom_site_description
_atom_site_fract_x
_atom_site_fract_y
_atom_site_fract_z
_atom_type_partial_charge
O1    O     O_R   0.505330 0.332340 0.577400 -0.562032
O2    O     O_R   0.494670 0.667660 0.422600 -0.564993
O3    O     O_R   0.488470 0.295500 0.332650 -0.543520
O4    O     O_R   0.511530 0.704500 0.667350 -0.541244
C1    C     C_R   0.494720 0.252463 0.442854 0.857058
C2    C     C_R   0.502894 0.747540 0.557283 0.843310
O5    O     O_R   0.426310 0.518390 0.622390 -0.540243
O6    O     O_R   0.573690 0.481610 0.377610 -0.552361
O7    O     O_R   0.409450 0.481550 0.377650 -0.535306
O8    O     O_R   0.590550 0.518450 0.622350 -0.545237
C3    C     C_R   0.390572 0.498911 0.500670 0.956728
C4    C     C_R   0.608835 0.499427 0.498924 0.932551
Cu1   Cu    Cu3+1 0.509980 0.521810 0.644910 1.123823
Cu2   Cu    Cu3+1 0.490020 0.478190 0.355090 1.126985
C5    C     C_R   0.884742 0.604872 0.595119 0.654641
C6    C     C_R   0.113450 0.389728 0.421425 0.682696
N1    N     N_R   0.850916 0.497731 0.502265 -0.455300
N2    N     N_R   0.146932 0.500738 0.505627 -0.453350
C7    C     C_R   0.872924 0.391141 0.409422 0.687948
C8    C     C_R   0.124467 0.610217 0.592390 0.667348
C9    C     C_R   0.932683 0.387893 0.407200 -0.142688
C10   C     C_R   0.065094 0.610776 0.600090 -0.141433
C11   C     C_R   0.968864 0.498172 0.504492 -0.072770
C12   C     C_R   0.029035 0.499178 0.505721 -0.073920
C13   C     C_R   0.944854 0.607715 0.600350 -0.161562
C14   C     C_R   0.053232 0.388338 0.412774 -0.162463
C15   C     C_R   0.957355 0.279337 0.311348 0.339870
C16   C     C_R   0.040694 0.718229 0.698001 0.340404
C17   C     C_R   0.016936 0.279585 0.314758 0.252639
C18   C     C_R   0.981328 0.716350 0.698224 0.252432
O9    O     O_2   0.859652 0.707884 0.681357 -0.413933
O10   O     O_2   0.138985 0.281289 0.347493 -0.404845
O11   O     O_2   0.836412 0.289394 0.320673 -0.397482
O12   O     O_2   0.159931 0.717901 0.668619 -0.401582
C19   C     C_R   0.229221 0.504430 0.378226 0.382290
C20   C     C_R   0.764838 0.428822 0.579737 0.378213
C21   C     C_R   0.288467 0.500342 0.375272 0.211285
C22   C     C_R   0.705083 0.426838 0.576640 0.189015
C23   C     C_R   0.327303 0.498440 0.501525 -0.269105
C24   C     C_R   0.670961 0.495451 0.496795 -0.284408
C25   C     C_R   0.304222 0.497524 0.627768 0.389945
C26   C     C_R   0.697183 0.564312 0.420469 0.349373
C27   C     C_R   0.245140 0.498558 0.626573 -0.137615
C28   C     C_R   0.756341 0.564067 0.423441 -0.131362
H1    H     H_    0.227863 0.496071 0.722464 0.227247
H2    H     H_    0.776463 0.617145 0.365046 0.217351
C29   C     C_R   0.207664 0.501989 0.503412 0.106991
C30   C     C_R   0.790138 0.496997 0.502294 0.115660
C31   C     C_2   0.488109 0.109860 0.418222 0.079746
C32   C     C_2   0.500299 0.890215 0.582661 0.061550
C33   C     C_2   0.456281 0.068960 0.502772 0.210939
C34   C     C_2   0.456253 0.932454 0.505125 0.218645
H3    H     H_    0.465420 0.408339 0.845582 0.211550
H4    H     H_    0.536265 0.588047 0.153820 0.203846
N3    N     N_2   0.475010 0.445410 0.137370 -0.260677
N4    N     N_2   0.524990 0.554590 0.862630 -0.270331
C35   C     C_2   0.504587 0.511786 0.081054 0.040038
C36   C     C_2   0.496363 0.486175 0.918617 0.060309
H5    H     H_    0.553616 0.629066 0.934602 0.247208
H6    H     H_    0.445565 0.372639 0.065686 0.260275
Cl1   Cl    Cl    0.915925 0.140454 0.179312 -0.287087
Cl2   Cl    Cl    0.082536 0.855976 0.830798 -0.287555
N5    N     N_R   0.039772 0.170390 0.211913 0.207848
O13   O     O_R   0.053514 0.181580 0.092223 -0.187861
O14   O     O_R   0.041756 0.056470 0.230975 -0.194755
N6    N     N_R   0.958840 0.825348 0.802044 0.208104
O15   O     O_R   0.949937 0.817504 0.927296 -0.194584
O16   O     O_R   0.953694 0.937191 0.778901 -0.195388
Cl3   Cl    Cl    0.181639 0.512357 0.223685 -0.379882
Cl4   Cl    Cl    0.808319 0.342328 0.676076 -0.373823
N7    N     N_R   0.308281 0.496115 0.242148 0.186233
O17   O     O_R   0.317096 0.382695 0.147188 -0.250380
O18   O     O_R   0.307327 0.600817 0.203917 -0.183947
N8    N     N_R   0.679051 0.351846 0.650356 0.182318
O19   O     O_R   0.695831 0.374109 0.790169 -0.217953
O20   O     O_R   0.638468 0.260899 0.577756 -0.281056
Cl5   Cl    Cl    0.345780 0.491315 0.791138 -0.433146
Cl6   Cl    Cl    0.658152 0.658551 0.326374 -0.488468
N9    N     N_R   0.405427 0.848111 0.429569 0.157017
O21   O     O_R   0.381739 0.778620 0.494389 -0.350530
O22   O     O_R   0.376312 0.862955 0.312446 -0.205714
N10   N     N_R   0.417602 0.154792 0.585969 0.136275
O23   O     O_R   0.384307 0.224217 0.525470 -0.346263
O24   O     O_R   0.406935 0.142090 0.707727 -0.261131
N11   N     N_R   0.546828 0.978937 0.680673 0.142768
O25   O     O_R   0.595558 0.932233 0.715086 -0.246827
O26   O     O_R   0.539276 0.103014 0.747845 -0.288668
N12   N     N_R   0.518859 0.019830 0.312728 0.137702
O27   O     O_R   0.560946 0.065364 0.267314 -0.247049
O28   O     O_R   0.501743 0.895475 0.250314 -0.316344

loop_
_geom_bond_atom_site_label_1
_geom_bond_atom_site_label_2
_geom_bond_distance
_ccdc_geom_bond_type
N6    O16   1.300913 A    
N5    O14   1.300993 A    
C15   C17   1.401487 A    
N1    C30   1.434385 S    
C19   C29   1.400308 A    
N2    C29   1.436713 S    
C17   N5    1.434216 S    
C23   C25   1.423052 A    
C21   N7    1.432572 S    
N11   O25   1.301687 A    
O5    C3    1.302100 A    
N8    O20   1.301151 A    
O1    C1    1.290056 A    
C19   C21   1.403544 A    
C12   C14   1.417536 A    
C25   Cl5   1.764142 S    
C5    C13   1.411622 A    
O4    Cu1   1.903486 S    
C15   Cl1   1.776034 S    
C32   N11   1.444566 S    
C20   Cl4   1.765807 S    
C31   C33   1.365760 D    
C32   C34   1.364719 D    
C11   C12   1.418226 A    
C20   C30   1.403318 A    
C34   N9    1.440243 S    
Cu1   N4    2.008284 S    
C8    O12   1.347432 S    
C24   C26   1.411120 A    
Cu2   N3    2.008284 S    
C9    C15   1.420288 A    
C10   C16   1.418979 A    
Cu1   Cu2   2.673370 S    
C25   C27   1.392796 A    
C31   N12   1.445306 S    
C1    C31   1.474866 S    
O2    C2    1.290283 A    
C26   C28   1.392108 A    
C28   H2    1.083323 S    
N11   O26   1.301694 A    
C9    C11   1.422109 A    
C6    C14   1.410623 A    
N8    O19   1.301019 A    
C33   C34   1.477340 S    
O4    C2    1.296660 A    
C7    O11   1.347364 S    
N7    O18   1.300477 A    
N5    O13   1.301009 A    
C4    C24   1.470206 S    
O7    Cu2   1.945981 S    
C27   H1    1.083704 S    
O6    C4    1.294814 A    
C2    C32   1.474333 S    
C3    C23   1.494423 S    
O7    C3    1.298507 A    
C33   N10   1.440912 S    
C18   N6    1.433603 S    
O3    Cu2   1.903486 S    
O8    C4    1.292633 A    
N12   O28   1.301966 A    
C26   Cl6   1.763044 S    
N10   O24   1.301292 A    
N3    C35   1.293235 D    
C10   C12   1.421273 A    
O1    Cu1   1.917275 S    
N9    O22   1.301264 A    
C22   N8    1.436524 S    
C13   C18   1.416651 A    
C5    N1    1.361606 A    
O6    Cu2   1.952418 S    
C7    C9    1.414251 A    
C8    C10   1.414418 A    
O3    C1    1.297115 A    
O8    Cu1   1.945986 S    
H3    C36   1.084343 S    
C5    O9    1.348906 S    
C6    O10   1.349130 S    
N4    H5    1.030913 S    
C16   C18   1.401377 A    
N7    O17   1.300972 A    
C21   C23   1.427263 A    
C22   C24   1.417508 A    
C35   C36   1.496654 S    
C20   C22   1.405870 A    
N1    C7    1.362865 A    
N4    C36   1.293128 D    
N6    O15   1.300931 A    
N2    C8    1.363467 A    
C11   C13   1.418814 A    
O2    Cu2   1.917275 S    
N9    O21   1.300515 A    
O5    Cu1   1.952418 S    
N12   O27   1.301836 A    
C19   Cl3   1.767196 S    
C14   C17   1.415717 A    
C6    N2    1.362864 A    
N10   O23   1.300447 A    
N3    H6    1.030961 S    
C27   C29   1.392760 A    
C28   C30   1.395778 A    
H4    C35   1.084450 S    
C16   Cl2   1.775780 S    
