data_mof_unit_33296.cif
_audit_creation_date              2012-12-10T19:03:06-0500
_audit_creation_method            fapswitch 2.2
_symmetry_space_group_name_H-M    P1
_symmetry_Int_Tables_number       1
_space_group_crystal_system       triclinic
_cell_length_a                    10.735586
_cell_length_b                    10.812924
_cell_length_c                    9.540096
_cell_angle_alpha                 90.224001
_cell_angle_beta                  89.86039
_cell_angle_gamma                 90.125286
_cell_volume                      1107.42930878

loop_
_atom_site_label
_atom_site_type_symbol
_atom_type_description
_atom_site_fract_x
_atom_site_fract_y
_atom_site_fract_z
_atom_type_partial_charge
C1    C     C_R   0.505334 0.262306 0.499444 0.839546
C2    C     C_3   0.878325 0.500722 0.499296 0.154571
C3    C     C_3   0.928496 0.616348 0.577807 -0.383637
C4    C     C_3   0.929401 0.503429 0.346936 -0.377315
C5    C     C_R   0.498328 0.064157 0.623018 0.096624
C6    C     C_R   0.520813 0.129009 0.499168 -0.199105
C7    C     C_R   0.562501 0.062027 0.379758 0.361343
C8    C     C_R   0.559275 0.932842 0.381746 -0.260213
C9    C     C_R   0.517240 0.870261 0.501533 -0.173864
C10   C     C_R   0.497073 0.937152 0.624393 0.128234
C11   C     C_3   0.390956 0.932135 0.725680 -0.446972
C12   C     C_R   0.259833 0.499962 0.499959 0.745453
C13   C     C_3   0.392354 0.072620 0.724459 -0.454468
C14   C     C_R   0.557899 0.592736 0.073828 0.256076
C15   C     C_R   0.432417 0.415793 0.074282 -0.023023
C16   C     C_R   0.432341 0.415840 0.925336 -0.071286
C17   C     C_R   0.557701 0.592843 0.926377 0.260167
C18   C     C_3   0.692272 0.626084 0.919733 -0.500958
C19   C     C_3   0.692824 0.624978 0.078590 -0.505250
C20   C     C_R   0.502846 0.737549 0.500286 0.819046
C21   C     C_R   0.740257 0.500560 0.499756 0.757202
C22   C     C_3   0.071422 0.383233 0.574196 -0.387846
C23   C     C_3   0.927617 0.382839 0.572591 -0.367299
C24   C     C_3   0.072328 0.616735 0.576583 -0.376417
C25   C     C_3   0.071858 0.500786 0.346878 -0.367771
C26   C     C_3   0.121935 0.500200 0.499518 0.164242
Cu1   Cu    Cu3+1 0.499990 0.499980 0.640670 0.936791
Cu2   Cu    Cu3+1 0.500010 0.500020 0.359330 0.963439
H1    H     H_    0.104598 0.380816 0.684606 0.168662
H2    H     H_    0.898022 0.589356 0.294012 0.163902
H3    H     H_    0.106874 0.701718 0.523549 0.149377
H4    H     H_    0.893331 0.702038 0.527295 0.153743
H5    H     H_    0.585640 0.881942 0.288250 0.186988
H6    H     H_    0.305263 0.891332 0.679055 0.185119
H7    H     H_    0.419062 0.892416 0.828135 0.204600
H8    H     H_    0.307370 0.113784 0.677391 0.181228
H9    H     H_    0.421333 0.113663 0.826325 0.214852
H10   H     H_    0.379640 0.346184 0.129996 0.148635
H11   H     H_    0.106874 0.298503 0.520952 0.149301
H12   H     H_    0.379269 0.346479 0.869320 0.133178
H13   H     H_    0.750486 0.551435 0.873556 0.214893
H14   H     H_    0.707522 0.719572 0.874693 0.196224
H15   H     H_    0.750100 0.548673 0.121176 0.218171
H16   H     H_    0.709715 0.717524 0.126041 0.194076
H17   H     H_    0.893446 0.298881 0.516650 0.167169
H18   H     H_    0.892170 0.378288 0.682200 0.171720
H19   H     H_    0.107110 0.619236 0.686379 0.171260
H20   H     H_    0.894954 0.616906 0.688135 0.168195
H21   H     H_    0.107721 0.583114 0.289603 0.171278
H22   H     H_    0.104392 0.416910 0.289524 0.168641
H23   H     H_    0.893674 0.422774 0.286104 0.187148
N1    N     N_R   0.500800 0.500930 0.147930 -0.182756
N2    N     N_R   0.500800 0.500890 0.852020 -0.187193
O1    O     O_R   0.500000 0.319640 0.618810 -0.583890
O2    O     O_R   0.500010 0.319680 0.381230 -0.528096
O3    O     O_R   0.317690 0.499960 0.618790 -0.591780
O4    O     O_R   0.317700 0.500000 0.381210 -0.596174
O5    O     O_R   0.499990 0.680320 0.618770 -0.578230
O6    O     O_R   0.500000 0.680360 0.381190 -0.586708
O7    O     O_R   0.682300 0.500000 0.618790 -0.590581
O8    O     O_R   0.682310 0.500040 0.381210 -0.577323
Cl1   Cl    Cl    0.616363 0.132656 0.224526 -0.652939

loop_
_geom_bond_atom_site_label_1
_geom_bond_atom_site_label_2
_ccdc_geom_bond_type
C13   H8    S    
C2    C4    S    
C1    O1    A    
Cu1   N2    S    
C15   H10   S    
C6    C7    A    
C23   H17   S    
C22   H1    S    
C11   C13   S    
C9    C10   A    
C9    C20   S    
C21   O8    A    
C11   H6    S    
C8    H5    S    
Cu2   O8    S    
Cu1   O3    S    
C2    C21   S    
C11   H7    S    
C4    C25   S    
C1    O2    A    
Cu1   O1    S    
C4    H2    S    
C7    C8    A    
C7    Cl1   S    
C23   H18   S    
Cu2   O4    S    
C20   O6    A    
Cu2   N1    S    
C14   C17   A    
C3    C24   S    
C12   O3    A    
C13   H9    S    
C16   H12   S    
C5    C6    A    
C12   O4    A    
C14   C19   S    
Cu2   O2    S    
C19   H15   S    
C17   C18   S    
C2    C3    S    
Cu1   O7    S    
C18   H14   S    
C3    H4    S    
C24   C26   S    
C25   H21   S    
C24   H3    S    
C10   C11   S    
C22   H11   S    
C4    H23   S    
C20   O5    A    
C15   C16   A    
C17   N2    A    
C3    H20   S    
C5    C10   A    
C19   H16   S    
C21   O7    A    
C18   C19   S    
C22   C26   S    
Cu2   O6    S    
C2    C23   S    
C16   N2    A    
C1    C6    S    
C25   C26   S    
C15   N1    A    
C24   H19   S    
C5    C13   S    
C25   H22   S    
C22   C23   S    
C14   N1    A    
C18   H13   S    
C12   C26   S    
C8    C9    A    
Cu1   Cu2   S    
Cu1   O5    S    
