data_mof_unit_33527.cif
_audit_creation_date              2012-10-26T19:36:24-0400
_audit_creation_method            fapswitch 2.2
_symmetry_space_group_name_H-M    P1
_symmetry_Int_Tables_number       1
_space_group_crystal_system       triclinic
_cell_length_a                    10.866083
_cell_length_b                    15.980522
_cell_length_c                    14.73344
_cell_angle_alpha                 90.625711
_cell_angle_beta                  89.218399
_cell_angle_gamma                 90.350342
_cell_volume                      2557.96206453

loop_
_atom_site_label
_atom_site_type_symbol
_atom_type_description
_atom_site_fract_x
_atom_site_fract_y
_atom_site_fract_z
_atom_type_partial_charge
C1    C     C_R   0.500465 0.340812 0.499612 0.554993
C2    C     C_R   0.503800 0.087276 0.500066 0.037200
C3    C     C_R   0.510832 0.955171 0.418554 -0.109291
C4    C     C_R   0.496109 0.044959 0.582665 -0.097953
C5    C     C_1   0.501487 0.823382 0.501432 -0.062744
C6    C     C_1   0.502804 0.176694 0.499393 -0.050747
C7    C     C_1   0.501690 0.251734 0.499069 -0.016802
C8    C     C_1   0.500553 0.748313 0.501237 -0.024654
C9    C     C_R   0.503833 0.575780 0.952387 -0.179514
C10   C     C_R   0.500899 0.425354 0.047369 -0.170781
C11   C     C_R   0.503867 0.500042 0.902854 -0.028992
C12   C     C_R   0.499878 0.659199 0.500430 0.555003
C13   C     C_R   0.501849 0.501036 0.097040 -0.039041
C14   C     C_R   0.500042 0.424374 0.951104 0.253875
C15   C     C_R   0.504573 0.577081 0.049068 0.250147
C16   C     C_R   0.261545 0.501695 0.500537 0.581624
C17   C     C_R   0.738042 0.498350 0.499109 0.585143
C18   C     C_1   0.502063 0.500225 0.802730 0.137589
C19   C     C_1   0.500877 0.500302 0.197230 0.147577
C20   C     C_R   0.190117 0.736002 0.311144 -0.115849
C21   C     C_R   0.799198 0.234621 0.607491 -0.085087
C22   C     C_R   0.138020 0.685292 0.378423 -0.122539
C23   C     C_R   0.871363 0.496116 0.496829 -0.041046
C24   C     C_R   0.864237 0.300174 0.566701 -0.138349
C25   C     C_R   0.129556 0.598468 0.364717 0.068670
C26   C     C_R   0.869948 0.379090 0.608995 0.050652
C27   C     C_R   0.176025 0.562820 0.283786 -0.118824
C28   C     C_R   0.808984 0.391706 0.692635 -0.117420
C29   C     C_R   0.228401 0.613453 0.216929 -0.072303
C30   C     C_R   0.744707 0.325932 0.733770 -0.103252
C31   C     C_R   0.232557 0.700423 0.229139 0.314152
C32   C     C_R   0.740917 0.246186 0.691935 0.291671
C33   C     C_R   0.935895 0.541823 0.430195 0.215867
C34   C     C_R   0.127457 0.502594 0.501025 -0.038779
C35   C     C_R   0.062196 0.457644 0.568341 0.225920
C36   C     C_3   0.187440 0.780506 0.106649 0.002986
C37   C     C_3   0.165843 0.720964 0.025955 -0.261900
C38   C     C_3   0.072026 0.756555 0.960884 -0.493394
C39   C     C_3   0.706913 0.164408 0.817693 -0.007585
C40   C     C_3   0.662225 0.076760 0.843145 -0.259626
C41   C     C_3   0.690589 0.057063 0.941740 -0.489999
C42   C     C_3   0.870353 0.545424 0.282080 0.038703
C43   C     C_3   0.878043 0.609224 0.205585 -0.259379
C44   C     C_3   0.885121 0.566402 0.112571 -0.502138
C45   C     C_R   0.934088 0.448643 0.561246 -0.071103
C46   C     C_3   0.087385 0.445928 0.723486 0.017663
C47   C     C_3   0.197890 0.475240 0.778256 -0.242816
C48   C     C_3   0.159546 0.499819 0.875077 -0.511544
C49   C     C_3   0.590399 0.708262 0.071063 0.022952
C50   C     C_3   0.606204 0.774753 0.145475 -0.237913
C51   C     C_3   0.715205 0.832502 0.124866 -0.507653
C52   C     C_3   0.386896 0.307115 0.916984 -0.009045
C53   C     C_3   0.363185 0.249773 0.835237 -0.245546
C54   C     C_3   0.236344 0.208583 0.841349 -0.490133
C55   C     C_R   0.064397 0.545510 0.432393 -0.065923
C56   C     C_R   0.495718 0.957655 0.583193 -0.116108
C57   C     C_R   0.511388 0.042457 0.418043 -0.117430
C58   C     C_R   0.502789 0.912835 0.501112 0.037970
Cu1   Cu    Cu3+1 0.500040 0.500000 0.589220 0.990769
Cu2   Cu    Cu3+1 0.499960 0.500000 0.410780 0.993069
H1    H     H_    0.500700 0.633867 0.915465 0.100676
H2    H     H_    0.696346 0.337859 0.797064 0.152402
H3    H     H_    0.489892 0.079349 0.646348 0.147079
H4    H     H_    0.516403 0.920762 0.354828 0.110887
H5    H     H_    0.489553 0.925189 0.647304 0.102857
H6    H     H_    0.517309 0.074931 0.353927 0.103534
H7    H     H_    0.217937 0.842111 0.079983 0.144793
H8    H     H_    0.099273 0.792078 0.144549 0.105761
H9    H     H_    0.254240 0.710320 0.988833 0.185779
H10   H     H_    0.130849 0.659779 0.050580 0.148462
H11   H     H_    0.982281 0.766133 0.996405 0.140186
H12   H     H_    0.500505 0.366620 0.083381 0.109053
H13   H     H_    0.058223 0.712063 0.903466 0.142310
H14   H     H_    0.105325 0.817145 0.933311 0.145838
H15   H     H_    0.662786 0.210534 0.864638 0.164604
H16   H     H_    0.808889 0.167033 0.825762 0.123152
H17   H     H_    0.561257 0.071867 0.833114 0.157643
H18   H     H_    0.707893 0.029802 0.798056 0.169156
H19   H     H_    0.791388 0.059834 0.953019 0.143660
H20   H     H_    0.656930 0.993121 0.957841 0.139329
H21   H     H_    0.643810 0.102409 0.988070 0.147352
H22   H     H_    0.782163 0.510633 0.275783 0.169152
H23   H     H_    0.195542 0.803039 0.321871 0.113092
H24   H     H_    0.945495 0.498836 0.272574 0.101833
H25   H     H_    0.795564 0.649741 0.209016 0.173328
H26   H     H_    0.960515 0.649699 0.214236 0.172790
H27   H     H_    0.968242 0.526404 0.107349 0.140313
H28   H     H_    0.891236 0.614476 0.058844 0.137849
H29   H     H_    0.801626 0.527404 0.101212 0.153028
H30   H     H_    0.043208 0.392618 0.759418 0.142652
H31   H     H_    0.020775 0.498899 0.722519 0.109559
H32   H     H_    0.266437 0.424202 0.780347 0.187430
H33   H     H_    0.240698 0.530416 0.744912 0.186209
H34   H     H_    0.794015 0.174394 0.573318 0.127579
H35   H     H_    0.091506 0.551378 0.874277 0.143599
H36   H     H_    0.241116 0.521628 0.913326 0.152307
H37   H     H_    0.118320 0.445306 0.910694 0.133666
H38   H     H_    0.563392 0.740283 0.007816 0.125202
H39   H     H_    0.680083 0.676040 0.059696 0.118754
H40   H     H_    0.521067 0.812728 0.151373 0.200651
H41   H     H_    0.620895 0.743955 0.211694 0.185029
H42   H     H_    0.802149 0.796272 0.122045 0.139575
H43   H     H_    0.722605 0.880885 0.179214 0.148196
H44   H     H_    0.702285 0.864166 0.058981 0.140957
H45   H     H_    0.102526 0.713664 0.440446 0.117326
H46   H     H_    0.307786 0.351015 0.924469 0.126312
H47   H     H_    0.391946 0.268478 0.979141 0.128761
H48   H     H_    0.369567 0.286625 0.771767 0.199984
H49   H     H_    0.434452 0.200379 0.831759 0.179525
H50   H     H_    0.228048 0.170886 0.904058 0.136859
H51   H     H_    0.223053 0.166612 0.781679 0.154473
H52   H     H_    0.163235 0.256907 0.841673 0.146744
H53   H     H_    0.908672 0.289827 0.501311 0.107793
H54   H     H_    0.170466 0.495862 0.272230 0.102934
H55   H     H_    0.809241 0.452791 0.725151 0.109954
H56   H     H_    0.263003 0.585230 0.154676 0.132573
N1    N     N_1   0.500040 0.499980 0.276710 -0.200890
N2    N     N_1   0.499960 0.500020 0.723290 -0.209310
O1    O     O_R   0.500060 0.380310 0.575320 -0.474110
O2    O     O_3   0.672650 0.180392 0.727382 -0.586596
O3    O     O_3   0.872806 0.588416 0.366925 -0.547023
O4    O     O_3   0.126272 0.417284 0.636092 -0.543444
O5    O     O_3   0.497180 0.651489 0.098360 -0.532619
O6    O     O_3   0.500134 0.349410 0.903175 -0.591017
O7    O     O_R   0.499940 0.619690 0.424680 -0.472737
O8    O     O_R   0.500000 0.380310 0.424640 -0.509183
O9    O     O_R   0.500000 0.619690 0.575360 -0.506038
O10   O     O_R   0.319670 0.500010 0.575340 -0.465644
O11   O     O_R   0.680330 0.499990 0.424660 -0.482193
O12   O     O_R   0.319610 0.500010 0.424650 -0.506578
O13   O     O_R   0.680390 0.499990 0.575350 -0.503911
O14   O     O_3   0.282552 0.750391 0.162088 -0.550201

loop_
_geom_bond_atom_site_label_1
_geom_bond_atom_site_label_2
_ccdc_geom_bond_type
C33   C55   A    
C11   C18   S    
C23   C45   A    
C48   H35   S    
C37   H9    S    
C17   O13   A    
C47   H32   S    
C42   H22   S    
C57   H6    S    
C41   H20   S    
C36   H7    S    
C12   O9    A    
C3    H4    S    
C51   H42   S    
C48   H37   S    
C4    H3    S    
Cu1   O13   S    
C17   C23   S    
C15   O5    S    
C5    C58   S    
C9    H1    S    
Cu2   O7    S    
C24   C26   A    
C36   O14   S    
C11   C14   A    
C27   C29   A    
C21   H34   S    
Cu1   O9    S    
C39   O2    S    
C49   O5    S    
C54   H50   S    
C34   C35   A    
C1    O1    A    
C26   C45   S    
C16   C34   S    
C49   H38   S    
C38   H11   S    
C52   H47   S    
C23   C33   A    
C22   C25   A    
C39   H15   S    
C44   H27   S    
C16   O12   A    
C18   N2    T    
C52   H46   S    
C24   H53   S    
C37   H10   S    
C4    C56   A    
C33   O3    S    
C2    C6    S    
C32   O2    S    
C21   C32   A    
C2    C57   A    
C14   O6    S    
C13   C19   S    
C17   O11   A    
C43   H25   S    
C42   H24   S    
C1    O8    A    
C10   C14   A    
Cu2   O12   S    
C39   C40   S    
C46   H31   S    
Cu1   O10   S    
C53   C54   S    
C2    C4    A    
C43   C44   S    
C3    C58   A    
C37   C38   S    
C28   H55   S    
C49   H39   S    
C9    C11   A    
C47   C48   S    
C8    C12   S    
C41   H21   S    
C50   C51   S    
C47   H33   S    
C54   H52   S    
Cu2   N1    S    
C39   H16   S    
C16   O10   A    
C3    C57   A    
C40   C41   S    
C29   H56   S    
C20   C22   A    
Cu1   N2    S    
C13   C15   A    
C40   H18   S    
C21   C24   A    
C42   C43   S    
C35   C45   A    
C52   C53   S    
C38   H14   S    
C53   H49   S    
C46   C47   S    
C36   C37   S    
Cu1   O1    S    
C48   H36   S    
C1    C7    S    
C43   H26   S    
C50   H40   S    
C35   O4    S    
C25   C55   S    
C10   C13   A    
Cu2   O11   S    
C41   H19   S    
C5    C8    T    
C36   H8    S    
C6    C7    T    
C46   H30   S    
C25   C27   A    
C22   H45   S    
C34   C55   A    
C26   C28   A    
C12   O7    A    
C30   H2    S    
C51   H44   S    
C28   C30   A    
C29   C31   A    
C30   C32   A    
C52   O6    S    
C53   H48   S    
C31   O14   S    
Cu2   O8    S    
C56   C58   A    
C54   H51   S    
C9    C15   A    
C27   H54   S    
Cu1   Cu2   S    
C19   N1    T    
C50   H41   S    
C49   C50   S    
C20   H23   S    
C40   H17   S    
C46   O4    S    
C44   H28   S    
C51   H43   S    
C38   H13   S    
C44   H29   S    
C56   H5    S    
C42   O3    S    
C20   C31   A    
C10   H12   S    
