data_mof_unit_22800.cif
_audit_creation_date              2012-12-10T17:15:50-0500
_audit_creation_method            fapswitch 2.2
_symmetry_space_group_name_H-M    P1
_symmetry_Int_Tables_number       1
_space_group_crystal_system       triclinic
_cell_length_a                    10.17619
_cell_length_b                    10.650564
_cell_length_c                    10.604381
_cell_angle_alpha                 89.598111
_cell_angle_beta                  94.438108
_cell_angle_gamma                 81.430752
_cell_volume                      1132.88699671

loop_
_atom_site_label
_atom_site_type_symbol
_atom_type_description
_atom_site_fract_x
_atom_site_fract_y
_atom_site_fract_z
_atom_type_partial_charge
C1    C     C_R   0.445096 0.503299 0.266064 0.911433
C2    C     C_2   0.497594 0.402472 0.934755 -0.012620
C3    C     C_2   0.070305 0.491141 0.491510 -0.120155
C4    C     C_R   0.500096 0.260553 0.501978 0.905417
C5    C     C_2   0.924225 0.511243 0.511515 -0.119226
C6    C     C_R   0.554622 0.483450 0.733463 0.938238
C7    C     C_R   0.501139 0.739114 0.502710 0.874325
C8    C     C_R   0.665356 0.106510 0.695224 -0.115347
C9    C     C_R   0.745646 0.029561 0.786535 -0.137332
C10   C     C_R   0.746664 0.898867 0.786752 -0.120895
C11   C     C_R   0.667272 0.844754 0.695732 -0.181112
C12   C     C_R   0.584969 0.053147 0.601068 0.100131
C13   C     C_R   0.586285 0.921421 0.601482 0.087526
C14   C     C_1   0.331592 0.150335 0.321425 0.170136
C15   C     C_1   0.115749 0.640522 0.640788 0.315986
C16   C     C_2   0.391309 0.331438 0.880038 0.974705
C17   C     C_R   0.500622 0.127766 0.507751 -0.125366
C18   C     C_R   0.416802 0.074831 0.418414 -0.029711
C19   C     C_R   0.418581 0.945975 0.420181 -0.233571
C20   C     C_R   0.503366 0.870790 0.508940 -0.108896
C21   C     C_2   0.416910 0.482169 0.132490 -0.287674
C22   C     C_2   0.512770 0.414991 0.070420 -0.204837
C23   C     C_2   0.582835 0.456094 0.867656 -0.459549
H1    H     H_    0.319960 0.519087 0.085651 0.184053
H2    H     H_    0.610222 0.379229 0.117193 0.179735
H3    H     H_    0.667079 0.493290 0.915233 0.158556
H4    H     H_    0.216991 0.268075 0.902118 0.342703
H5    H     H_    0.884296 0.579491 0.579398 0.171721
H6    H     H_    0.105654 0.421844 0.422533 0.165409
H7    H     H_    0.882103 0.384040 0.384758 0.169822
H8    H     H_    0.665865 0.207683 0.700666 0.156598
H9    H     H_    0.806385 0.071656 0.857978 0.142492
H10   H     H_    0.808250 0.839310 0.858295 0.147437
H11   H     H_    0.668932 0.743123 0.701152 0.140545
H12   H     H_    0.355610 0.903223 0.350622 0.154391
N1    N     N_2   0.157290 0.551390 0.551110 -0.135988
N2    N     N_2   0.842740 0.448550 0.448960 -0.196012
N3    N     N_1   0.263570 0.210743 0.243981 -0.173215
N4    N     N_1   0.081518 0.714652 0.715373 -0.249991
O1    O     O_R   0.568950 0.489660 0.307530 -0.605625
O2    O     O_R   0.280897 0.320219 0.947735 -0.804249
O3    O     O_R   0.348880 0.522640 0.340350 -0.610810
O4    O     O_R   0.610060 0.300270 0.483590 -0.631948
O5    O     O_R   0.389990 0.333260 0.516410 -0.575070
O6    O     O_R   0.651120 0.477360 0.659650 -0.624812
O7    O     O_R   0.431050 0.510340 0.692470 -0.584872
O8    O     O_R   0.610010 0.666740 0.483590 -0.615567
O9    O     O_R   0.389940 0.699730 0.516410 -0.610200
O10   O     O_2   0.403295 0.277271 0.779532 -0.645518
Zn1   Zn    Zn3+2 0.646940 0.477980 0.478090 0.939057
Zn2   Zn    Zn3+2 0.353060 0.522020 0.521910 0.989749

loop_
_geom_bond_atom_site_label_1
_geom_bond_atom_site_label_2
_ccdc_geom_bond_type
C12   C17   A    
C2    C22   S    
O4    Zn1   S    
C1    C21   S    
C6    O6    A    
C5    N2    D    
O8    Zn1   S    
C5    H5    S    
C2    C16   S    
C9    C10   A    
H4    O2    S    
C19   C20   A    
C9    H9    S    
O3    Zn2   S    
C8    C12   A    
C7    O9    A    
C17   C18   A    
C19   H12   S    
C21   C22   D    
C16   O10   D    
N2    Zn1   S    
C11   C13   A    
C15   N4    T    
N1    Zn2   S    
C3    N1    D    
O1    Zn1   S    
C6    C23   S    
O6    Zn1   S    
O5    Zn2   S    
C4    O4    A    
C7    C20   S    
C10   H10   S    
O9    Zn2   S    
C6    O7    A    
C23   H3    S    
C14   N3    T    
C10   C11   A    
C4    C17   S    
C1    O3    A    
C12   C13   A    
C18   C19   A    
C21   H1    S    
C2    C23   D    
C3    H6    S    
C14   C18   S    
C4    O5    A    
C1    O1    A    
C3    C5    S    
C15   N1    S    
C8    H8    S    
O7    Zn2   S    
C13   C20   A    
C11   H11   S    
H7    N2    S    
C8    C9    A    
C16   O2    S    
C22   H2    S    
C7    O8    A    
