data_mof_unit_56401.cif
_audit_creation_date              2012-12-11T16:19:06-0500
_audit_creation_method            fapswitch 2.2
_symmetry_space_group_name_H-M    P1
_symmetry_Int_Tables_number       1
_space_group_crystal_system       triclinic
_cell_length_a                    6.926886
_cell_length_b                    31.322518
_cell_length_c                    35.040564
_cell_angle_alpha                 89.938157
_cell_angle_beta                  89.680442
_cell_angle_gamma                 89.879993
_cell_volume                      7602.52471358

loop_
_atom_site_label
_atom_site_type_symbol
_atom_type_description
_atom_site_fract_x
_atom_site_fract_y
_atom_site_fract_z
_atom_type_partial_charge
O1    O     O_R   0.417270 0.211480 0.210950 -0.541813
O2    O     O_R   0.582730 0.788520 0.789050 -0.541813
O3    O     O_R   0.582730 0.788520 0.710950 -0.533411
O4    O     O_R   0.417270 0.211480 0.289050 -0.533411
O5    O     O_R   0.917270 0.288520 0.289050 -0.536455
O6    O     O_R   0.082730 0.711480 0.710950 -0.536454
O7    O     O_R   0.082730 0.711480 0.789050 -0.542336
O8    O     O_R   0.917270 0.288520 0.210950 -0.542338
O9    O     O_R   0.746940 0.206370 0.288750 -0.533281
O10   O     O_R   0.253060 0.793630 0.711250 -0.533280
O11   O     O_R   0.253060 0.793630 0.788750 -0.537073
O12   O     O_R   0.746940 0.206370 0.211250 -0.537070
O13   O     O_R   0.246940 0.293630 0.211250 -0.537529
O14   O     O_R   0.753060 0.706370 0.788750 -0.537530
O15   O     O_R   0.753060 0.706370 0.711250 -0.533732
O16   O     O_R   0.246940 0.293630 0.288750 -0.533733
C1    C     C_R   0.577898 0.196393 0.302156 0.713235
C2    C     C_R   0.422101 0.803606 0.697844 0.713235
C3    C     C_R   0.420820 0.803345 0.802524 0.711048
C4    C     C_R   0.579180 0.196656 0.197476 0.711048
C5    C     C_R   0.079011 0.303300 0.197432 0.709575
C6    C     C_R   0.920989 0.696700 0.802568 0.709577
C7    C     C_R   0.922203 0.695923 0.698382 0.724397
C8    C     C_R   0.077797 0.304077 0.301618 0.724397
O17   O     O_3   0.583760 0.276950 0.250000 -0.367042
O18   O     O_3   0.416240 0.723050 0.750000 -0.367041
O19   O     O_3   0.083760 0.223050 0.250000 -0.365316
O20   O     O_3   0.916240 0.776950 0.750000 -0.365319
V1    V     V_3+5 0.858600 0.245000 0.250000 1.415578
V2    V     V_3+5 0.141400 0.755000 0.750000 1.415574
V3    V     V_3+5 0.358600 0.255000 0.250000 1.414867
V4    V     V_3+5 0.641400 0.745000 0.750000 1.414867
C9    C     C_R   0.819269 0.571440 0.549292 0.583414
C10   C     C_R   0.180731 0.428560 0.450708 0.583414
C11   C     C_R   0.004108 0.410776 0.037502 0.569533
C12   C     C_R   0.995895 0.589223 0.962497 0.569534
C13   C     C_R   0.625607 0.923526 0.950085 0.588395
C14   C     C_R   0.374395 0.076480 0.049911 0.588408
C15   C     C_R   0.369613 0.075193 0.448999 0.591153
C16   C     C_R   0.630387 0.924807 0.551001 0.591154
N1    N     N_R   0.968146 0.574531 0.574934 -0.549995
N2    N     N_R   0.031854 0.425469 0.425066 -0.549995
N3    N     N_R   0.022772 0.424966 0.074273 -0.552693
N4    N     N_R   0.977231 0.575033 0.925726 -0.552694
N5    N     N_R   0.475058 0.926059 0.924913 -0.548326
N6    N     N_R   0.524959 0.073951 0.075079 -0.548329
N7    N     N_R   0.521664 0.073026 0.423867 -0.552783
N8    N     N_R   0.478336 0.926974 0.576133 -0.552783
C17   C     C_R   0.127125 0.548624 0.571541 0.587154
C18   C     C_R   0.872875 0.451376 0.428459 0.587155
C19   C     C_R   0.030991 0.467577 0.082370 0.580384
C20   C     C_R   0.969012 0.532422 0.917629 0.580383
C21   C     C_R   0.336382 0.956962 0.928609 0.567052
C22   C     C_R   0.663657 0.043055 0.071379 0.567065
C23   C     C_R   0.662875 0.042845 0.427839 0.574468
C24   C     C_R   0.337125 0.957155 0.572160 0.574468
C25   C     C_R   0.138506 0.517600 0.542566 -0.077659
C26   C     C_R   0.861494 0.482400 0.457434 -0.077659
C27   C     C_R   0.021530 0.498050 0.052949 -0.058167
C28   C     C_R   0.978474 0.501949 0.947051 -0.058167
C29   C     C_R   0.343127 0.986480 0.958769 -0.064819
C30   C     C_R   0.656911 0.013536 0.041218 -0.064828
C31   C     C_R   0.656508 0.013399 0.458228 -0.072477
C32   C     C_R   0.343492 0.986601 0.541772 -0.072477
C33   C     C_R   0.991972 0.515130 0.515064 -0.049603
C34   C     C_R   0.008028 0.484870 0.484936 -0.049603
C35   C     C_R   0.004062 0.484516 0.014835 -0.048544
C36   C     C_R   0.995941 0.515484 0.985164 -0.048544
C37   C     C_R   0.496696 0.984940 0.984841 -0.051828
C38   C     C_R   0.503333 0.015074 0.015148 -0.051831
C39   C     C_R   0.502571 0.014857 0.484603 -0.049498
C40   C     C_R   0.497429 0.985143 0.515397 -0.049498
C41   C     C_R   0.830661 0.543049 0.517574 -0.040637
C42   C     C_R   0.169339 0.456951 0.482426 -0.040637
C43   C     C_R   0.994848 0.440149 0.006470 -0.033204
C44   C     C_R   0.005155 0.559850 0.993529 -0.033203
C45   C     C_R   0.642896 0.953323 0.980604 -0.033893
C46   C     C_R   0.357126 0.046689 0.019387 -0.033911
C47   C     C_R   0.354630 0.046016 0.480203 -0.039373
C48   C     C_R   0.645370 0.953984 0.519797 -0.039372
C49   C     C_R   0.295207 0.489279 0.540700 -0.137324
C50   C     C_R   0.704793 0.510721 0.459300 -0.137324
C51   C     C_R   0.030605 0.541726 0.061215 -0.133071
C52   C     C_R   0.969398 0.458273 0.938785 -0.133071
C53   C     C_R   0.197689 0.017250 0.963193 -0.134377
C54   C     C_R   0.802359 0.982769 0.036792 -0.134374
C55   C     C_R   0.803122 0.982958 0.462735 -0.135320
C56   C     C_R   0.196878 0.017042 0.537265 -0.135319
C57   C     C_R   0.311672 0.458637 0.511688 0.138503
C58   C     C_R   0.688328 0.541363 0.488311 0.138504
C59   C     C_R   0.022816 0.572773 0.032403 0.127566
C60   C     C_R   0.977188 0.427226 0.967596 0.127569
C61   C     C_R   0.201439 0.047230 0.992863 0.136829
C62   C     C_R   0.798601 0.952787 0.007123 0.136832
C63   C     C_R   0.800532 0.953321 0.492797 0.137689
C64   C     C_R   0.199468 0.046679 0.507203 0.137688
O21   O     O_2   0.659143 0.595044 0.555186 -0.515364
O22   O     O_2   0.340857 0.404956 0.444814 -0.515364
O23   O     O_2   0.993596 0.368390 0.031411 -0.529755
O24   O     O_2   0.006406 0.631609 0.968588 -0.529752
O25   O     O_2   0.755227 0.891759 0.945717 -0.535211
O26   O     O_2   0.244735 0.108237 0.054289 -0.535202
O27   O     O_2   0.234587 0.105562 0.443511 -0.522673
O28   O     O_2   0.765413 0.894438 0.556489 -0.522673
O29   O     O_2   0.276002 0.553138 0.595881 -0.511651
O30   O     O_2   0.723998 0.446862 0.404119 -0.511651
O31   O     O_2   0.050486 0.480456 0.118893 -0.523766
O32   O     O_2   0.949518 0.519543 0.881107 -0.523766
O33   O     O_2   0.191853 0.959234 0.902993 -0.528606
O34   O     O_2   0.808209 0.040787 0.096990 -0.528594
O35   O     O_2   0.810981 0.041675 0.402666 -0.518029
O36   O     O_2   0.189019 0.958325 0.597334 -0.518029
C65   C     C_R   0.010979 0.407255 0.356017 -0.066001
C66   C     C_R   0.989021 0.592745 0.643983 -0.066001
C67   C     C_R   0.109864 0.609733 0.867920 -0.093047
C68   C     C_R   0.890139 0.390267 0.132080 -0.093046
C69   C     C_R   0.394321 0.108443 0.133350 -0.085920
C70   C     C_R   0.605707 0.891555 0.866649 -0.085945
C71   C     C_R   0.508271 0.906979 0.644292 -0.069918
C72   C     C_R   0.491728 0.093021 0.355708 -0.069920
C73   C     C_R   0.019518 0.377496 0.326259 -0.243397
C74   C     C_R   0.980482 0.622504 0.673741 -0.243396
C75   C     C_R   0.094038 0.639284 0.838172 -0.248183
C76   C     C_R   0.905964 0.360716 0.161828 -0.248186
C77   C     C_R   0.409217 0.138345 0.162777 -0.254480
C78   C     C_R   0.590806 0.861652 0.837225 -0.254474
C79   C     C_R   0.494320 0.876630 0.673629 -0.239948
C80   C     C_R   0.505680 0.123370 0.326371 -0.239949
C81   C     C_R   0.068147 0.334806 0.333539 -0.048342
C82   C     C_R   0.931853 0.665194 0.666461 -0.048342
C83   C     C_R   0.929472 0.665462 0.834663 -0.066129
C84   C     C_R   0.070528 0.334538 0.165336 -0.066128
C85   C     C_R   0.571086 0.165266 0.165549 -0.066578
C86   C     C_R   0.428915 0.834737 0.834449 -0.066578
C87   C     C_R   0.432944 0.834764 0.665994 -0.041353
C88   C     C_R   0.567056 0.165236 0.334006 -0.041352
C89   C     C_R   0.107516 0.321898 0.371342 0.106103
C90   C     C_R   0.892484 0.678102 0.628657 0.106102
C91   C     C_R   0.779398 0.661689 0.862425 0.109508
C92   C     C_R   0.220601 0.338309 0.137575 0.109511
C93   C     C_R   0.718901 0.162033 0.137280 0.105126
C94   C     C_R   0.281079 0.837980 0.862713 0.105130
C95   C     C_R   0.387873 0.823382 0.627877 0.117298
C96   C     C_R   0.612127 0.176618 0.372123 0.117298
C97   C     C_R   0.089233 0.351580 0.401308 -0.068478
C98   C     C_R   0.910767 0.648420 0.598692 -0.068478
C99   C     C_R   0.797734 0.631665 0.892110 -0.086811
C100  C     C_R   0.202266 0.368334 0.107889 -0.086813
C101  C     C_R   0.700794 0.131924 0.107704 -0.084415
C102  C     C_R   0.299191 0.868092 0.892287 -0.084418
C103  C     C_R   0.404003 0.854122 0.598693 -0.082002
C104  C     C_R   0.595997 0.145878 0.401307 -0.082002
H1    H     H_    0.113325 0.341329 0.430429 0.135136
H2    H     H_    0.886675 0.658671 0.569571 0.135136
H3    H     H_    0.684137 0.628346 0.913288 0.126085
H4    H     H_    0.315861 0.371652 0.086711 0.126086
H5    H     H_    0.811832 0.129455 0.085901 0.150528
H6    H     H_    0.188139 0.870568 0.914087 0.150517
H7    H     H_    0.370057 0.845564 0.569531 0.127281
H8    H     H_    0.629942 0.154436 0.430469 0.127281
C105  C     C_R   0.043254 0.394640 0.394023 0.327839
C106  C     C_R   0.956746 0.605360 0.605977 0.327839
C107  C     C_R   0.961732 0.605650 0.895003 0.343536
C108  C     C_R   0.038269 0.394349 0.104997 0.343535
C109  C     C_R   0.540010 0.104899 0.105615 0.330807
C110  C     C_R   0.460000 0.895109 0.894379 0.330821
C111  C     C_R   0.463335 0.895908 0.606621 0.345951
C112  C     C_R   0.536665 0.104092 0.393379 0.345953
H9    H     H_    0.406068 0.490758 0.562360 0.172588
H10   H     H_    0.593932 0.509242 0.437640 0.172588
H11   H     H_    0.044106 0.551918 0.090623 0.170750
H12   H     H_    0.955898 0.448081 0.909377 0.170749
H13   H     H_    0.078630 0.017947 0.943263 0.169667
H14   H     H_    0.921431 0.982075 0.056718 0.169668
H15   H     H_    0.922057 0.982213 0.442518 0.169563
H16   H     H_    0.077942 0.017787 0.557482 0.169564
C113  C     C_3   0.477701 0.427398 0.514416 -0.670495
H17   H     H_    0.421432 0.394253 0.515493 0.221994
H18   H     H_    0.577070 0.431167 0.489826 0.245468
H19   H     H_    0.564843 0.432318 0.540559 0.178335
C114  C     C_3   0.522299 0.572602 0.485584 -0.670495
H20   H     H_    0.578568 0.605747 0.484507 0.221994
H21   H     H_    0.435157 0.567682 0.459441 0.178335
H22   H     H_    0.422929 0.568833 0.510174 0.245468
C115  C     C_3   0.033566 0.618921 0.044755 -0.660272
H23   H     H_    0.900168 0.636096 0.036265 0.234585
H24   H     H_    0.046163 0.622228 0.076205 0.180314
H25   H     H_    0.162967 0.634316 0.032009 0.235620
C116  C     C_3   0.966438 0.381079 0.955244 -0.660280
H26   H     H_    0.099836 0.363903 0.963734 0.234584
H27   H     H_    0.837037 0.365684 0.967991 0.235619
H28   H     H_    0.953841 0.377771 0.923795 0.180315
C117  C     C_3   0.036397 0.078812 0.994815 -0.671846
H29   H     H_    0.091217 0.111703 0.990233 0.235588
H30   H     H_    0.925928 0.072768 0.972608 0.180291
H31   H     H_    0.961814 0.076407 0.022799 0.232882
C118  C     C_3   0.963665 0.921212 0.005165 -0.671878
H32   H     H_    0.908892 0.888320 0.009762 0.235603
H33   H     H_    0.038177 0.923609 0.977174 0.232878
H34   H     H_    0.074177 0.927270 0.027359 0.180298
C119  C     C_3   0.965536 0.921742 0.494488 -0.673183
H35   H     H_    0.910005 0.888756 0.491093 0.229859
H36   H     H_    0.073592 0.927086 0.471434 0.178235
H37   H     H_    0.043121 0.924913 0.521907 0.241309
C120  C     C_3   0.034463 0.078258 0.505512 -0.673182
H38   H     H_    0.089995 0.111243 0.508907 0.229859
H39   H     H_    0.956879 0.075087 0.478093 0.241309
H40   H     H_    0.926408 0.072914 0.528566 0.178235
H41   H     H_    0.979133 0.440279 0.349382 0.147072
H42   H     H_    0.020867 0.559721 0.650618 0.147072
H43   H     H_    0.237895 0.589980 0.869950 0.136785
H44   H     H_    0.762109 0.410020 0.130049 0.136786
H45   H     H_    0.269185 0.087824 0.132212 0.157886
H46   H     H_    0.730863 0.912168 0.867789 0.157875
H47   H     H_    0.555094 0.939093 0.650824 0.135484
H48   H     H_    0.444906 0.060907 0.349176 0.135483
H49   H     H_    0.991210 0.387950 0.297340 0.127536
H50   H     H_    0.008790 0.612050 0.702660 0.127536
H51   H     H_    0.210635 0.641372 0.817541 0.142157
H52   H     H_    0.789367 0.358629 0.182459 0.142158
H53   H     H_    0.294287 0.140041 0.183812 0.143246
H54   H     H_    0.705750 0.859949 0.816192 0.143246
H55   H     H_    0.530761 0.885882 0.702483 0.126474
H56   H     H_    0.469239 0.114118 0.297517 0.126473
C121  C     C_3   0.172430 0.276999 0.379778 -0.766261
H57   H     H_    0.067402 0.253867 0.368148 0.202498
H58   H     H_    0.314418 0.271258 0.365895 0.217220
H59   H     H_    0.187328 0.271206 0.410900 0.210498
C122  C     C_3   0.827570 0.723001 0.620222 -0.766262
H60   H     H_    0.932598 0.746133 0.631852 0.202498
H61   H     H_    0.812671 0.728793 0.589100 0.210498
H62   H     H_    0.685582 0.728741 0.634105 0.217220
C123  C     C_3   0.602480 0.689887 0.862009 -0.733237
H63   H     H_    0.512115 0.682301 0.836893 0.213043
H64   H     H_    0.511371 0.685158 0.887857 0.205645
H65   H     H_    0.645833 0.723996 0.861153 0.202667
C124  C     C_3   0.397516 0.310111 0.137990 -0.733247
H66   H     H_    0.487884 0.317696 0.163105 0.213043
H67   H     H_    0.354159 0.276002 0.138847 0.202666
H68   H     H_    0.488623 0.314839 0.112142 0.205645
C125  C     C_3   0.893100 0.190891 0.137089 -0.722005
H69   H     H_    0.846591 0.224830 0.138141 0.197263
H70   H     H_    0.986474 0.183560 0.161879 0.215018
H71   H     H_    0.982268 0.186570 0.110919 0.216134
C126  C     C_3   0.106851 0.809131 0.862901 -0.722013
H72   H     H_    0.153330 0.775189 0.861862 0.197272
H73   H     H_    0.017638 0.813467 0.889064 0.216144
H74   H     H_    0.013526 0.816457 0.838103 0.215014
C127  C     C_3   0.326413 0.779089 0.616669 -0.791264
H75   H     H_    0.311433 0.757131 0.641332 0.202390
H76   H     H_    0.185741 0.780905 0.601791 0.220634
H77   H     H_    0.434234 0.765354 0.596582 0.217476
C128  C     C_3   0.673587 0.220910 0.383331 -0.791264
H78   H     H_    0.688567 0.242869 0.358669 0.202391
H79   H     H_    0.565766 0.234646 0.403418 0.217476
H80   H     H_    0.814259 0.219095 0.398209 0.220634

loop_
_geom_bond_atom_site_label_1
_geom_bond_atom_site_label_2
_ccdc_geom_bond_type
O17   V3    S    
C16   O28   S    
C104  H8    S    
C126  H73   S    
C71   H47   S    
C31   C55   A    
N6    C109  S    
C6    C83   S    
O19   V1    S    
C119  H35   S    
C37   C45   A    
C49   C57   A    
C10   N2    A    
N8    C111  S    
C92   C100  A    
C50   H10   S    
C64   C120  S    
N2    C105  S    
C93   C101  A    
O15   V4    S    
C120  H38   S    
C3    C86   S    
O18   V4    S    
C77   H53   S    
C98   C106  A    
C21   O33   S    
C91   C99   A    
C127  H75   S    
C20   C28   A    
O8    V1    S    
C9    C41   A    
C42   C57   A    
C89   C97   A    
C27   C51   A    
C41   C58   A    
C122  H62   S    
C26   C50   A    
C71   C79   A    
C128  H78   S    
O12   V1    S    
C113  H19   S    
C115  H24   S    
C38   C46   A    
C51   H11   S    
O6    C7    A    
C46   C61   A    
C29   C37   A    
C102  C110  A    
C101  H5    S    
C45   C62   A    
O1    V3    S    
C121  H59   S    
C33   C41   A    
C76   H52   S    
C22   O34   S    
O3    C2    A    
O2    V4    S    
C125  H69   S    
N1    C17   A    
C118  H33   S    
C16   N8    A    
C70   C78   A    
C89   C121  S    
C54   C62   A    
C62   C118  S    
C27   C35   A    
C21   C29   A    
C8    C81   S    
C26   C34   A    
C68   C76   A    
O11   V2    S    
C69   C109  A    
C113  H18   S    
C23   C31   A    
C91   C123  S    
C53   H13   S    
C16   C48   A    
C74   H50   S    
C72   H48   S    
N4    C107  S    
C49   H9    S    
C4    C85   S    
C11   N3    A    
C123  H63   S    
C66   H42   S    
C79   H55   S    
C14   O26   S    
C75   C83   A    
N3    C108  S    
C94   C126  S    
C95   C103  A    
C59   C115  S    
N7    C23   A    
N5    C21   A    
O16   C8    A    
O7    V2    S    
N1    C106  S    
O12   C4    A    
C119  H36   S    
C30   C38   A    
C80   H56   S    
C37   C38   A    
C53   C61   A    
C11   O23   S    
C39   C47   A    
C104  C112  A    
C76   C84   A    
C68   C108  A    
O8    C5    A    
C19   C27   A    
O5    V1    S    
C120  H39   S    
O17   V1    S    
C121  H58   S    
C127  H76   S    
C67   C75   A    
O19   V3    S    
C35   C36   A    
C100  C108  A    
O20   V4    S    
C101  C109  A    
C70   H46   S    
C124  H68   S    
C114  H21   S    
C73   C81   A    
C128  H79   S    
C83   C91   A    
C115  H25   S    
C17   O29   S    
C14   C46   A    
C117  H30   S    
C114  H20   S    
O16   V3    S    
C70   C110  A    
C93   C125  S    
C40   C48   A    
C7    C82   S    
C55   C63   A    
C56   C64   A    
C125  H70   S    
C103  H7    S    
C63   C119  S    
C118  H34   S    
C5    C84   S    
C122  H60   S    
C87   C95   A    
C86   C94   A    
C30   C54   A    
O10   V2    S    
C52   C60   A    
C118  H32   S    
C98   H2    S    
C58   C114  S    
C117  H31   S    
O11   C3    A    
N6    C22   A    
C1    C88   S    
C24   C32   A    
C121  H57   S    
C18   C26   A    
O13   C5    A    
C2    C87   S    
C12   O24   S    
C36   C44   A    
O9    C1    A    
C48   C63   A    
C69   H45   S    
C123  H64   S    
C28   C36   A    
C29   C53   A    
C43   C60   A    
N2    C18   A    
C65   C73   A    
O4    C1    A    
O18   V2    S    
C19   O31   S    
O6    V2    S    
C31   C39   A    
C33   C34   A    
C57   C113  S    
C124  H67   S    
O14   C6    A    
C122  H61   S    
C119  H37   S    
C25   C49   A    
C12   N4    A    
C35   C43   A    
C13   N5    A    
C51   C59   A    
C82   C90   A    
C71   C111  A    
C99   H3    S    
C60   C116  S    
C72   C112  A    
C15   N7    A    
N5    C110  S    
C120  H40   S    
C77   C85   A    
C116  H26   S    
N8    C24   A    
C75   H51   S    
O1    C4    A    
C32   C56   A    
C95   C127  S    
C23   O35   S    
O2    C3    A    
C73   H49   S    
O13   V3    S    
C90   C122  S    
C61   C117  S    
C11   C43   A    
C25   C33   A    
C52   H12   S    
C56   H16   S    
N4    C20   A    
C17   C25   A    
C72   C80   A    
C15   O27   S    
O9    V1    S    
C84   C92   A    
O7    C6    A    
C55   H15   S    
C96   C128  S    
C102  H6    S    
C85   C93   A    
C50   C58   A    
C67   H43   S    
C90   C98   A    
C125  H71   S    
C9    N1    A    
O15   C7    A    
C94   C102  A    
C128  H80   S    
C80   C88   A    
C97   H1    S    
C39   C40   A    
C68   H44   S    
C99   C107  A    
C116  H28   S    
C14   N6    A    
C13   O25   S    
N7    C112  S    
C28   C52   A    
N3    C19   A    
C115  H23   S    
O5    C8    A    
C97   C105  A    
O10   C2    A    
C103  C111  A    
C114  H22   S    
O20   V2    S    
C92   C124  S    
C10   O22   S    
C74   C82   A    
C9    O21   S    
C32   C40   A    
C67   C107  A    
O3    V4    S    
C79   C87   A    
C123  H65   S    
C124  H66   S    
C127  H77   S    
O4    V3    S    
C66   C106  A    
C113  H17   S    
C44   C59   A    
C65   C105  A    
C66   C74   A    
C47   C64   A    
C81   C89   A    
C78   C86   A    
C88   C96   A    
C117  H29   S    
C126  H74   S    
C18   O30   S    
C22   C30   A    
C20   O32   S    
C10   C42   A    
C100  H4    S    
C78   H54   S    
C54   H14   S    
C126  H72   S    
C69   C77   A    
O14   V4    S    
C12   C44   A    
C24   O36   S    
C96   C104  A    
C15   C47   A    
C116  H27   S    
C65   H41   S    
C13   C45   A    
C34   C42   A    
