data_mof_unit_11185.cif
_audit_creation_date              2012-12-10T17:49:37-0500
_audit_creation_method            fapswitch 2.2
_symmetry_space_group_name_H-M    P1
_symmetry_Int_Tables_number       1
_space_group_crystal_system       triclinic
_cell_length_a                    14.664771
_cell_length_b                    14.677797
_cell_length_c                    15.881863
_cell_angle_alpha                 76.80459
_cell_angle_beta                  102.731767
_cell_angle_gamma                 114.898655
_cell_volume                      2988.86409405

loop_
_atom_site_label
_atom_site_type_symbol
_atom_type_description
_atom_site_fract_x
_atom_site_fract_y
_atom_site_fract_z
_atom_type_partial_charge
C1    C     C_R   0.880301 0.311838 0.511417 0.810750
C2    C     C_3   0.021380 0.408489 0.071665 0.135419
C3    C     C_3   0.007041 0.504233 0.083651 0.232958
C4    C     C_3   0.094242 0.603099 0.046934 -0.038960
C5    C     C_3   0.094691 0.602361 0.948357 0.028686
C6    C     C_1   0.004578 0.502677 0.175740 -0.045645
C7    C     C_1   0.002037 0.503043 0.824671 -0.074157
C8    C     C_1   0.000230 0.501429 0.749131 -0.189648
C9    C     C_R   0.813290 0.203743 0.508230 -0.093814
C10   C     C_R   0.187157 0.795663 0.466316 -0.047336
C11   C     C_R   0.782684 0.026340 0.514775 -0.272193
C12   C     C_R   0.999726 0.500031 0.659701 0.830189
C13   C     C_R   0.851067 0.126885 0.519006 0.253178
C14   C     C_R   0.708208 0.178240 0.489988 -0.315147
C15   C     C_R   0.639264 0.078667 0.480301 0.110105
C16   C     C_R   0.677908 0.001790 0.496307 0.127825
C17   C     C_R   0.532712 0.052894 0.458244 0.040637
C18   C     C_R   0.465931 0.948934 0.465842 0.061782
C19   C     C_R   0.507465 0.874424 0.480253 -0.216088
C20   C     C_R   0.611603 0.900900 0.493749 -0.220030
C21   C     C_R   0.491150 0.127496 0.426607 -0.298189
C22   C     C_R   0.386330 0.101675 0.409657 0.227333
C23   C     C_R   0.119802 0.687944 0.483844 0.794173
C24   C     C_R   0.319810 0.999417 0.426578 0.129437
C25   C     C_R   0.359650 0.922826 0.456689 0.032776
C26   C     C_R   0.213888 0.971862 0.413290 -0.182744
C27   C     C_R   0.148265 0.870873 0.432568 -0.219869
C28   C     C_R   0.291982 0.822299 0.479214 -0.238028
C29   C     C_R   0.709531 0.658880 0.347327 -0.313243
C30   C     C_R   0.795697 0.636875 0.376612 0.078237
C31   C     C_R   0.713687 0.508099 0.487075 0.041332
C32   C     C_R   0.623733 0.528103 0.461649 -0.064409
C33   C     C_R   0.620840 0.601725 0.386825 0.046789
C34   C     C_R   0.000492 0.500141 0.340367 0.820441
C35   C     C_R   0.537558 0.477762 0.507621 0.035132
C36   C     C_R   0.446832 0.496246 0.474495 0.011594
C37   C     C_R   0.439930 0.552805 0.389140 0.097821
C38   C     C_R   0.528609 0.613465 0.350605 0.248144
C39   C     C_R   0.539169 0.409139 0.585785 -0.229098
C40   C     C_R   0.455095 0.358729 0.629467 -0.208244
C41   C     C_R   0.367900 0.380298 0.601695 0.144104
C42   C     C_R   0.365805 0.454484 0.527039 -0.041866
C43   C     C_R   0.283372 0.331059 0.648212 0.069548
C44   C     C_R   0.201464 0.361173 0.622254 0.086171
C45   C     C_3   0.021053 0.410467 0.973119 -0.489919
C46   C     C_R   0.284955 0.487782 0.511144 -0.027144
C47   C     C_3   0.902389 0.501178 0.932345 -0.388748
C48   C     C_3   0.905406 0.505646 0.029272 -0.452428
C49   C     C_1   0.002437 0.501337 0.251023 -0.179300
C50   C     C_3   0.005048 0.505510 0.917025 0.257460
Cu1   Cu    Cu3+1 0.081750 0.475690 0.522550 0.936664
Cu2   Cu    Cu3+1 0.918250 0.524310 0.477450 0.931983
H1    H     H_    0.094557 0.411156 0.964217 0.147189
H2    H     H_    0.096676 0.411995 0.107787 0.144459
H3    H     H_    0.077467 0.668719 0.052470 0.180229
H4    H     H_    0.640326 0.841587 0.503911 0.146869
H5    H     H_    0.319613 0.763415 0.509199 0.152631
H6    H     H_    0.067172 0.851785 0.421016 0.152059
H7    H     H_    0.811838 0.967322 0.525046 0.136223
H8    H     H_    0.681088 0.237042 0.486068 0.166912
H9    H     H_    0.960596 0.340367 0.950017 0.186529
H10   H     H_    0.461239 0.794972 0.478099 0.137746
H11   H     H_    0.538524 0.206945 0.411503 0.150935
H12   H     H_    0.181015 0.028020 0.387816 0.168842
H13   H     H_    0.285321 0.553231 0.463629 0.155372
H14   H     H_    0.135176 0.323658 0.655575 0.141379
H15   H     H_    0.460861 0.304702 0.687342 0.157197
H16   H     H_    0.713143 0.719460 0.293009 0.142742
H17   H     H_    0.862442 0.679030 0.344316 0.120242
H18   H     H_    0.720239 0.449475 0.539752 0.119853
H19   H     H_    0.884045 0.564482 0.889860 0.178596
H20   H     H_    0.604423 0.391472 0.615197 0.133295
H21   H     H_    0.840013 0.429357 0.914385 0.166934
H22   H     H_    0.839177 0.441293 0.055566 0.180277
H23   H     H_    0.897067 0.576259 0.033844 0.166485
H24   H     H_    0.166461 0.597883 0.940903 0.167197
N1    N     N_R   0.795410 0.560790 0.443550 -0.176886
N2    N     N_R   0.204590 0.439170 0.556520 -0.199637
O1    O     O_R   0.977910 0.338120 0.529720 -0.550782
O2    O     O_R   0.839850 0.379180 0.491640 -0.596962
O3    O     O_R   0.069060 0.479460 0.639610 -0.578716
O4    O     O_R   0.931000 0.520530 0.601530 -0.578096
O5    O     O_R   0.160150 0.620820 0.508360 -0.589336
O6    O     O_R   0.022090 0.661880 0.470280 -0.588850
O7    O     O_R   0.069000 0.479470 0.398470 -0.580092
O8    O     O_R   0.930940 0.520540 0.360390 -0.578161
N3    N     N_2   0.943232 0.314934 0.107608 -0.414977
H25   H     H_    0.871428 0.297669 0.072621 0.260087
C51   C     C_3   0.970734 0.227770 0.136241 -0.725534
H26   H     H_    0.907548 0.162847 0.165939 0.229995
H27   H     H_    0.039210 0.245279 0.186488 0.235324
H28   H     H_    0.985646 0.205511 0.079931 0.224847
N4    N     N_2   0.348526 0.179685 0.375741 -0.445915
H29   H     H_    0.390804 0.236362 0.331314 0.255109
C52   C     C_3   0.330424 0.220782 0.442019 -0.697008
H30   H     H_    0.402997 0.257944 0.483415 0.247271
H31   H     H_    0.276245 0.159862 0.483767 0.231465
H32   H     H_    0.297554 0.278080 0.410455 0.230614
N5    N     N_2   0.957134 0.149219 0.534993 -0.418661
H33   H     H_    0.976145 0.094719 0.579811 0.240495
C53   C     C_3   0.003443 0.174833 0.456638 -0.642070
H34   H     H_    0.973395 0.107824 0.422173 0.204136
H35   H     H_    0.086948 0.198634 0.474466 0.220486
H36   H     H_    0.988261 0.238744 0.411983 0.242286
N6    N     N_2   0.520764 0.679604 0.270612 -0.429528
H37   H     H_    0.557981 0.679519 0.222675 0.244354
C54   C     C_3   0.533551 0.779679 0.281329 -0.685620
H38   H     H_    0.611640 0.820583 0.313416 0.221908
H39   H     H_    0.477464 0.773817 0.321359 0.239781
H40   H     H_    0.520850 0.823950 0.216369 0.225448
C55   C     C_3   0.339395 0.536213 0.330076 -0.840823
H41   H     H_    0.277225 0.465160 0.353548 0.223838
H42   H     H_    0.319066 0.602763 0.322336 0.232708
H43   H     H_    0.345011 0.526415 0.264319 0.245954
C56   C     C_3   0.278180 0.246707 0.724261 -0.928995
H44   H     H_    0.204705 0.215363 0.750210 0.230475
H45   H     H_    0.286140 0.183638 0.703137 0.241541
H46   H     H_    0.339778 0.275856 0.778148 0.239686
C57   C     C_3   0.094451 0.702916 0.892008 -0.913115
H47   H     H_    0.162213 0.767605 0.915672 0.238023
H48   H     H_    0.098227 0.704175 0.822700 0.245704
H49   H     H_    0.025744 0.714979 0.895688 0.237934
C58   C     C_3   0.200515 0.621101 0.099969 -0.939841
H50   H     H_    0.227788 0.562651 0.095544 0.232507
H51   H     H_    0.255799 0.696382 0.073943 0.249977
H52   H     H_    0.200458 0.621739 0.169686 0.253035

loop_
_geom_bond_atom_site_label_1
_geom_bond_atom_site_label_2
_ccdc_geom_bond_type
C10   C27   A    
N3    H25   S    
N4    H29   S    
C54   H39   S    
C41   C42   A    
C36   C42   A    
C52   H30   S    
C20   H4    S    
C3    C6    S    
Cu1   O7    S    
C52   H32   S    
C7    C8    T    
C28   H5    S    
C25   C28   A    
N6    C54   S    
C26   C27   A    
C53   H34   S    
C23   O5    A    
C5    C57   S    
C36   C37   A    
C37   C38   A    
C24   C26   A    
C42   C46   A    
C58   H51   S    
C19   H10   S    
C15   C16   A    
C29   C33   A    
C3    C48   S    
C18   C19   A    
C34   O8    A    
C45   H9    S    
Cu2   O6    S    
C9    C13   A    
C26   H12   S    
C43   C56   S    
C30   N1    A    
C44   H14   S    
C31   H18   S    
C19   C20   A    
C56   H45   S    
C40   H15   S    
C39   H20   S    
C51   H27   S    
Cu1   O3    S    
C16   C20   A    
C45   H1    S    
C53   H35   S    
C21   C22   A    
C41   C43   A    
C48   H23   S    
C18   C25   A    
C11   H7    S    
C31   N1    A    
C47   C50   S    
C57   H48   S    
C2    C45   S    
C37   C55   S    
C23   O6    A    
Cu1   Cu2   S    
C32   C35   A    
C48   H22   S    
C58   H50   S    
C1    C9    S    
C24   C25   A    
C47   H21   S    
C46   H13   S    
C2    H2    S    
C39   C40   A    
C46   N2    A    
C58   H52   S    
C17   C21   A    
C3    C4    S    
C4    C58   S    
C34   O7    A    
C13   N5    S    
C35   C39   A    
C9    C14   A    
C29   C30   A    
C29   H16   S    
C11   C16   A    
C47   C48   S    
C8    C12   S    
C56   H46   S    
C17   C18   A    
C12   O4    A    
C2    N3    S    
C55   H42   S    
C51   H28   S    
Cu2   O4    S    
C47   H19   S    
C40   C41   A    
N5    C53   S    
C53   H36   S    
N3    C51   S    
C4    H3    S    
C1    O1    A    
C22   N4    S    
C22   C24   A    
C5    C50   S    
C54   H38   S    
Cu2   N1    S    
Cu1   O5    S    
C30   H17   S    
C57   H49   S    
C10   C28   A    
C15   C17   A    
C34   C49   S    
C55   H41   S    
C31   C32   A    
C7    C50   S    
C4    C5    S    
C27   H6    S    
C57   H47   S    
C52   H31   S    
C10   C23   S    
C14   H8    S    
N6    H37   S    
C33   C38   A    
N5    H33   S    
C32   C33   A    
C5    H24   S    
C44   N2    A    
C2    C3    S    
Cu1   N2    S    
C38   N6    S    
C11   C13   A    
C45   C50   S    
C43   C44   A    
Cu2   O8    S    
C54   H40   S    
C12   O3    A    
C55   H43   S    
C6    C49   T    
Cu1   O1    S    
C21   H11   S    
N4    C52   S    
C1    O2    A    
C14   C15   A    
C35   C36   A    
C51   H26   S    
Cu2   O2    S    
C56   H44   S    
