data_mof_unit_41585.cif
_audit_creation_date              2012-12-11T17:11:36-0500
_audit_creation_method            fapswitch 2.2
_symmetry_space_group_name_H-M    P1
_symmetry_Int_Tables_number       1
_space_group_crystal_system       triclinic
_cell_length_a                    15.011656
_cell_length_b                    6.937219
_cell_length_c                    13.642005
_cell_angle_alpha                 89.937307
_cell_angle_beta                  100.930611
_cell_angle_gamma                 90.083337
_cell_volume                      1394.89039868

loop_
_atom_site_label
_atom_site_type_symbol
_atom_type_description
_atom_site_fract_x
_atom_site_fract_y
_atom_site_fract_z
_atom_type_partial_charge
O1    O     O_R   0.398250 0.605080 0.401520 -0.536734
O2    O     O_R   0.898250 0.394920 0.901520 -0.536282
O3    O     O_R   0.584130 0.932110 0.405450 -0.538486
O4    O     O_R   0.084130 0.067890 0.905450 -0.537980
O5    O     O_R   0.601750 0.105090 0.598480 -0.534512
O6    O     O_R   0.101750 0.894910 0.098480 -0.535150
C1    C     C_R   0.611086 0.763950 0.382330 0.756102
C2    C     C_R   0.111373 0.236433 0.882645 0.752574
O7    O     O_R   0.397870 0.934620 0.389680 -0.540647
O8    O     O_R   0.897870 0.065380 0.889680 -0.540670
O9    O     O_R   0.414160 0.107620 0.582600 -0.543119
O10   O     O_R   0.914160 0.892380 0.082600 -0.543738
C3    C     C_R   0.363946 0.765707 0.362691 0.730657
C4    C     C_R   0.864005 0.234252 0.862613 0.730125
O11   O     O_R   0.585840 0.602550 0.417400 -0.542755
O12   O     O_R   0.085840 0.397450 0.917400 -0.542889
O13   O     O_3   0.505560 0.772440 0.563310 -0.367689
O14   O     O_3   0.005560 0.227560 0.063310 -0.367720
V1    V     V_3+5 0.498970 0.046250 0.488250 1.412823
V2    V     V_3+5 0.998970 0.953750 0.988250 1.409847
O15   O     O_R   0.415870 0.437500 0.594550 -0.541223
O16   O     O_R   0.915870 0.562500 0.094550 -0.541211
C5    C     C_R   0.390059 0.268380 0.618288 0.742245
C6    C     C_R   0.890571 0.731254 0.118940 0.739449
O17   O     O_R   0.602130 0.434980 0.610320 -0.540410
O18   O     O_R   0.102130 0.565020 0.110320 -0.540436
C7    C     C_R   0.636093 0.265956 0.637182 0.727129
C8    C     C_R   0.135991 0.734106 0.137318 0.726147
V3    V     V_3+5 0.501030 0.546580 0.511750 1.414825
V4    V     V_3+5 0.001030 0.453420 0.011750 1.413138
O19   O     O_3   0.494440 0.270520 0.436690 -0.373518
O20   O     O_3   0.994440 0.729480 0.936690 -0.372147
C9    C     C_1   0.716404 0.255244 0.716783 -0.193805
C10   C     C_1   0.216277 0.744817 0.216954 -0.190114
C11   C     C_1   0.783678 0.244959 0.782999 -0.191327
C12   C     C_1   0.283568 0.754986 0.283151 -0.190145
C13   C     C_2   0.267850 0.133424 0.691990 -0.192039
C14   C     C_2   0.772779 0.872105 0.197917 -0.194556
C15   C     C_2   0.338576 0.257790 0.700512 -0.039521
C16   C     C_2   0.839418 0.739515 0.201683 -0.037185
H1    H     H_    0.253468 0.042080 0.626166 0.118120
H2    H     H_    0.760989 0.972951 0.135761 0.121320
C17   C     C_2   0.209982 0.099546 0.767577 0.324342
C18   C     C_2   0.716087 0.902143 0.274725 0.325131
C19   C     C_2   0.172879 0.249958 0.809631 -0.415860
C20   C     C_2   0.670992 0.752177 0.307648 -0.414032
H3    H     H_    0.187483 0.394906 0.787070 0.122236
H4    H     H_    0.679327 0.609271 0.278046 0.123473
C21   C     C_3   0.373453 0.376833 0.793838 -0.348209
C22   C     C_3   0.474074 0.339703 0.834591 -0.757856
H5    H     H_    0.486302 0.183182 0.848234 0.224707
H6    H     H_    0.495238 0.417862 0.906251 0.212645
H7    H     H_    0.516439 0.392256 0.781692 0.222907
H8    H     H_    0.363341 0.532355 0.775561 0.195025
H9    H     H_    0.337978 0.343595 0.855808 0.191577
C23   C     C_3   0.869965 0.606341 0.290648 -0.346243
C24   C     C_3   0.970054 0.636843 0.336579 -0.769182
H10   H     H_    0.014114 0.595637 0.283275 0.225308
H11   H     H_    0.982671 0.790178 0.358388 0.222482
H12   H     H_    0.988607 0.545558 0.404292 0.210303
H13   H     H_    0.832168 0.629570 0.351681 0.190105
H14   H     H_    0.859162 0.454169 0.265879 0.196871
N1    N     N_2   0.189097 0.903722 0.785680 -0.508058
H15   H     H_    0.194956 0.864429 0.859466 0.265024
C25   C     C_3   0.110133 0.827658 0.719344 -0.504374
H16   H     H_    0.048579 0.911296 0.726233 0.194283
H17   H     H_    0.099258 0.675259 0.738687 0.184223
H18   H     H_    0.120120 0.833363 0.640779 0.179780
N2    N     N_2   0.704206 0.096939 0.302608 -0.511253
H19   H     H_    0.638295 0.144215 0.295613 0.270445
C26   C     C_3   0.765277 0.160069 0.391796 -0.518120
H20   H     H_    0.753108 0.077294 0.457765 0.189875
H21   H     H_    0.753972 0.315423 0.404533 0.177300
H22   H     H_    0.836838 0.140356 0.383150 0.196651

loop_
_geom_bond_atom_site_label_1
_geom_bond_atom_site_label_2
_ccdc_geom_bond_type
V4    O20   S    
N1    C25   S    
O13   V3    S    
O4    C2    A    
V1    O19   S    
C17   N1    S    
C7    C9    S    
O9    V1    S    
O16   C6    A    
C14   H2    S    
O3    C1    A    
C24   H11   S    
O12   V4    S    
C21   H8    S    
C23   C24   S    
N2    C26   S    
O7    C3    A    
C2    C19   S    
C9    C11   T    
O5    C7    A    
O7    V1    S    
O6    C8    A    
O8    V2    S    
C25   H17   S    
C22   H6    S    
O3    V1    S    
O14   V4    S    
C10   C12   T    
C1    O11   A    
C8    C10   S    
C2    O12   A    
C18   C20   D    
O11   V3    S    
C19   H3    S    
O17   V3    S    
C20   H4    S    
C22   H7    S    
C1    C20   S    
C3    C12   S    
O8    C4    A    
C4    C11   S    
C26   H21   S    
O13   V1    S    
C24   H12   S    
C16   C23   S    
C21   H9    S    
O15   V3    S    
C13   C17   S    
C14   C18   S    
C25   H18   S    
O10   V2    S    
O1    V3    S    
C22   H5    S    
C18   N2    S    
C17   C19   D    
C15   C21   S    
C21   C22   S    
O15   C5    A    
C23   H14   S    
O1    C3    A    
V2    O20   S    
O16   V4    S    
C26   H22   S    
O18   V4    S    
O5    V1    S    
O17   C7    A    
O6    V2    S    
O10   C6    A    
O18   C8    A    
O2    V4    S    
C26   H20   S    
C13   C15   D    
C14   C16   D    
C24   H10   S    
C5    C15   S    
O9    C5    A    
C6    C16   S    
O14   V2    S    
C13   H1    S    
N2    H19   S    
O2    C4    A    
N1    H15   S    
O4    V2    S    
V3    O19   S    
C25   H16   S    
C23   H13   S    
