data_mof_unit_34460.cif
_audit_creation_date              2012-12-10T19:27:50-0500
_audit_creation_method            fapswitch 2.2
_symmetry_space_group_name_H-M    P1
_symmetry_Int_Tables_number       1
_space_group_crystal_system       triclinic
_cell_length_a                    17.38402
_cell_length_b                    16.422651
_cell_length_c                    10.902685
_cell_angle_alpha                 91.877792
_cell_angle_beta                  88.691785
_cell_angle_gamma                 89.975321
_cell_volume                      3110.14145159

loop_
_atom_site_label
_atom_site_type_symbol
_atom_type_description
_atom_site_fract_x
_atom_site_fract_y
_atom_site_fract_z
_atom_type_partial_charge
C1    C     C_R   0.354588 0.500242 0.508401 0.898594
C2    C     C_3   0.572192 0.457069 0.920226 -0.563486
C3    C     C_R   0.839236 0.574337 0.604765 0.282266
C4    C     C_R   0.840893 0.426681 0.602709 0.312195
C5    C     C_R   0.773134 0.573443 0.532591 0.247527
C6    C     C_R   0.771857 0.424433 0.535715 0.263562
C7    C     C_R   0.732737 0.498844 0.513190 -0.375385
C8    C     C_R   0.877371 0.501518 0.626879 -0.245444
C9    C     C_1   0.960633 0.503403 0.633509 0.269668
C10   C     C_1   0.030143 0.503265 0.624480 0.192432
C11   C     C_R   0.159794 0.567806 0.635822 0.336865
C12   C     C_R   0.146202 0.433544 0.535373 0.382067
C13   C     C_R   0.237639 0.567959 0.599633 -0.260588
C14   C     C_R   0.225193 0.433439 0.506277 -0.149656
C15   C     C_R   0.270900 0.501159 0.535238 -0.150931
C16   C     C_R   0.500955 0.498752 0.258879 0.983080
C17   C     C_R   0.112701 0.501010 0.601242 -0.150202
C18   C     C_R   0.544927 0.832115 0.574208 -0.353258
C19   C     C_R   0.554375 0.170968 0.558498 -0.313958
C20   C     C_R   0.544935 0.746374 0.576368 0.082648
C21   C     C_R   0.554053 0.256830 0.560866 0.082877
C22   C     C_R   0.457185 0.738791 0.415038 0.071115
C23   C     C_R   0.441576 0.257534 0.444490 0.002574
C24   C     C_R   0.457941 0.824229 0.404925 0.355355
C25   C     C_R   0.437953 0.171719 0.442224 0.312181
C26   C     C_R   0.500411 0.872612 0.489197 0.007716
C27   C     C_R   0.496711 0.126884 0.497156 -0.024552
C28   C     C_1   0.499322 0.962413 0.490696 0.114752
C29   C     C_1   0.498207 0.037061 0.493491 0.115210
C30   C     C_R   0.646732 0.499714 0.497247 0.960323
C31   C     C_R   0.500056 0.501390 0.740159 0.880941
C32   C     C_3   0.517535 0.587886 0.075495 0.109155
C33   C     C_3   0.420193 0.472454 0.070028 0.136716
C34   C     C_3   0.504076 0.593083 0.934432 0.209789
C35   C     C_3   0.422495 0.466869 0.926580 0.194417
C36   C     C_3   0.567659 0.438156 0.061220 0.859685
C37   C     C_3   0.502901 0.497338 0.120158 -0.311080
C38   C     C_3   0.500135 0.503507 0.876698 -0.194157
Cu1   Cu    Cu3+1 0.499980 0.580420 0.499990 1.033412
Cu2   Cu    Cu3+1 0.499980 0.419580 0.499990 1.031304
H1    H     H_    0.273184 0.619677 0.625192 0.197579
H2    H     H_    0.251116 0.380714 0.459636 0.235939
H3    H     H_    0.580569 0.866630 0.637204 0.168545
H4    H     H_    0.599125 0.139240 0.605368 0.190828
H5    H     H_    0.582114 0.715244 0.637080 0.169640
H6    H     H_    0.596749 0.290062 0.612534 0.179869
H7    H     H_    0.423416 0.701758 0.352681 0.172427
H8    H     H_    0.396243 0.291750 0.404303 0.226232
H9    H     H_    0.471827 0.627217 0.119606 0.101005
H10   H     H_    0.383728 0.526836 0.093996 0.068556
H11   H     H_    0.445871 0.620530 0.922387 0.017184
H12   H     H_    0.378518 0.512363 0.901183 0.098637
H13   H     H_    0.621294 0.497635 0.899215 0.218858
H14   H     H_    0.585525 0.401750 0.863671 0.143232
N1    N     N_R   0.499970 0.701220 0.499970 -0.195855
N2    N     N_R   0.499970 0.298780 0.499970 -0.216235
O1    O     O_R   0.391240 0.567930 0.499990 -0.608008
O2    O     O_R   0.391240 0.432070 0.499990 -0.576475
O3    O     O_R   0.499970 0.567910 0.317690 -0.580311
O4    O     O_R   0.499970 0.432090 0.317690 -0.486405
O5    O     O_R   0.608730 0.567880 0.500000 -0.521545
O6    O     O_R   0.608730 0.432120 0.500000 -0.549444
O7    O     O_R   0.500000 0.567910 0.682300 -0.586468
O8    O     O_R   0.500000 0.432090 0.682300 -0.599939
S1    S     S_3+6 0.606494 0.635915 0.127783 0.083911
O9    O     O_2   0.588711 0.722433 0.168039 -0.268374
O10   O     O_2   0.636955 0.593287 0.235667 -0.177178
O11   O     O_3   0.676224 0.636215 0.018377 -0.499311
H15   H     H_    0.720275 0.664262 0.057313 0.398112
S2    S     S_3+6 0.362140 0.396014 0.144908 0.051773
O12   O     O_2   0.326857 0.434037 0.259668 -0.307799
O13   O     O_2   0.297612 0.370228 0.062709 -0.219832
O14   O     O_3   0.412150 0.313403 0.182642 -0.514327
H16   H     H_    0.376998 0.266686 0.169240 0.383883
S3    S     S_3+6 0.408855 0.866881 0.282491 0.056231
O15   O     O_2   0.335632 0.905772 0.331020 -0.179515
O16   O     O_2   0.458893 0.929978 0.223816 -0.246701
O17   O     O_3   0.387583 0.793919 0.176732 -0.568878
H17   H     H_    0.365561 0.823397 0.107887 0.387598
S4    S     S_3+6 0.358476 0.123498 0.373171 0.040607
O18   O     O_2   0.384536 0.083826 0.253265 -0.233458
O19   O     O_2   0.326632 0.060049 0.456513 -0.210730
O20   O     O_3   0.289254 0.191937 0.347118 -0.518487
H18   H     H_    0.250793 0.161568 0.298058 0.404200
O21   O     O_3   0.560102 0.642692 0.875976 -0.501796
C39   C     C_3   0.537700 0.726132 0.885735 0.151494
H19   H     H_    0.507355 0.742554 0.974242 0.178333
H20   H     H_    0.497319 0.739207 0.811543 0.119958
C40   C     C_3   0.607976 0.781491 0.875700 -0.661704
H21   H     H_    0.589163 0.844552 0.858139 0.181952
H22   H     H_    0.639862 0.783273 0.962539 0.290253
H23   H     H_    0.647901 0.759989 0.800815 0.252771
O22   O     O_3   0.391360 0.396592 0.864681 -0.527812
C41   C     C_3   0.432501 0.322978 0.871296 0.189386
H24   H     H_    0.435021 0.302782 0.965578 0.229044
H25   H     H_    0.490619 0.326198 0.830343 0.139607
C42   C     C_3   0.390029 0.257168 0.798558 -0.720480
H26   H     H_    0.384188 0.275280 0.701984 0.253361
H27   H     H_    0.422438 0.198888 0.799509 0.193224
H28   H     H_    0.331775 0.247952 0.839727 0.284905
O23   O     O_3   0.638326 0.451322 0.125617 -0.549361
C43   C     C_3   0.707937 0.441376 0.054665 0.017640
H29   H     H_    0.724463 0.499767 0.014182 0.226044
H30   H     H_    0.704379 0.394779 0.978999 0.115688
C44   C     C_3   0.773700 0.417671 0.136092 -0.529866
H31   H     H_    0.772324 0.454966 0.222794 0.296054
H32   H     H_    0.769864 0.352227 0.157096 0.246738
H33   H     H_    0.829578 0.427611 0.087459 0.218941
O24   O     O_3   0.540715 0.357247 0.079214 -0.560475
C45   C     C_3   0.596146 0.294694 0.059517 0.046840
H34   H     H_    0.645519 0.303256 0.120528 0.207481
H35   H     H_    0.615993 0.290272 0.962102 0.119900
C46   C     C_3   0.560743 0.213117 0.091790 -0.699573
H36   H     H_    0.512413 0.197743 0.030578 0.235669
H37   H     H_    0.604887 0.164383 0.080531 0.212956
H38   H     H_    0.539502 0.215195 0.188728 0.271921
S5    S     S_3+6 0.868772 0.665008 0.682819 0.102692
O25   O     O_2   0.891381 0.645455 0.810817 -0.224715
O26   O     O_2   0.936696 0.700601 0.616095 -0.164845
O27   O     O_3   0.796233 0.732951 0.690613 -0.533164
H39   H     H_    0.816790 0.780647 0.737124 0.387182
S6    S     S_3+6 0.874611 0.338274 0.675886 0.112278
O28   O     O_2   0.905442 0.276665 0.582459 -0.126025
O29   O     O_2   0.936636 0.359688 0.765198 -0.254622
O30   O     O_3   0.800649 0.297185 0.754355 -0.534064
H40   H     H_    0.822197 0.247915 0.790859 0.384312
S7    S     S_3+6 0.768069 0.649686 0.420158 0.120290
O31   O     O_2   0.831497 0.711322 0.432443 -0.190791
O32   O     O_2   0.778636 0.608503 0.296030 -0.231088
O33   O     O_3   0.683635 0.699384 0.426954 -0.448097
H41   H     H_    0.693996 0.751171 0.472676 0.362663
S8    S     S_3+6 0.751305 0.332431 0.450089 0.049913
O34   O     O_2   0.822863 0.307325 0.378691 -0.212421
O35   O     O_2   0.730752 0.265881 0.536099 -0.267666
O36   O     O_3   0.680747 0.341856 0.348670 -0.529245
H42   H     H_    0.658319 0.286654 0.338946 0.362643
S9    S     S_3+6 0.124813 0.652830 0.724094 0.092611
O37   O     O_2   0.096448 0.715465 0.638551 -0.152058
O38   O     O_2   0.060246 0.628995 0.809543 -0.212169
O39   O     O_3   0.196185 0.694208 0.806988 -0.487774
H43   H     H_    0.212483 0.650522 0.861346 0.344386
S10   S     S_3+6 0.091507 0.347390 0.489568 0.080956
O40   O     O_2   0.071410 0.299999 0.601377 -0.197616
O41   O     O_2   0.018945 0.373986 0.429977 -0.247652
O42   O     O_3   0.142415 0.287522 0.389411 -0.480097
H44   H     H_    0.109181 0.239533 0.373449 0.399794

loop_
_geom_bond_atom_site_label_1
_geom_bond_atom_site_label_2
_ccdc_geom_bond_type
O22   C41   S    
Cu2   O4    S    
C27   C29   S    
C25   S4    S    
O14   H16   S    
C18   C26   A    
C4    C8    A    
C13   H1    S    
O42   H44   S    
C23   N2    A    
O21   C39   S    
O27   H39   S    
C44   H32   S    
C28   C29   T    
C34   H11   S    
O23   C43   S    
C22   C24   A    
C36   C37   S    
C19   C21   A    
C24   C26   A    
C21   H6    S    
S5    O26   D    
C39   H20   S    
C10   C17   S    
Cu1   O1    S    
Cu2   O6    S    
C43   C44   S    
C16   O4    A    
C45   H34   S    
C3    S5    S    
O11   H15   S    
Cu1   N1    S    
C8    C9    S    
S1    O10   D    
C12   C17   A    
S2    O12   D    
C1    C15   S    
C40   H22   S    
C19   C27   A    
C9    C10   T    
C20   H5    S    
C16   C37   S    
C14   H2    S    
C46   H38   S    
C22   H7    S    
C7    C30   S    
C34   C38   S    
S10   O42   S    
C41   H24   S    
C1    O2    A    
C20   N1    A    
C42   H27   S    
C42   H26   S    
C35   O22   S    
Cu1   O5    S    
C44   H33   S    
Cu2   O2    S    
C31   O7    A    
O36   H42   S    
C35   C38   S    
O39   H43   S    
C4    C6    A    
C3    C8    A    
C2    H14   S    
S5    O27   S    
Cu1   Cu2   S    
C5    C7    A    
C39   H19   S    
S8    O34   D    
C41   C42   S    
Cu2   N2    S    
C33   H10   S    
C39   C40   S    
C33   C37   S    
C36   O23   S    
C34   O21   S    
C32   C34   S    
C41   H25   S    
S3    O15   D    
S7    O32   D    
C1    O1    A    
S9    O38   D    
C2    C38   S    
O20   H18   S    
C14   C15   A    
S1    O11   S    
Cu1   O3    S    
C5    S7    S    
S2    O14   S    
C4    S6    S    
C32   C37   S    
C40   H23   S    
C43   H30   S    
S3    O16   D    
C45   C46   S    
C6    C7    A    
C33   S2    S    
C6    S8    S    
C12   C14   A    
C13   C15   A    
O30   H40   S    
S10   O41   D    
S6    O29   D    
S7    O31   D    
C35   H12   S    
C42   H28   S    
C19   H4    S    
S4    O20   S    
C46   H36   S    
C44   H31   S    
C2    C36   S    
C11   C17   A    
C23   H8    S    
O17   H17   S    
C31   O8    A    
S4    O18   D    
C3    C5    A    
C2    H13   S    
C21   N2    A    
C24   S3    S    
C22   N1    A    
C25   C27   A    
Cu1   O7    S    
S9    O37   D    
C26   C28   S    
Cu2   O8    S    
C31   C38   S    
S6    O30   S    
C30   O6    A    
O33   H41   S    
C11   S9    S    
S7    O33   S    
S5    O25   D    
C11   C13   A    
S8    O36   S    
S9    O39   S    
C33   C35   S    
S4    O19   D    
C12   S10   S    
C18   C20   A    
C23   C25   A    
C43   H29   S    
S3    O17   S    
C45   H35   S    
C32   H9    S    
S8    O35   D    
S1    O9    D    
C30   O5    A    
C18   H3    S    
C36   O24   S    
S6    O28   D    
S10   O40   D    
S2    O13   D    
C40   H21   S    
O24   C45   S    
C16   O3    A    
C32   S1    S    
C46   H37   S    
