data_mof_unit_25468.cif
_audit_creation_date              2012-12-10T16:48:09-0500
_audit_creation_method            fapswitch 2.2
_symmetry_space_group_name_H-M    P1
_symmetry_Int_Tables_number       1
_space_group_crystal_system       triclinic
_cell_length_a                    15.864935
_cell_length_b                    8.73556
_cell_length_c                    7.4674
_cell_angle_alpha                 102.569951
_cell_angle_beta                  94.118535
_cell_angle_gamma                 92.303674
_cell_volume                      1005.82831777

loop_
_atom_site_label
_atom_site_type_symbol
_atom_type_description
_atom_site_fract_x
_atom_site_fract_y
_atom_site_fract_z
_atom_type_partial_charge
C1    C     C_R   0.496235 0.200513 0.454842 0.861485
C2    C     C_R   0.503765 0.799487 0.545158 0.861485
C3    C     C_R   0.340160 0.499773 0.502396 0.820378
C4    C     C_R   0.659840 0.500227 0.497604 0.820378
C5    C     C_2   0.482949 0.035032 0.435104 0.095273
C6    C     C_2   0.517051 0.964968 0.564895 0.095273
C7    C     C_3   0.970920 0.390352 0.580305 0.186290
C8    C     C_3   0.029080 0.609648 0.419696 0.186289
C9    C     C_3   0.022394 0.355811 0.409100 -0.253826
C10   C     C_3   0.977606 0.644189 0.590901 -0.253827
C11   C     C_1   0.250909 0.499588 0.507281 -0.120110
C12   C     C_1   0.749090 0.500412 0.492719 -0.120110
C13   C     C_3   0.032393 0.529251 0.672818 0.130107
C14   C     C_3   0.967607 0.470749 0.327182 0.130107
C15   C     C_3   0.083971 0.498127 0.503948 0.076484
C16   C     C_3   0.916029 0.501873 0.496052 0.076484
C17   C     C_1   0.175522 0.498997 0.507608 -0.001410
C18   C     C_1   0.824478 0.501003 0.492392 -0.001409
Cu1   Cu    Cu3+1 0.509330 0.517380 0.684380 1.050877
Cu2   Cu    Cu3+1 0.490670 0.482620 0.315620 1.050877
H1    H     H_    0.040100 0.238497 0.335295 0.165039
H2    H     H_    0.959900 0.761504 0.664705 0.165039
H3    H     H_    0.434834 0.377544 0.949098 0.241510
H4    H     H_    0.565166 0.622456 0.050902 0.241510
N1    N     N_2   0.476600 0.456420 0.038510 -0.180814
N2    N     N_2   0.523400 0.543580 0.961490 -0.180814
O1    O     O_R   0.506070 0.286130 0.619780 -0.566056
O2    O     O_R   0.493930 0.713870 0.380220 -0.566056
O3    O     O_R   0.490300 0.256770 0.308360 -0.537127
O4    O     O_R   0.509700 0.743230 0.691640 -0.537127
O5    O     O_R   0.386960 0.514660 0.655680 -0.588085
O6    O     O_R   0.613040 0.485340 0.344320 -0.588084
O7    O     O_R   0.371190 0.485310 0.344260 -0.563190
O8    O     O_R   0.628810 0.514690 0.655740 -0.563190
N3    N     N_3   0.937674 0.269158 0.666821 -0.569141
H5    H     H_    0.988620 0.230032 0.737935 0.230007
H6    H     H_    0.897414 0.321931 0.763799 0.233790
N4    N     N_3   0.062326 0.730843 0.333179 -0.569139
H7    H     H_    0.011380 0.769971 0.262070 0.230006
H8    H     H_    0.102585 0.678067 0.236198 0.233790
N5    N     N_3   0.931328 0.440389 0.137769 -0.598337
H9    H     H_    0.978005 0.389053 0.056736 0.225511
H10   H     H_    0.882333 0.353920 0.123446 0.236839
N6    N     N_3   0.068672 0.559612 0.862231 -0.598339
H11   H     H_    0.021996 0.610955 0.943262 0.225508
H12   H     H_    0.117669 0.646077 0.876552 0.236838
Cl1   Cl    Cl    0.409962 0.939764 0.248386 -0.575492
Cl2   Cl    Cl    0.590038 0.060236 0.751614 -0.575492

loop_
_geom_bond_atom_site_label_1
_geom_bond_atom_site_label_2
_ccdc_geom_bond_type
C3    O5    A    
C9    C14   S    
C4    C12   S    
Cu1   O1    S    
N5    H9    S    
N3    H5    S    
C2    O4    A    
Cu1   O5    S    
Cu1   Cu2   S    
C1    O3    A    
C9    C15   S    
C10   C16   S    
C10   H2    S    
N4    H8    S    
N5    H10   S    
C9    H1    S    
C4    O6    A    
C8    N4    S    
C8    C14   S    
C14   N5    S    
C1    C5    S    
Cu2   O7    S    
C16   C18   S    
C7    C16   S    
C5    Cl1   S    
N6    H12   S    
C8    C15   S    
C4    O8    A    
Cu2   O3    S    
C13   C15   S    
C13   N6    S    
C5    C6    D    
C14   C16   S    
C3    C11   S    
Cu2   N1    S    
C3    O7    A    
C7    C9    S    
C7    C13   S    
H3    N1    S    
N4    H7    S    
N6    H11   S    
C1    O1    A    
Cu2   O6    S    
C12   C18   T    
C15   C17   S    
Cu1   N2    S    
C11   C17   T    
C2    O2    A    
Cu2   O2    S    
N3    H6    S    
N1    N2    D    
Cu1   O4    S    
C7    N3    S    
Cu1   O8    S    
C8    C10   S    
C2    C6    S    
H4    N2    S    
C10   C13   S    
C6    Cl2   S    
