data_mof_unit_9797.cif
_audit_creation_date              2012-12-10T17:41:01-0500
_audit_creation_method            fapswitch 2.2
_symmetry_space_group_name_H-M    P1
_symmetry_Int_Tables_number       1
_space_group_crystal_system       triclinic
_cell_length_a                    14.896695
_cell_length_b                    15.384317
_cell_length_c                    9.856424
_cell_angle_alpha                 90.186283
_cell_angle_beta                  90.938178
_cell_angle_gamma                 90.00026
_cell_volume                      2258.53592999

loop_
_atom_site_label
_atom_site_type_symbol
_atom_type_description
_atom_site_fract_x
_atom_site_fract_y
_atom_site_fract_z
_atom_type_partial_charge
C1    C     C_R   0.386578 0.874398 0.499776 0.858457
C2    C     C_R   0.708390 0.227008 0.384003 -0.211355
C3    C     C_R   0.209669 0.274045 0.382310 -0.226393
C4    C     C_R   0.208364 0.727031 0.383990 -0.211412
C5    C     C_R   0.677160 0.803838 0.506121 -0.124854
C6    C     C_R   0.679913 0.194068 0.508003 -0.127902
C7    C     C_R   0.177173 0.303848 0.506125 -0.124853
C8    C     C_R   0.179858 0.694113 0.507988 -0.127906
C9    C     C_R   0.336153 0.998000 0.137054 -0.163434
C10   C     C_R   0.836153 0.498010 0.137054 -0.163412
C11   C     C_R   0.255175 0.997146 0.064921 -0.220542
C12   C     C_R   0.386206 0.125501 0.500281 0.857859
C13   C     C_R   0.755175 0.497160 0.064921 -0.220567
C14   C     C_R   0.254948 0.997593 0.924582 -0.183222
C15   C     C_R   0.754948 0.497608 0.924583 -0.183230
C16   C     C_R   0.335680 0.998719 0.855779 -0.105253
C17   C     C_R   0.835680 0.498728 0.855779 -0.105225
C18   C     C_R   0.419107 0.998947 0.925726 0.137917
C19   C     C_R   0.919107 0.498954 0.925726 0.137888
C20   C     C_R   0.419217 0.998761 0.070479 0.061317
C21   C     C_R   0.919217 0.498769 0.070479 0.061357
C22   C     C_R   0.578575 0.001527 0.075532 0.523978
C23   C     C_R   0.886587 0.374393 0.499773 0.858471
C24   C     C_R   0.078576 0.501504 0.075534 0.523959
C25   C     C_R   0.616085 0.124051 0.501957 0.885533
C26   C     C_R   0.614995 0.875202 0.501371 0.880660
C27   C     C_R   0.116065 0.624065 0.501953 0.885518
C28   C     C_R   0.114999 0.375205 0.501372 0.880673
C29   C     C_R   0.577533 0.001578 0.929593 -0.313020
C30   C     C_R   0.077533 0.501559 0.929593 -0.313021
C31   C     C_R   0.352792 0.232648 0.747509 -0.153632
C32   C     C_R   0.363398 0.761314 0.740544 -0.177448
C33   C     C_R   0.852766 0.732633 0.747519 -0.153631
C34   C     C_R   0.886203 0.625500 0.500281 0.857823
C35   C     C_R   0.863524 0.261249 0.740466 -0.177576
C36   C     C_R   0.314849 0.249897 0.874476 0.234385
C37   C     C_R   0.331122 0.738643 0.868263 0.242718
C38   C     C_R   0.814812 0.749870 0.874481 0.234427
C39   C     C_R   0.831294 0.238575 0.868205 0.242801
C40   C     C_R   0.723450 0.770114 0.878632 -0.254837
C41   C     C_R   0.741167 0.215279 0.879505 -0.222278
C42   C     C_R   0.223490 0.270151 0.878640 -0.254785
C43   C     C_R   0.240979 0.715387 0.879504 -0.222350
C44   C     C_R   0.674662 0.784240 0.758879 -0.195744
C45   C     C_R   0.281407 0.218752 0.380934 -0.229354
C46   C     C_R   0.687634 0.205107 0.763162 -0.209067
C47   C     C_R   0.174692 0.284266 0.758892 -0.195750
C48   C     C_R   0.187480 0.705229 0.763128 -0.208954
C49   C     C_R   0.715745 0.775303 0.630970 0.107747
C50   C     C_R   0.723124 0.218857 0.632151 0.106428
C51   C     C_R   0.215764 0.275319 0.630975 0.107702
C52   C     C_R   0.223024 0.718941 0.632145 0.106405
C53   C     C_R   0.299792 0.235811 0.626834 0.044480
C54   C     C_R   0.306232 0.759915 0.624131 0.057071
C55   C     C_R   0.799774 0.735798 0.626836 0.044468
C56   C     C_R   0.279581 0.782863 0.381075 -0.232849
C57   C     C_R   0.806322 0.259851 0.624097 0.057113
C58   C     C_R   0.325935 0.198239 0.502226 -0.104488
C59   C     C_R   0.327508 0.800963 0.500560 -0.104023
C60   C     C_R   0.825926 0.698233 0.502228 -0.104481
C61   C     C_R   0.827548 0.300936 0.500541 -0.104026
C62   C     C_3   0.366334 0.241501 0.007716 -0.416019
C63   C     C_3   0.468621 0.239741 0.996950 -0.898556
C64   C     C_3   0.391502 0.743788 0.992364 -0.415776
C65   C     C_3   0.464122 0.673837 0.989589 -0.890905
C66   C     C_3   0.866287 0.741471 0.007728 -0.416017
C67   C     C_R   0.781399 0.718745 0.380934 -0.229314
C68   C     C_3   0.968576 0.739727 0.996982 -0.898627
C69   C     C_3   0.891702 0.243790 0.992266 -0.415826
C70   C     C_3   0.964261 0.173783 0.989623 -0.891076
C71   C     C_3   0.736769 0.991465 0.085916 0.042599
C72   C     C_3   0.814101 0.986067 0.188179 -0.803314
C73   C     C_3   0.236787 0.491557 0.085875 0.042502
C74   C     C_3   0.314140 0.486184 0.188106 -0.803136
C75   C     C_R   0.779601 0.282846 0.381073 -0.232836
C76   C     C_R   0.709658 0.774035 0.382306 -0.226492
H1    H     H_    0.301071 0.191209 0.284880 0.166321
H2    H     H_    0.138698 0.503672 0.872445 0.165614
H3    H     H_    0.423255 0.216983 0.742260 0.164367
H4    H     H_    0.433182 0.779922 0.733179 0.151360
H5    H     H_    0.923230 0.716974 0.742280 0.164348
H6    H     H_    0.933298 0.279883 0.733052 0.151310
H7    H     H_    0.690327 0.777509 0.975067 0.138220
H8    H     H_    0.712481 0.203248 0.977986 0.140974
H9    H     H_    0.190377 0.277560 0.975081 0.138267
H10   H     H_    0.212257 0.703368 0.977965 0.140913
H11   H     H_    0.604153 0.798871 0.768550 0.168319
H12   H     H_    0.295845 0.813063 0.285436 0.166812
H13   H     H_    0.617848 0.190253 0.778977 0.175348
H14   H     H_    0.104184 0.298897 0.768578 0.168384
H15   H     H_    0.117680 0.690392 0.778877 0.175276
H16   H     H_    0.679502 0.792984 0.286019 0.174887
H17   H     H_    0.674946 0.210630 0.288799 0.177451
H18   H     H_    0.179510 0.292992 0.286023 0.174908
H19   H     H_    0.174946 0.710629 0.288775 0.177409
H20   H     H_    0.330804 0.998910 0.244489 0.213532
H21   H     H_    0.830804 0.498913 0.244490 0.213526
H22   H     H_    0.192260 0.996715 0.118389 0.152199
H23   H     H_    0.801067 0.691204 0.284881 0.166327
H24   H     H_    0.692260 0.496731 0.118389 0.152190
H25   H     H_    0.490869 0.179414 0.945662 0.256098
H26   H     H_    0.492692 0.297514 0.940856 0.255368
H27   H     H_    0.499326 0.240634 0.100399 0.257417
H28   H     H_    0.348634 0.297273 0.074116 0.204539
H29   H     H_    0.344141 0.181155 0.058347 0.219967
H30   H     H_    0.432974 0.608295 0.983454 0.264136
H31   H     H_    0.508572 0.683084 0.901451 0.252841
H32   H     H_    0.505776 0.677863 0.083891 0.253101
H33   H     H_    0.423467 0.808967 0.997937 0.208494
H34   H     H_    0.795836 0.313067 0.285438 0.166809
H35   H     H_    0.352068 0.735134 0.086069 0.205337
H36   H     H_    0.990838 0.679407 0.945692 0.256095
H37   H     H_    0.992641 0.797508 0.940901 0.255376
H38   H     H_    0.999273 0.740620 0.100437 0.257419
H39   H     H_    0.848572 0.797234 0.074136 0.204537
H40   H     H_    0.844099 0.681118 0.058343 0.219982
H41   H     H_    0.933049 0.108267 0.984036 0.264188
H42   H     H_    0.008544 0.182757 0.901245 0.252962
H43   H     H_    0.006092 0.178010 0.083718 0.253099
H44   H     H_    0.923721 0.308943 0.997669 0.208480
H45   H     H_    0.191838 0.997472 0.868495 0.149147
H46   H     H_    0.852286 0.235267 0.086007 0.205387
H47   H     H_    0.750743 0.046368 0.016384 0.151481
H48   H     H_    0.733872 0.929037 0.028961 0.140130
H49   H     H_    0.802428 0.932133 0.260431 0.259974
H50   H     H_    0.877871 0.973832 0.134510 0.202786
H51   H     H_    0.820014 0.048157 0.245556 0.262895
H52   H     H_    0.250663 0.546547 0.016455 0.151490
H53   H     H_    0.233985 0.429172 0.028791 0.140172
H54   H     H_    0.302574 0.432144 0.260219 0.259883
H55   H     H_    0.377933 0.474121 0.134386 0.202790
H56   H     H_    0.691838 0.497489 0.868496 0.149141
H57   H     H_    0.319941 0.548225 0.245646 0.262907
H58   H     H_    0.329529 0.999911 0.748237 0.207994
H59   H     H_    0.829529 0.499914 0.748237 0.207993
H60   H     H_    0.638699 0.003715 0.872450 0.165611
N1    N     N_R   0.498810 1.000000 0.142780 -0.150083
N2    N     N_R   0.998810 0.500000 0.142780 -0.150087
N3    N     N_R   0.498740 0.000000 0.857170 -0.139342
N4    N     N_R   0.998740 0.500000 0.857170 -0.139348
O1    O     O_R   0.408390 0.908380 0.614690 -0.648969
O2    O     O_R   0.591620 0.908390 0.614640 -0.629995
O3    O     O_R   0.091620 0.591610 0.614640 -0.634647
O4    O     O_R   0.091620 0.408390 0.614640 -0.630027
O5    O     O_R   0.591610 0.091610 0.385310 -0.563816
O6    O     O_R   0.591610 0.908390 0.385310 -0.572745
O7    O     O_R   0.091610 0.591610 0.385310 -0.563872
O8    O     O_R   0.091610 0.408390 0.385310 -0.572666
O9    O     O_3   0.656380 0.006208 0.156091 -0.569749
O10   O     O_3   0.156381 0.506111 0.156108 -0.569721
O11   O     O_R   0.408390 0.091620 0.614690 -0.648726
O12   O     O_R   0.908390 0.408380 0.614690 -0.648948
O13   O     O_R   0.908390 0.591620 0.614690 -0.648738
O14   O     O_R   0.408370 0.908380 0.385360 -0.645558
O15   O     O_R   0.408370 0.091620 0.385360 -0.642681
O16   O     O_R   0.908370 0.408380 0.385360 -0.645566
O17   O     O_R   0.908370 0.591620 0.385360 -0.642689
O18   O     O_R   0.591620 0.091610 0.614640 -0.634702
Zn1   Zn    Zn3+2 0.500010 1.000000 0.653130 0.910746
Zn2   Zn    Zn3+2 0.000010 0.500000 0.653130 0.910749
Zn3   Zn    Zn3+2 0.499980 0.000000 0.346870 0.971697
Zn4   Zn    Zn3+2 0.999980 0.500000 0.346870 0.971700

loop_
_geom_bond_atom_site_label_1
_geom_bond_atom_site_label_2
_ccdc_geom_bond_type
C44   C49   A    
C33   C55   A    
C66   C68   S    
C23   O12   A    
O12   Zn2   S    
C22   C29   A    
C73   O10   S    
C73   C74   S    
O14   Zn3   S    
C36   C42   A    
C40   H7    S    
O2    Zn1   S    
C4    C8    A    
C16   H58   S    
O3    Zn2   S    
C39   C41   A    
C46   H13   S    
C61   C75   A    
C22   N1    A    
C55   C60   A    
C66   H40   S    
C11   H22   S    
C71   H47   S    
C19   C21   A    
C3    C7    A    
C69   C70   S    
C1    C59   S    
C11   C14   A    
C56   H12   S    
C6    C25   S    
C70   H41   S    
C74   H57   S    
C68   H36   S    
C26   O6    A    
O1    Zn1   S    
C15   H56   S    
C38   C66   S    
C60   C67   A    
C19   N4    A    
C48   H15   S    
C17   H59   S    
C27   O3    A    
C41   C46   A    
C28   O4    A    
O4    Zn2   S    
C44   H11   S    
C43   C48   A    
C8    C52   A    
C65   H32   S    
C63   H25   S    
C68   H37   S    
C12   C58   S    
C22   O9    S    
O16   Zn4   S    
C14   H45   S    
C23   O16   A    
C4    C56   A    
C34   C60   S    
C43   H10   S    
C12   O11   A    
C5    C49   A    
C2    C6    A    
C21   N2    A    
C63   H26   S    
C36   C62   S    
C32   C54   A    
C35   H6    S    
C52   C54   A    
C62   H28   S    
C54   C59   A    
C10   C21   A    
C29   N3    A    
O6    Zn3   S    
C73   H53   S    
C45   C58   A    
C28   O8    A    
C30   N4    A    
C66   H39   S    
C72   H51   S    
C71   H48   S    
C63   H27   S    
C62   H29   S    
O5    Zn3   S    
C64   H35   S    
C47   C51   A    
C18   N3    A    
C24   N2    A    
C49   C55   A    
C41   H8    S    
C10   C13   A    
O15   Zn3   S    
C7    C28   S    
C72   H50   S    
C51   C53   A    
O11   Zn1   S    
C20   N1    A    
C37   C43   A    
C10   H21   S    
C35   C39   A    
C62   C63   S    
C32   H4    S    
C4    H19   S    
C9    C20   A    
C5    C76   A    
C48   C52   A    
C70   H43   S    
C39   C69   S    
N2    Zn4   S    
C42   H9    S    
C32   C37   A    
C6    C50   A    
C31   H3    S    
C9    C11   A    
C9    H20   S    
C24   O10   S    
C76   H16   S    
C16   C18   A    
C40   C44   A    
C13   H24   S    
C74   H54   S    
O18   Zn1   S    
C47   H14   S    
C14   C16   A    
C31   C53   A    
C12   O15   A    
C65   H30   S    
C37   C64   S    
C34   O13   A    
C15   C17   A    
C75   H34   S    
C50   C57   A    
C2    H17   S    
O7    Zn4   S    
C25   O5    A    
C53   C58   A    
C57   C61   A    
C67   H23   S    
C73   H52   S    
C46   C50   A    
C69   H44   S    
C33   C38   A    
C56   C59   A    
C72   H49   S    
C35   C57   A    
O8    Zn4   S    
C64   C65   S    
O13   Zn2   S    
C13   C15   A    
C7    C51   A    
C71   C72   S    
C26   O2    A    
N4    Zn2   S    
N1    Zn3   S    
C64   H33   S    
C71   O9    S    
C38   C40   A    
C69   H46   S    
C70   H42   S    
C17   C19   A    
C3    C45   A    
C3    H18   S    
C18   C20   A    
C42   C47   A    
C1    O14   A    
C24   C30   A    
C1    O1    A    
N3    Zn1   S    
C5    C26   S    
C30   H2    S    
C34   O17   A    
C23   C61   S    
C29   H60   S    
C27   O7    A    
C25   O18   A    
C8    C27   S    
C31   C36   A    
C45   H1    S    
C67   C76   A    
C74   H55   S    
C33   H5    S    
O17   Zn4   S    
C65   H31   S    
C2    C75   A    
C68   H38   S    
