data_mof_unit_16878.cif
_audit_creation_date              2012-12-10T16:59:16-0500
_audit_creation_method            fapswitch 2.2
_symmetry_space_group_name_H-M    P1
_symmetry_Int_Tables_number       1
_space_group_crystal_system       triclinic
_cell_length_a                    7.76039
_cell_length_b                    8.578115
_cell_length_c                    27.691447
_cell_angle_alpha                 91.928921
_cell_angle_beta                  87.440019
_cell_angle_gamma                 93.028444
_cell_volume                      1838.08933104

loop_
_atom_site_label
_atom_site_type_symbol
_atom_type_description
_atom_site_fract_x
_atom_site_fract_y
_atom_site_fract_z
_atom_type_partial_charge
C1    C     C_R   0.545236 0.794537 0.498805 0.941230
C2    C     C_R   0.454764 0.205463 0.501195 0.941237
C3    C     C_R   0.512411 0.514249 0.898170 -0.137017
C4    C     C_R   0.487522 0.485775 0.101828 -0.137016
C5    C     C_R   0.551640 0.658032 0.875912 -0.016278
C6    C     C_R   0.448304 0.341990 0.124085 -0.016267
C7    C     C_R   0.569194 0.794517 0.904387 -0.049401
C8    C     C_R   0.430732 0.205509 0.095610 -0.049411
C9    C     C_R   0.477123 0.379223 0.869276 -0.201202
C10   C     C_R   0.522820 0.620798 0.130720 -0.201202
C11   C     C_R   0.518692 0.507675 0.646448 -0.190678
C12   C     C_R   0.481307 0.492333 0.353551 -0.190692
C13   C     C_R   0.547984 0.636281 0.028678 -0.092874
C14   C     C_R   0.451930 0.363748 0.971319 -0.092867
C15   C     C_R   0.457899 0.355874 0.022272 0.124526
C16   C     C_R   0.542012 0.644154 0.977726 0.124523
C17   C     C_R   0.495291 0.493452 0.050729 0.066271
C18   C     C_R   0.504628 0.506575 0.949268 0.066271
C19   C     C_R   0.612307 0.762386 0.058854 0.007123
C20   C     C_R   0.387612 0.237641 0.941143 0.007121
C21   C     C_R   0.585865 0.758225 0.108864 0.663641
C22   C     C_R   0.414071 0.241798 0.891132 0.663634
C23   C     C_R   0.504947 0.499093 0.593897 0.904268
C24   C     C_R   0.495053 0.500909 0.406102 0.904266
C25   C     C_R   0.557086 0.787731 0.954321 -0.153206
C26   C     C_R   0.442821 0.212297 0.045677 -0.153206
C27   C     C_2   0.569430 0.957555 0.498095 -0.331004
C28   C     C_2   0.430570 0.042445 0.501906 -0.331009
C29   C     C_R   0.562615 0.662892 0.825430 0.637302
C30   C     C_R   0.437356 0.337127 0.174568 0.637280
C31   C     C_R   0.491982 0.389157 0.818824 0.611271
C32   C     C_R   0.507975 0.610862 0.181171 0.611307
C33   C     C_R   0.666237 0.461321 0.719505 -0.187348
C34   C     C_R   0.333719 0.538653 0.280493 -0.187341
C35   C     C_R   0.657978 0.445178 0.669516 0.183996
C36   C     C_R   0.341978 0.554788 0.330484 0.184007
C37   C     C_R   0.391427 0.584670 0.674328 -0.299140
C38   C     C_R   0.608613 0.415387 0.325669 -0.299115
C39   C     C_R   0.400302 0.598145 0.724247 0.729047
C40   C     C_R   0.599730 0.401915 0.275747 0.729015
C41   C     C_R   0.537329 0.535665 0.746843 0.100470
C42   C     C_R   0.462659 0.464353 0.253153 0.100483
H1    H     H_    0.284269 0.634145 0.657506 0.222386
H2    H     H_    0.715812 0.365947 0.342489 0.222398
H3    H     H_    0.587554 0.907776 0.888251 0.222000
H4    H     H_    0.412374 0.092249 0.111747 0.221994
H5    H     H_    0.230448 0.589678 0.262368 0.204098
H6    H     H_    0.769476 0.410266 0.737630 0.204101
H7    H     H_    0.551471 0.897301 0.974076 0.165805
H8    H     H_    0.448424 0.102727 0.025922 0.165806
H9    H     H_    0.701106 0.007259 0.494444 0.210035
H10   H     H_    0.298894 0.992741 0.505557 0.210034
N1    N     N_R   0.533915 0.529297 0.798238 -0.352444
N2    N     N_R   0.466058 0.470722 0.201758 -0.352442
N3    N     N_2   0.950320 0.457960 0.486880 0.263463
N4    N     N_2   0.049680 0.542040 0.513120 0.263462
O1    O     O_R   0.389250 0.738570 0.503220 -0.613486
O2    O     O_R   0.610750 0.261430 0.496780 -0.613482
O3    O     O_R   0.678390 0.711630 0.494810 -0.580255
O4    O     O_R   0.321610 0.288370 0.505190 -0.580256
O5    O     O_R   0.355440 0.513440 0.575450 -0.605981
O6    O     O_R   0.644560 0.486560 0.424550 -0.605983
O7    O     O_R   0.644590 0.486500 0.567040 -0.568756
O8    O     O_R   0.355410 0.513500 0.432960 -0.568759
O9    O     O_2   0.601290 0.799471 0.803610 -0.458222
O10   O     O_2   0.398707 0.200544 0.196389 -0.458231
O11   O     O_2   0.538010 0.739203 0.209747 -0.423515
O12   O     O_2   0.461949 0.260813 0.790248 -0.423503
Zn1   Zn    Zn3+2 0.306940 0.517990 0.505620 1.143851
Zn2   Zn    Zn3+2 0.693060 0.482010 0.494380 1.143852
F1    F     F_    0.029688 0.362201 0.455146 -0.551872
F2    F     F_    0.970313 0.637800 0.544853 -0.551871
F3    F     F_    0.272401 0.666821 0.750846 -0.606265
F4    F     F_    0.727671 0.333294 0.249144 -0.606279
I1    I     I_    0.145783 0.687661 0.365713 -0.179933
I2    I     I_    0.854078 0.312225 0.634288 -0.179939
F5    F     F_    0.639239 0.884686 0.136259 -0.573989
F6    F     F_    0.360708 0.115334 0.863736 -0.573990
I3    I     I_    0.804443 0.937364 0.037581 -0.227927
I4    I     I_    0.195457 0.062676 0.962414 -0.227921

loop_
_geom_bond_atom_site_label_1
_geom_bond_atom_site_label_2
_ccdc_geom_bond_type
N3    N4    D    
C8    C26   A    
C14   C18   A    
C34   C42   A    
C26   H8    S    
C39   C41   A    
C30   N2    A    
C7    H3    S    
C19   C21   A    
C1    O3    A    
C2    O4    A    
C9    C22   A    
O6    Zn2   S    
C3    C18   A    
C11   C37   A    
N4    F2    S    
C12   C36   A    
C23   O7    A    
C24   O8    A    
C32   N2    A    
C27   H9    S    
C5    C29   A    
C10   C21   A    
C31   O12   S    
C35   I2    S    
C13   C19   A    
C14   C20   A    
C22   F6    S    
C4    C6    A    
C5    C7    A    
C20   I4    S    
O2    Zn2   S    
C15   C26   A    
C6    C8    A    
C37   H1    S    
C38   H2    S    
C3    C9    A    
C36   I1    S    
C1    O1    A    
O7    Zn2   S    
O8    Zn1   S    
C31   N1    A    
C19   I3    S    
C41   N1    S    
C30   O10   S    
C32   O11   S    
C29   O9    S    
C4    C17   A    
C6    C30   A    
C20   C22   A    
C4    C10   A    
O5    Zn1   S    
C16   C25   A    
C15   C17   A    
C24   O6    A    
C40   C42   A    
C3    C5    A    
C2    O2    A    
C12   C24   S    
C7    C25   A    
C13   C17   A    
C33   C41   A    
C11   C35   A    
C37   C39   A    
C42   N2    S    
C38   C40   A    
C28   H10   S    
C29   N1    A    
O4    Zn1   S    
C11   C23   S    
C33   C35   A    
C40   F4    S    
C34   C36   A    
C39   F3    S    
C12   C38   A    
C25   H7    S    
N3    Zn2   S    
C9    C31   A    
O3    Zn2   S    
C10   C32   A    
C23   O5    A    
C16   C18   A    
N4    Zn1   S    
C13   C16   A    
C21   F5    S    
C27   C28   D    
C1    C27   S    
C33   H6    S    
C14   C15   A    
C2    C28   S    
C34   H5    S    
C8    H4    S    
O1    Zn1   S    
N3    F1    S    
