data_mof_unit_53265.cif
_audit_creation_date              2012-12-10T18:37:07-0500
_audit_creation_method            fapswitch 2.2
_symmetry_space_group_name_H-M    P1
_symmetry_Int_Tables_number       1
_space_group_crystal_system       triclinic
_cell_length_a                    14.945388
_cell_length_b                    15.404972
_cell_length_c                    23.439021
_cell_angle_alpha                 91.040674
_cell_angle_beta                  104.507376
_cell_angle_gamma                 81.649261
_cell_volume                      5168.05306215

loop_
_atom_site_label
_atom_site_type_symbol
_atom_type_description
_atom_site_fract_x
_atom_site_fract_y
_atom_site_fract_z
_atom_type_partial_charge
C1    C     C_R   0.441178 0.662137 0.489293 0.877874
C2    C     C_R   0.477655 0.434425 0.291057 -0.112423
C3    C     C_R   0.583123 0.528263 0.774189 -0.078610
C4    C     C_R   0.480201 0.439048 0.232390 -0.079255
C5    C     C_R   0.506553 0.508401 0.792960 0.278707
C6    C     C_R   0.503355 0.514384 0.210417 0.271186
C7    C     C_R   0.403025 0.754158 0.475314 -0.075026
C8    C     C_R   0.591922 0.244310 0.501747 -0.058620
C9    C     C_R   0.280419 0.877089 0.468642 -0.090521
C10   C     C_R   0.701030 0.128546 0.475045 -0.103692
C11   C     C_R   0.312174 0.787793 0.478186 -0.192169
C12   C     C_R   0.558446 0.337368 0.507602 0.882721
C13   C     C_R   0.679833 0.215125 0.491774 -0.205963
C14   C     C_R   0.458820 0.808610 0.458365 -0.136617
C15   C     C_R   0.527217 0.186201 0.496316 -0.153608
C16   C     C_R   0.501173 0.499965 0.610738 0.893284
C17   C     C_R   0.499059 0.500305 0.389610 0.876683
C18   C     C_R   0.432340 0.899719 0.454266 0.055698
C19   C     C_R   0.543077 0.102564 0.473681 0.044771
C20   C     C_R   0.341074 0.933923 0.459338 -0.000371
C21   C     C_R   0.632954 0.071933 0.465566 -0.003816
C22   C     C_R   0.497036 0.957721 0.451520 -0.017990
C23   C     C_R   0.428605 0.484761 0.752111 -0.077530
C24   C     C_R   0.472443 0.047895 0.461325 -0.032662
C25   C     C_R   0.378046 0.080688 0.458762 -0.255694
C26   C     C_R   0.586866 0.928723 0.442580 -0.193333
C27   C     C_R   0.313110 0.024427 0.457347 0.633630
C28   C     C_R   0.653018 0.985494 0.448345 0.629871
C29   C     C_R   0.849525 0.645590 0.575984 0.260180
C30   C     C_R   0.137457 0.387009 0.402649 0.254756
C31   C     C_R   0.756044 0.628327 0.564077 0.409346
C32   C     C_R   0.231293 0.402892 0.415381 0.422493
C33   C     C_R   0.798850 0.494214 0.517894 -0.135993
C34   C     C_R   0.523189 0.585455 0.247042 -0.054829
C35   C     C_R   0.214919 0.470564 0.505457 -0.150262
C36   C     C_R   0.895097 0.504734 0.536134 -0.042936
C37   C     C_R   0.124862 0.444290 0.497475 -0.042365
C38   C     C_R   0.919081 0.577222 0.570956 -0.054201
C39   C     C_R   0.092129 0.393972 0.448008 -0.052078
C40   C     C_R   0.577743 0.463521 0.133655 0.558848
C41   C     C_R   0.444155 0.572132 0.872047 0.554902
C42   C     C_R   0.967668 0.452319 0.516181 0.130498
C43   C     C_R   0.061047 0.474201 0.532227 0.130836
C44   C     C_R   0.083622 0.532079 0.578549 -0.224763
C45   C     C_R   0.426796 0.481740 0.692569 -0.210753
C46   C     C_R   0.948758 0.384878 0.476135 -0.219168
C47   C     C_R   0.013247 0.582820 0.597667 -0.047184
C48   C     C_R   0.010546 0.356081 0.442551 -0.033769
C49   C     C_R   0.442612 0.572834 0.111922 0.553183
C50   C     C_R   0.572725 0.455946 0.892678 0.550329
C51   C     C_R   0.442828 0.573922 0.052509 -0.053034
C52   C     C_R   0.576123 0.458692 0.952651 -0.075623
C53   C     C_R   0.511297 0.517151 0.032994 -0.051324
C54   C     C_R   0.509040 0.516824 0.972416 -0.048972
C55   C     C_R   0.581389 0.460727 0.073887 -0.155576
C56   C     C_R   0.520175 0.580985 0.305667 -0.205130
C57   C     C_R   0.439575 0.573817 0.931616 -0.132832
C58   C     C_R   0.374010 0.629195 0.012529 -0.224336
C59   C     C_R   0.645314 0.403781 0.992609 -0.189851
C60   C     C_R   0.369854 0.629418 0.952459 0.387735
C61   C     C_R   0.650240 0.404103 0.052789 0.433489
C62   C     C_R   0.503469 0.501678 0.673478 -0.056735
C63   C     C_R   0.496794 0.505653 0.327615 -0.028709
C64   C     C_R   0.581976 0.524306 0.714797 -0.159586
F1    F     F_    0.224304 0.058797 0.457879 -0.639843
F2    F     F_    0.737993 0.954630 0.439074 -0.626605
H1    H     H_    0.321753 0.672062 0.028343 0.233708
H2    H     H_    0.775833 0.439121 0.492414 0.161574
H3    H     H_    0.154126 0.543928 0.597907 0.144674
H4    H     H_    0.884135 0.357800 0.466755 0.141164
H5    H     H_    0.369438 0.468967 0.766618 0.159250
H6    H     H_    0.541770 0.643474 0.230160 0.160307
H7    H     H_    0.365508 0.463892 0.661645 0.163146
H8    H     H_    0.536304 0.635960 0.333988 0.152296
H9    H     H_    0.642279 0.539475 0.701360 0.205484
H10   H     H_    0.463407 0.374631 0.308065 0.188463
H11   H     H_    0.643409 0.546807 0.805710 0.166828
H12   H     H_    0.696709 0.360125 0.976554 0.251287
H13   H     H_    0.465618 0.383764 0.204126 0.163211
H14   H     H_    0.463308 0.208311 0.509131 0.161881
H15   H     H_    0.525019 0.778349 0.451989 0.169104
H16   H     H_    0.730878 0.259477 0.495348 0.158121
H17   H     H_    0.266676 0.745575 0.489144 0.179353
H18   H     H_    0.422246 0.265568 0.369382 0.361228
H19   H     H_    0.553904 0.720533 0.626549 0.374439
H20   H     H_    0.816435 0.889112 0.567583 0.397572
H21   H     H_    0.070456 0.409708 0.239829 0.403193
H22   H     H_    0.163526 0.691897 0.951959 0.365652
H23   H     H_    0.210419 0.902116 0.472091 0.213488
H24   H     H_    0.862220 0.240510 0.085606 0.405973
H25   H     H_    0.769694 0.106744 0.468133 0.206188
H26   H     H_    0.352598 0.150084 0.457672 0.192031
H27   H     H_    0.607744 0.862671 0.430114 0.182807
H28   H     H_    0.033016 0.630678 0.631111 0.211894
H29   H     H_    0.990868 0.307915 0.409303 0.210495
H30   H     H_    0.244170 0.508776 0.542496 0.165412
N1    N     N_R   0.508543 0.517691 0.150558 -0.366180
N2    N     N_R   0.507848 0.512207 0.854103 -0.364814
N3    N     N_R   0.731690 0.552740 0.533440 -0.169028
N4    N     N_R   0.268310 0.447260 0.466560 -0.165498
O1    O     O_R   0.383120 0.605620 0.483150 -0.621324
O2    O     O_2   0.387889 0.630559 0.832101 -0.448789
O3    O     O_2   0.375998 0.625393 0.131064 -0.523282
O4    O     O_2   0.633587 0.397142 0.872740 -0.529864
O5    O     O_2   0.251879 0.284891 0.331022 -0.243942
O6    O     O_2   0.294091 0.429409 0.320457 -0.240320
O7    O     O_3   0.407521 0.315482 0.394357 -0.581909
O8    O     O_2   0.734128 0.745709 0.648338 -0.217549
O9    O     O_2   0.633984 0.777522 0.549907 -0.290316
O10   O     O_3   0.593386 0.667755 0.616876 -0.550691
O11   O     O_2   0.913372 0.770184 0.651525 -0.235045
O12   O     O_R   0.616880 0.394380 0.516850 -0.634563
O13   O     O_2   0.959749 0.762157 0.558557 -0.279454
O14   O     O_3   0.792497 0.833019 0.555976 -0.443550
O15   O     O_2   0.064369 0.282181 0.315029 -0.223832
O16   O     O_2   0.969835 0.422864 0.323582 -0.266794
O17   O     O_3   0.109686 0.424317 0.278515 -0.444421
O18   O     O_2   0.305823 0.770962 0.880765 -0.162417
O19   O     O_2   0.222044 0.644141 0.857718 -0.242340
O20   O     O_3   0.196553 0.740699 0.945461 -0.502241
O21   O     O_2   0.803319 0.383314 0.143521 -0.204243
O22   O     O_2   0.706054 0.265037 0.127370 -0.217252
O23   O     O_R   0.531890 0.639510 0.504600 -0.545803
O24   O     O_3   0.812323 0.278313 0.057047 -0.542676
O25   O     O_R   0.468110 0.360490 0.495400 -0.558244
O26   O     O_R   0.425590 0.483070 0.573110 -0.643798
O27   O     O_R   0.574410 0.516930 0.426890 -0.631436
O28   O     O_R   0.574360 0.516970 0.594570 -0.553761
O29   O     O_R   0.425640 0.483030 0.405430 -0.515740
O30   O     O_2   0.641692 0.413118 0.175175 -0.440938
S1    S     S_3+6 0.296537 0.358436 0.364150 0.080614
S2    S     S_3+6 0.678387 0.705631 0.594606 0.093256
S3    S     S_3+6 0.881003 0.754429 0.586603 0.103587
S4    S     S_3+6 0.067777 0.377565 0.328692 0.111376
S5    S     S_3+6 0.272403 0.697057 0.906738 0.112816
S6    S     S_3+6 0.744308 0.331706 0.097706 0.102106
Zn1   Zn    Zn3+2 0.400660 0.477370 0.485670 1.026434
Zn2   Zn    Zn3+2 0.599340 0.522630 0.514330 1.014979

loop_
_geom_bond_atom_site_label_1
_geom_bond_atom_site_label_2
_ccdc_geom_bond_type
C29   S3    S    
O26   Zn1   S    
C34   C56   A    
C8    C13   A    
C23   C45   A    
C48   H29   S    
C1    O1    A    
C14   C18   A    
C36   C42   A    
C33   C36   A    
C49   C51   A    
O5    S1    D    
C35   H30   S    
C15   C19   A    
O23   Zn2   S    
C35   C37   A    
H21   O17   S    
O16   S4    D    
C58   C60   A    
C45   C62   A    
H18   O7    S    
C41   O2    S    
C45   H7    S    
C42   C46   A    
O28   Zn2   S    
C62   C64   A    
C64   H9    S    
C7    C14   A    
C30   S4    S    
C29   C38   A    
C50   C52   A    
N3    Zn2   S    
O10   S2    S    
O27   Zn2   S    
C31   N3    A    
H22   O20   S    
C44   C47   A    
C26   H27   S    
O13   S3    D    
C16   C62   S    
O17   S4    S    
C59   H12   S    
C52   C54   A    
C7    C11   A    
C50   O4    S    
C53   C55   A    
C10   C21   A    
O6    S1    D    
C46   C48   A    
C59   C61   A    
C56   H8    S    
O24   S6    S    
C17   O29   A    
C6    N1    S    
O12   Zn2   S    
C24   C25   A    
C4    H13   S    
C4    C6    A    
H19   O10   S    
C50   N2    A    
C9    H23   S    
C40   N1    A    
O1    Zn1   S    
C17   O27   A    
C57   C60   A    
C12   O25   A    
O25   Zn1   S    
C3    C64   A    
C13   H16   S    
O19   S5    D    
C6    C34   A    
C33   N3    A    
C37   C43   A    
C28   F2    S    
C43   C44   A    
C1    O23   A    
C31   S2    S    
C27   F1    S    
C52   C59   A    
C23   H5    S    
C16   O28   A    
C9    C20   A    
C15   H14   S    
C5    C23   A    
C8    C12   S    
C40   C55   A    
O9    S2    D    
C56   C63   A    
C44   H3    S    
C51   C58   A    
C9    C11   A    
C60   S5    S    
O22   S6    D    
C38   C47   A    
O7    S1    S    
O15   S4    D    
C21   C28   A    
C10   H25   S    
C8    C15   A    
C22   C24   A    
C42   C43   A    
C35   N4    A    
C3    H11   S    
C34   H6    S    
C12   O12   A    
C2    H10   S    
C2    C63   A    
C40   O30   S    
C25   H26   S    
C19   C21   A    
C1    C7    S    
H24   O24   S    
O11   S3    D    
C3    C5    A    
C10   C13   A    
C49   O3    S    
O8    S2    D    
C53   C54   A    
C20   C27   A    
C25   C27   A    
C26   C28   A    
H20   O14   S    
O20   S5    S    
C11   H17   S    
C18   C22   A    
C19   C24   A    
C41   C57   A    
C37   C39   A    
C17   C63   S    
C30   C32   A    
C2    C4    A    
C55   C61   A    
C36   C38   A    
O14   S3    S    
C30   C39   A    
C18   C20   A    
O21   S6    D    
C46   H4    S    
N4    Zn1   S    
C49   N1    A    
C32   N4    A    
C58   H1    S    
O29   Zn1   S    
C5    N2    S    
C33   H2    S    
C29   C31   A    
C22   C26   A    
C41   N2    A    
C14   H15   S    
C51   C53   A    
C16   O26   A    
C32   S1    S    
C47   H28   S    
O18   S5    D    
C61   S6    S    
C39   C48   A    
C54   C57   A    
