data_mof_unit_67824.cif
_audit_creation_date              2012-12-10T16:55:42-0500
_audit_creation_method            fapswitch 2.2
_symmetry_space_group_name_H-M    P1
_symmetry_Int_Tables_number       1
_space_group_crystal_system       triclinic
_cell_length_a                    7.831626
_cell_length_b                    8.752772
_cell_length_c                    10.513787
_cell_angle_alpha                 92.381071
_cell_angle_beta                  82.789541
_cell_angle_gamma                 94.725095
_cell_volume                      712.219172733

loop_
_atom_site_label
_atom_site_type_symbol
_atom_type_description
_atom_site_fract_x
_atom_site_fract_y
_atom_site_fract_z
_atom_type_partial_charge
C1    C     C_R   0.546210 0.794058 0.493223 0.848752
C2    C     C_3   0.494913 0.523078 0.876987 -0.251330
C3    C     C_3   0.349100 0.454765 0.054372 0.497611
C4    C     C_3   0.653859 0.570857 0.944431 0.489788
C5    C     C_2   0.571090 0.957311 0.491462 0.190379
C6    C     C_2   0.430109 0.041878 0.496928 0.195848
C7    C     C_3   0.242037 0.822018 0.057882 0.098773
C8    C     C_3   0.057487 0.863495 0.087259 -0.858396
C9    C     C_3   0.835675 0.278715 0.912482 0.154641
C10   C     C_3   0.936517 0.143783 0.929299 -0.904183
C11   C     C_3   0.066626 0.471822 0.147391 -0.183435
C12   C     C_R   0.453922 0.205571 0.503297 0.874011
C13   C     C_3   0.797949 0.768559 0.825134 -0.307306
C14   C     C_3   0.834709 0.020713 0.380797 -0.253224
C15   C     C_3   0.154703 0.979325 0.590386 -0.260335
C16   C     C_R   0.499761 0.513604 0.741824 0.908893
C17   C     C_R   0.501654 0.494243 0.257306 0.952977
C18   C     C_3   0.380751 0.606083 0.983313 0.423946
C19   C     C_3   0.623290 0.420259 0.015243 0.438864
C20   C     C_3   0.542240 0.653546 0.052499 -0.539542
C21   C     C_3   0.463156 0.371158 0.948386 -0.435553
C22   C     C_3   0.508855 0.499652 0.121966 -0.223855
H1    H     H_    0.580722 0.765394 0.098790 0.164707
H2    H     H_    0.927689 0.373103 0.872590 0.212264
H3    H     H_    0.743985 0.242337 0.841981 0.150617
H4    H     H_    0.849017 0.060222 0.987068 0.261775
H5    H     H_    0.982531 0.091927 0.834656 0.201059
H6    H     H_    0.049370 0.179308 0.980171 0.305880
H7    H     H_    0.024129 0.515374 0.059968 0.242824
H8    H     H_    0.104145 0.566727 0.213823 0.161028
H9    H     H_    0.954565 0.404447 0.197831 0.217389
H10   H     H_    0.727793 0.850552 0.891390 0.156177
H11   H     H_    0.732480 0.750351 0.738007 0.181028
H12   H     H_    0.429412 0.256651 0.904602 0.166073
H13   H     H_    0.928495 0.821829 0.793593 0.179324
H14   H     H_    0.767759 0.071152 0.306886 0.161603
H15   H     H_    0.867687 0.902759 0.350393 0.179243
H16   H     H_    0.957817 0.091347 0.386538 0.213544
H17   H     H_    0.107974 0.094894 0.611939 0.190614
H18   H     H_    0.213829 0.939727 0.673091 0.148233
H19   H     H_    0.039865 0.900012 0.577929 0.203431
H20   H     H_    0.012968 0.376134 0.409102 0.197788
H21   H     H_    0.986603 0.620844 0.594067 0.204779
H22   H     H_    0.324543 0.924241 0.021362 0.163405
H23   H     H_    0.281309 0.791768 0.151421 0.153332
H24   H     H_    0.977694 0.776767 0.147190 0.234750
H25   H     H_    0.053625 0.976784 0.138523 0.228792
H26   H     H_    0.003576 0.866945 0.996354 0.298228
N1    N     N_2   0.950320 0.457950 0.465730 -0.187872
N2    N     N_2   0.049680 0.542050 0.534270 -0.166772
O1    O     O_R   0.389250 0.738570 0.508410 -0.585190
O2    O     O_3   0.750251 0.322016 0.033493 -0.631443
O3    O     O_3   0.199866 0.374222 0.116017 -0.641009
O4    O     O_3   0.815800 0.629603 0.883965 -0.603014
O5    O     O_3   0.736637 0.022260 0.503046 -0.624052
O6    O     O_3   0.268010 0.976688 0.474886 -0.612616
O7    O     O_R   0.610750 0.261430 0.491590 -0.581891
O8    O     O_R   0.678390 0.711620 0.486450 -0.637344
O9    O     O_R   0.321610 0.288380 0.513550 -0.620857
O10   O     O_R   0.355460 0.513510 0.697030 -0.592651
O11   O     O_R   0.644540 0.486490 0.302970 -0.632390
O12   O     O_R   0.644600 0.486560 0.675070 -0.620320
O13   O     O_R   0.355400 0.513440 0.324930 -0.616994
O14   O     O_3   0.252447 0.702908 0.962177 -0.599467
Zn1   Zn    Zn3+2 0.306940 0.517990 0.514670 0.974370
Zn2   Zn    Zn3+2 0.693060 0.482010 0.485330 0.944298

loop_
_geom_bond_atom_site_label_1
_geom_bond_atom_site_label_2
_ccdc_geom_bond_type
C10   H5    S    
C2    C4    S    
C5    O5    S    
C8    H26   S    
H21   N2    S    
C13   H11   S    
C2    C18   S    
C2    C16   S    
C9    C10   S    
C13   H10   S    
C17   C22   S    
C11   O3    S    
C20   H1    S    
O7    Zn2   S    
C15   H17   S    
C15   O6    S    
C10   H4    S    
C2    C21   S    
O13   Zn1   S    
C14   O5    S    
C8    H25   S    
C11   H9    S    
C7    C8    S    
C9    H2    S    
C3    O3    S    
C7    H22   S    
C17   O13   A    
C14   H15   S    
C14   H14   S    
C1    O1    A    
C18   O14   S    
C16   O10   A    
C9    O2    S    
C16   O12   A    
C1    C5    S    
C12   O7    A    
C7    H23   S    
C15   H19   S    
C19   C21   S    
C20   C22   S    
O10   Zn1   S    
C13   O4    S    
O9    Zn1   S    
C18   C20   S    
C12   O9    A    
C6    C12   S    
C5    C6    D    
C7    O14   S    
N2    Zn1   S    
C8    H24   S    
C15   H18   S    
C3    C21   S    
C14   H16   S    
N1    Zn2   S    
O12   Zn2   S    
H20   N1    S    
C9    H3    S    
C4    C20   S    
C19   C22   S    
O11   Zn2   S    
C11   H7    S    
C3    C18   S    
N1    N2    D    
O1    Zn1   S    
C10   H6    S    
C3    C22   S    
C21   H12   S    
C17   O11   A    
C1    O8    A    
C4    C19   S    
C19   O2    S    
O8    Zn2   S    
C13   H13   S    
C4    O4    S    
C11   H8    S    
C6    O6    S    
