data_mof_unit_64058.cif
_audit_creation_date              2012-12-10T18:55:29-0500
_audit_creation_method            fapswitch 2.2
_symmetry_space_group_name_H-M    P1
_symmetry_Int_Tables_number       1
_space_group_crystal_system       triclinic
_cell_length_a                    30.271498
_cell_length_b                    30.271368
_cell_length_c                    23.530397
_cell_angle_alpha                 90.000023
_cell_angle_beta                  89.999971
_cell_angle_gamma                 90.0
_cell_volume                      21562.3064974

loop_
_atom_site_label
_atom_site_type_symbol
_atom_type_description
_atom_site_fract_x
_atom_site_fract_y
_atom_site_fract_z
_atom_type_partial_charge
C1    C     C_R   0.586270 1.000000 0.500000 0.862364
C2    C     C_R   0.011895 0.842555 0.549349 -0.192774
C3    C     C_R   0.538104 0.842722 0.983678 -0.189704
C4    C     C_R   0.157278 0.538101 0.016337 -0.189705
C5    C     C_R   0.461896 0.842722 0.016322 -0.189704
C6    C     C_R   0.842722 0.461899 0.016337 -0.189704
C7    C     C_R   0.538107 0.157278 0.016310 -0.189703
C8    C     C_R   0.634226 1.000000 0.500000 -0.028445
C9    C     C_R   0.000000 0.634225 0.500000 -0.028431
C10   C     C_R   0.365774 1.000000 0.500000 -0.028444
C11   C     C_R   0.000000 0.365775 0.500000 -0.028429
C12   C     C_R   0.134226 0.500000 0.000000 -0.028444
C13   C     C_R   0.157444 0.988096 0.549346 -0.192774
C14   C     C_R   0.500000 0.134226 1.000000 -0.028440
C15   C     C_R   0.865774 0.500000 1.000000 -0.028445
C16   C     C_R   0.500000 0.865774 0.000000 -0.028434
C17   C     C_R   0.725961 1.000000 0.500000 0.110067
C18   C     C_R   0.000000 0.725961 0.500000 0.110058
C19   C     C_R   0.274039 1.000000 0.500000 0.110069
C20   C     C_R   0.000000 0.274039 0.500000 0.110060
C21   C     C_R   0.225961 0.500000 0.000000 0.110069
C22   C     C_R   0.500000 0.225961 1.000000 0.110062
C23   C     C_R   0.774039 0.500000 1.000000 0.110070
C24   C     C_R   0.988103 0.157444 0.549349 -0.192773
C25   C     C_R   0.500000 0.774039 0.000000 0.110059
C26   C     C_R   0.796763 0.012171 0.549211 -0.175840
C27   C     C_R   0.012164 0.796763 0.549214 -0.175837
C28   C     C_R   0.203237 0.987828 0.549211 -0.175840
C29   C     C_R   0.987835 0.203237 0.549214 -0.175838
C30   C     C_R   0.796763 0.987828 0.450789 -0.175840
C31   C     C_R   0.012165 0.203237 0.450786 -0.175838
C32   C     C_R   0.203237 0.012171 0.450789 -0.175841
C33   C     C_R   0.987836 0.796763 0.450786 -0.175836
C34   C     C_R   0.296763 0.512174 0.049210 -0.175840
C35   C     C_R   0.842556 0.988096 0.450654 -0.192774
C36   C     C_R   0.512183 0.296763 0.049206 -0.175835
C37   C     C_R   0.703237 0.487826 0.049210 -0.175840
C38   C     C_R   0.487828 0.703237 0.049210 -0.175835
C39   C     C_R   0.296763 0.487826 0.950790 -0.175841
C40   C     C_R   0.512173 0.703237 0.950790 -0.175836
C41   C     C_R   0.703237 0.512174 0.950790 -0.175840
C42   C     C_R   0.487817 0.296763 0.950794 -0.175835
C43   C     C_R   0.011897 0.157444 0.450651 -0.192773
C44   C     C_R   0.157444 0.011903 0.450654 -0.192774
C45   C     C_R   0.988105 0.842555 0.450651 -0.192775
C46   C     C_R   0.342556 0.511906 0.049345 -0.192773
C47   C     C_R   0.511914 0.342556 0.049342 -0.192774
C48   C     C_R   0.657444 0.488094 0.049345 -0.192775
C49   C     C_R   0.000000 0.586270 0.500000 0.862356
C50   C     C_R   0.488096 0.657444 0.049346 -0.192775
C51   C     C_R   0.342556 0.488094 0.950655 -0.192775
C52   C     C_R   0.511904 0.657444 0.950654 -0.192775
C53   C     C_R   0.657444 0.511906 0.950655 -0.192774
C54   C     C_R   0.488086 0.342556 0.950658 -0.192775
C55   C     C_R   0.865595 1.000000 0.500000 -0.033063
C56   C     C_R   0.000000 0.865595 0.500000 -0.033061
C57   C     C_R   0.134405 1.000000 0.500000 -0.033063
C58   C     C_R   0.000000 0.134405 0.500000 -0.033058
C59   C     C_R   0.365595 0.500000 0.000000 -0.033061
C60   C     C_R   0.413730 0.000000 0.500000 0.862364
C61   C     C_R   0.500000 0.365595 1.000000 -0.033049
C62   C     C_R   0.634405 0.500000 1.000000 -0.033061
C63   C     C_R   0.500000 0.634405 0.000000 -0.033056
C64   C     C_R   0.773872 1.000000 0.500000 0.110860
C65   C     C_R   0.000000 0.773872 0.500000 0.110852
C66   C     C_R   0.226128 1.000000 0.500000 0.110861
C67   C     C_R   0.000000 0.226128 0.500000 0.110856
C68   C     C_R   0.273872 0.500000 0.000000 0.110862
C69   C     C_R   0.500000 0.273872 1.000000 0.110853
C70   C     C_R   0.726128 0.500000 1.000000 0.110861
C71   C     C_R   0.000000 0.413730 0.500000 0.862356
C72   C     C_R   0.500000 0.726128 0.000000 0.110852
C73   C     C_R   0.000000 0.913531 0.500000 0.876226
C74   C     C_R   0.086469 1.000000 0.500000 0.876232
C75   C     C_R   0.000000 0.086469 0.500000 0.876224
C76   C     C_R   0.913531 0.000000 0.500000 0.876232
C77   C     C_R   0.500000 0.413531 1.000000 0.876222
C78   C     C_R   0.586469 0.500000 1.000000 0.876228
C79   C     C_R   0.500000 0.586469 0.000000 0.876223
C80   C     C_R   0.413531 0.500000 0.000000 0.876229
C81   C     C_R   0.500000 0.000000 0.609373 0.907874
C82   C     C_R   0.086270 0.500000 0.000000 0.862364
C83   C     C_R   1.000000 0.500000 0.609373 0.907874
C84   C     C_R   0.500000 1.000000 0.390627 0.907875
C85   C     C_R   0.000000 0.500000 0.390627 0.907874
C86   C     C_R   0.000000 0.500000 0.109373 0.907875
C87   C     C_R   0.500000 1.000000 0.109373 0.907877
C88   C     C_R   0.000000 0.500000 0.890627 0.907875
C89   C     C_R   0.500000 1.000000 0.890627 0.907877
C90   C     C_1   0.500000 0.000000 0.669585 -0.191067
C91   C     C_1   1.000000 0.500000 0.669585 -0.191064
C92   C     C_1   0.500000 1.000000 0.330415 -0.191067
C93   C     C_R   0.500000 0.086270 0.000000 0.862359
C94   C     C_1   0.000000 0.500000 0.330415 -0.191064
C95   C     C_1   0.000000 0.500000 0.169585 -0.191067
C96   C     C_1   0.500000 1.000000 0.169585 -0.191064
C97   C     C_1   1.000000 0.500000 0.830415 -0.191067
C98   C     C_1   0.500000 0.000000 0.830415 -0.191064
C99   C     C_1   0.500000 0.000000 0.720365 0.004516
C100  C     C_1   1.000000 0.500000 0.720365 0.004516
C101  C     C_1   0.500000 1.000000 0.279635 0.004516
C102  C     C_1   0.000000 0.500000 0.279635 0.004516
C103  C     C_1   0.000000 0.500000 0.220365 0.004516
C104  C     C_R   0.913730 0.500000 0.000000 0.862365
C105  C     C_1   0.500000 1.000000 0.220365 0.004516
C106  C     C_1   1.000000 0.500000 0.779635 0.004516
C107  C     C_1   0.500000 0.000000 0.779635 0.004516
C108  C     C_R   0.703070 0.962011 0.483322 -0.176996
C109  C     C_R   0.962010 0.703070 0.483328 -0.176990
C110  C     C_R   0.296930 0.037988 0.483320 -0.176995
C111  C     C_R   0.037990 0.296930 0.483326 -0.176991
C112  C     C_R   0.703070 0.037988 0.516678 -0.176996
C113  C     C_R   0.962010 0.296930 0.516674 -0.176992
C114  C     C_R   0.296930 0.962012 0.516679 -0.176998
C115  C     C_R   0.500000 0.913730 0.000000 0.862357
C116  C     C_R   0.037990 0.703070 0.516672 -0.176991
C117  C     C_R   0.203070 0.462011 0.983322 -0.176996
C118  C     C_R   0.462004 0.203071 0.983348 -0.176995
C119  C     C_R   0.796930 0.537989 0.983322 -0.176996
C120  C     C_R   0.537992 0.796930 0.983336 -0.176993
C121  C     C_R   0.203070 0.537989 0.016678 -0.176996
C122  C     C_R   0.462008 0.796930 0.016664 -0.176991
C123  C     C_R   0.796930 0.462011 0.016678 -0.176997
C124  C     C_R   0.537995 0.203071 0.016652 -0.176994
C125  C     C_R   0.657278 0.961900 0.483663 -0.189705
C126  C     C_R   0.842556 0.011903 0.549346 -0.192774
C127  C     C_R   0.961898 0.657277 0.483670 -0.189704
C128  C     C_R   0.342722 0.038100 0.483662 -0.189704
C129  C     C_R   0.038102 0.342723 0.483668 -0.189703
C130  C     C_R   0.657278 0.038100 0.516337 -0.189705
C131  C     C_R   0.961898 0.342723 0.516332 -0.189703
C132  C     C_R   0.342722 0.961900 0.516338 -0.189704
C133  C     C_R   0.038102 0.657277 0.516330 -0.189704
C134  C     C_R   0.157278 0.461899 0.983663 -0.189704
C135  C     C_R   0.461893 0.157278 0.983690 -0.189702
C136  C     C_R   0.842722 0.538100 0.983663 -0.189704
H1    H     H_    0.720670 0.932440 0.470654 0.134024
H2    H     H_    0.432428 0.220671 0.970700 0.134027
H3    H     H_    0.779330 0.567560 0.970654 0.134022
H4    H     H_    0.567566 0.779330 0.970678 0.134027
H5    H     H_    0.220670 0.567560 0.029346 0.134023
H6    H     H_    0.432434 0.779330 0.029322 0.134027
H7    H     H_    0.779330 0.432440 0.029346 0.134022
H8    H     H_    0.567572 0.220671 0.029300 0.134026
H9    H     H_    0.639963 0.932247 0.470713 0.155332
H10   H     H_    0.932243 0.639962 0.470725 0.155317
H11   H     H_    0.360037 0.067753 0.470710 0.155331
H12   H     H_    0.932437 0.720670 0.470664 0.134028
H13   H     H_    0.067756 0.360038 0.470720 0.155316
H14   H     H_    0.639963 0.067753 0.529287 0.155332
H15   H     H_    0.932244 0.360038 0.529279 0.155316
H16   H     H_    0.360037 0.932247 0.529290 0.155331
H17   H     H_    0.067756 0.639962 0.529275 0.155317
H18   H     H_    0.139963 0.432246 0.970713 0.155331
H19   H     H_    0.432234 0.139963 0.970760 0.155324
H20   H     H_    0.860037 0.567754 0.970713 0.155331
H21   H     H_    0.567760 0.860037 0.970739 0.155320
H22   H     H_    0.139963 0.567754 0.029287 0.155331
H23   H     H_    0.279330 0.067559 0.470651 0.134023
H24   H     H_    0.432240 0.860037 0.029261 0.155320
H25   H     H_    0.860037 0.432246 0.029287 0.155331
H26   H     H_    0.567766 0.139963 0.029240 0.155324
H27   H     H_    0.779164 0.021398 0.587511 0.133858
H28   H     H_    0.021384 0.779163 0.587516 0.133863
H29   H     H_    0.220836 0.978602 0.587511 0.133857
H30   H     H_    0.978613 0.220836 0.587516 0.133861
H31   H     H_    0.779164 0.978602 0.412489 0.133858
H32   H     H_    0.021387 0.220836 0.412484 0.133860
H33   H     H_    0.220836 0.021397 0.412489 0.133857
H34   H     H_    0.067562 0.279330 0.470660 0.134027
H35   H     H_    0.978616 0.779163 0.412484 0.133862
H36   H     H_    0.279164 0.521402 0.087510 0.133857
H37   H     H_    0.521418 0.279164 0.087503 0.133861
H38   H     H_    0.720836 0.478597 0.087509 0.133857
H39   H     H_    0.478600 0.720836 0.087510 0.133862
H40   H     H_    0.279164 0.478598 0.912490 0.133857
H41   H     H_    0.521400 0.720836 0.912490 0.133862
H42   H     H_    0.720836 0.521402 0.912491 0.133857
H43   H     H_    0.478582 0.279164 0.912497 0.133861
H44   H     H_    0.859887 0.021329 0.587753 0.152762
H45   H     H_    0.720670 0.067560 0.529347 0.134024
H46   H     H_    0.021314 0.859887 0.587759 0.152757
H47   H     H_    0.140113 0.978671 0.587753 0.152762
H48   H     H_    0.978682 0.140113 0.587759 0.152755
H49   H     H_    0.859887 0.978671 0.412247 0.152762
H50   H     H_    0.021317 0.140113 0.412241 0.152755
H51   H     H_    0.140113 0.021329 0.412247 0.152762
H52   H     H_    0.978686 0.859887 0.412241 0.152758
H53   H     H_    0.359887 0.521333 0.087752 0.152761
H54   H     H_    0.521349 0.359888 0.087745 0.152748
H55   H     H_    0.640113 0.478666 0.087751 0.152760
H56   H     H_    0.932438 0.279330 0.529340 0.134027
H57   H     H_    0.478670 0.640113 0.087752 0.152753
H58   H     H_    0.359887 0.478666 0.912248 0.152761
H59   H     H_    0.521330 0.640113 0.912248 0.152754
H60   H     H_    0.640113 0.521334 0.912249 0.152761
H61   H     H_    0.478651 0.359888 0.912255 0.152748
H62   H     H_    0.279330 0.932440 0.529349 0.134024
H63   H     H_    0.067563 0.720670 0.529336 0.134028
H64   H     H_    0.220670 0.432440 0.970654 0.134022
O1    O     O_R   0.565460 0.036980 0.500020 -0.625211
O2    O     O_R   0.463020 0.065460 0.000020 -0.625207
O3    O     O_R   0.934540 0.463020 0.000020 -0.625211
O4    O     O_R   0.536980 0.934540 0.000020 -0.625205
O5    O     O_R   0.065460 0.463020 0.999980 -0.625211
O6    O     O_R   0.463020 0.934540 0.999980 -0.625205
O7    O     O_R   0.934540 0.536980 0.999980 -0.625211
O8    O     O_R   0.536980 0.065460 0.999980 -0.625208
O9    O     O_R   0.499990 0.036980 0.582790 -0.614088
O10   O     O_R   0.963020 0.499990 0.582790 -0.614090
O11   O     O_R   0.500010 0.963020 0.582790 -0.614087
O12   O     O_R   0.963020 0.565460 0.500020 -0.625204
O13   O     O_R   0.036980 0.500010 0.582790 -0.614089
O14   O     O_R   0.499990 0.963020 0.417210 -0.614087
O15   O     O_R   0.963020 0.500010 0.417210 -0.614089
O16   O     O_R   0.500010 0.036980 0.417210 -0.614088
O17   O     O_R   0.036980 0.499990 0.417210 -0.614090
O18   O     O_R   0.999990 0.536980 0.082790 -0.614088
O19   O     O_R   0.463020 0.999990 0.082790 -0.614090
O20   O     O_R   0.000010 0.463020 0.082790 -0.614087
O21   O     O_R   0.536980 0.000010 0.082790 -0.614088
O22   O     O_R   0.999990 0.463020 0.917210 -0.614087
O23   O     O_R   0.434540 0.963020 0.500020 -0.625210
O24   O     O_R   0.463020 0.000010 0.917210 -0.614088
O25   O     O_R   0.000010 0.536980 0.917210 -0.614088
O26   O     O_R   0.536980 0.999990 0.917210 -0.614090
O27   O     O_R   0.999990 0.934570 0.546740 -0.625525
O28   O     O_R   0.065430 0.999990 0.546740 -0.625530
O29   O     O_R   0.000010 0.065430 0.546740 -0.625525
O30   O     O_R   0.934570 0.000010 0.546740 -0.625530
O31   O     O_R   0.999990 0.065430 0.453260 -0.625525
O32   O     O_R   0.065430 0.000010 0.453260 -0.625531
O33   O     O_R   0.000010 0.934570 0.453260 -0.625525
O34   O     O_R   0.036980 0.434540 0.500020 -0.625204
O35   O     O_R   0.934570 0.999990 0.453260 -0.625530
O36   O     O_R   0.499990 0.434570 0.046740 -0.625522
O37   O     O_R   0.565430 0.499990 0.046740 -0.625531
O38   O     O_R   0.500010 0.565430 0.046740 -0.625524
O39   O     O_R   0.434570 0.500010 0.046740 -0.625529
O40   O     O_R   0.499990 0.565430 0.953260 -0.625524
O41   O     O_R   0.565430 0.500010 0.953260 -0.625529
O42   O     O_R   0.500010 0.434570 0.953260 -0.625522
O43   O     O_R   0.434570 0.499990 0.953260 -0.625530
O44   O     O_R   0.565460 0.963020 0.499980 -0.625211
O45   O     O_R   0.963020 0.434540 0.499980 -0.625204
O46   O     O_R   0.434540 0.036980 0.499980 -0.625211
O47   O     O_R   0.036980 0.565460 0.499980 -0.625205
O48   O     O_R   0.065460 0.536980 0.000020 -0.625211
Zn1   Zn    Zn3+2 0.500000 0.049380 0.500000 0.956475
Zn2   Zn    Zn3+2 0.000000 0.000000 0.437580 0.945047
Zn3   Zn    Zn3+2 0.500000 0.500000 0.062420 0.945051
Zn4   Zn    Zn3+2 0.500000 0.500000 0.937580 0.945051
Zn5   Zn    Zn3+2 0.950620 0.500000 0.500000 0.956472
Zn6   Zn    Zn3+2 0.500000 0.950620 0.500000 0.956475
Zn7   Zn    Zn3+2 0.049380 0.500000 0.500000 0.956472
Zn8   Zn    Zn3+2 0.000000 0.549380 0.000000 0.956474
Zn9   Zn    Zn3+2 0.450620 0.000000 0.000000 0.956470
Zn10  Zn    Zn3+2 1.000000 0.450620 0.000000 0.956474
Zn11  Zn    Zn3+2 0.549380 0.000000 0.000000 0.956470
Zn12  Zn    Zn3+2 0.000000 0.000000 0.562420 0.945047

loop_
_geom_bond_atom_site_label_1
_geom_bond_atom_site_label_2
_ccdc_geom_bond_type
C57   C74   S    
C39   C51   A    
C96   C105  T    
C25   C120  A    
C60   O46   A    
C79   O38   A    
C3    C16   A    
C30   C64   A    
C46   C59   A    
C24   H48   S    
C1    C8    S    
C33   C45   A    
C39   C68   A    
C20   C67   S    
C131  H15   S    
C18   C109  A    
C7    C124  A    
C32   H33   S    
C1    O1    A    
O24   Zn9   S    
C89   O24   A    
C33   C65   A    
C16   C115  S    
C63   C79   S    
O43   Zn4   S    
C18   C65   S    
C31   C67   A    
C52   H59   S    
C9    C127  A    
C54   H61   S    
C31   C43   A    
C30   C35   A    
C36   C47   A    
C133  H17   S    
C87   O21   A    
C80   O39   A    
C46   H53   S    
C19   C110  A    
C30   H31   S    
C118  H2    S    
C85   O15   A    
C17   C64   S    
C23   C119  A    
C108  H1    S    
C136  H20   S    
O4    Zn11  S    
C11   C71   S    
C71   O34   A    
O14   Zn6   S    
C14   C135  A    
C26   H27   S    
O15   Zn5   S    
C135  H19   S    
C26   C126  A    
C19   C66   S    
O17   Zn7   S    
C104  O7    A    
O12   Zn5   S    
C75   O29   A    
C85   O17   A    
C24   C29   A    
C48   H55   S    
C21   C117  A    
C43   C58   A    
C6    C15   A    
C29   C67   A    
C111  C129  A    
C7    C14   A    
C4    H22   S    
C45   C56   A    
C61   C77   S    
O16   Zn1   S    
C13   H47   S    
C130  H14   S    
C74   O28   A    
C6    H25   S    
C13   C28   A    
C126  H44   S    
C2    C27   A    
C34   C46   A    
C87   O19   A    
C15   C104  S    
C4    C12   A    
C40   C72   A    
C25   C122  A    
C89   O26   A    
C14   C93   S    
C73   O33   A    
C88   C97   S    
O3    Zn10  S    
C85   C94   S    
O9    Zn1   S    
C124  H8    S    
C37   H38   S    
C36   H37   S    
O8    Zn11  S    
O44   Zn6   S    
C37   C70   A    
C87   C96   S    
C50   C63   A    
C23   C70   S    
O46   Zn1   S    
C102  C103  S    
O41   Zn4   S    
C79   O40   A    
C10   C128  A    
C117  C134  A    
C11   C129  A    
C83   O13   A    
C84   O14   A    
O33   Zn2   S    
C51   C59   A    
C10   C132  A    
O5    Zn10  S    
C101  C105  S    
C7    H26   S    
C38   C72   A    
C78   O41   A    
C38   C50   A    
C95   C103  T    
O39   Zn3   S    
C77   O42   A    
C104  O3    A    
C2    H46   S    
C41   H42   S    
C9    C49   S    
C74   O32   A    
O19   Zn9   S    
O2    Zn9   S    
C18   C116  A    
C73   O27   A    
C116  H63   S    
C23   C123  A    
C116  C133  A    
C44   H51   S    
C19   C114  A    
C40   C52   A    
O45   Zn5   S    
C5    C122  A    
C52   C63   A    
C77   O36   A    
C86   O18   A    
C98   C107  T    
C42   H43   S    
C29   H30   S    
C59   C80   S    
C28   C66   A    
O7    Zn8   S    
O10   Zn5   S    
C129  H13   S    
C27   C65   A    
C1    O44   A    
C121  H5    S    
C27   H28   S    
C20   C111  A    
C53   C62   A    
C48   C62   A    
C88   O25   A    
C55   C126  A    
O47   Zn7   S    
C44   C57   A    
C35   H49   S    
C5    H24   S    
C115  O4    A    
O48   Zn8   S    
C32   C44   A    
C12   C82   S    
C45   H52   S    
C25   C72   S    
C86   O20   A    
C37   C48   A    
C75   O31   A    
C93   O2    A    
C41   C53   A    
C35   C55   A    
C49   O47   A    
C117  H64   S    
O27   Zn12  S    
C120  H4    S    
C81   C90   S    
C92   C101  T    
C81   O11   A    
O6    Zn9   S    
O30   Zn12  S    
C53   H60   S    
O40   Zn4   S    
C78   O37   A    
O1    Zn1   S    
C21   C68   S    
C8    C130  A    
C91   C100  T    
C88   O22   A    
C17   C108  A    
C109  H12   S    
O32   Zn2   S    
C55   C76   S    
O11   Zn6   S    
C34   C68   A    
C17   C112  A    
C33   H35   S    
C60   O23   A    
C90   C99   T    
C34   H36   S    
C36   C69   A    
C32   C66   A    
C108  C125  A    
C22   C118  A    
C113  H56   S    
C10   C60   S    
O18   Zn8   S    
C56   C73   S    
C113  C131  A    
C114  C132  A    
C62   C78   S    
O37   Zn3   S    
C39   H40   S    
C51   H58   S    
C11   C131  A    
O26   Zn11  S    
C47   C61   A    
O28   Zn12  S    
C128  H11   S    
C22   C124  A    
C112  H45   S    
C15   C136  A    
C54   C61   A    
C26   C64   A    
C99   C107  S    
C100  C106  S    
C119  C136  A    
C43   H50   S    
C80   O43   A    
C82   O48   A    
C89   C98   S    
C111  H34   S    
O42   Zn4   S    
O38   Zn3   S    
C119  H3    S    
C5    C16   A    
C2    C56   A    
C42   C54   A    
C76   O30   A    
C93   O8    A    
O23   Zn6   S    
C38   H39   S    
C134  H18   S    
C86   C95   S    
C47   H54   S    
O25   Zn8   S    
C132  H16   S    
C83   C91   S    
C49   O12   A    
C50   H57   S    
C109  C127  A    
C4    C121  A    
C76   O35   A    
C42   C69   A    
C21   C121  A    
C20   C113  A    
C28   H29   S    
O22   Zn10  S    
C83   O10   A    
O13   Zn7   S    
C3    C120  A    
C110  H23   S    
C127  H10   S    
C40   H41   S    
O29   Zn12  S    
C97   C106  T    
C8    C125  A    
C71   O45   A    
C13   C57   A    
C31   H32   S    
C94   C102  T    
C24   C58   A    
C81   O9    A    
C114  H62   S    
C115  O6    A    
C123  H7    S    
C3    H21   S    
C22   C69   S    
C122  H6    S    
O36   Zn3   S    
C41   C70   A    
C12   C134  A    
C84   C92   S    
O35   Zn2   S    
C112  C130  A    
O21   Zn11  S    
O31   Zn2   S    
C6    C123  A    
O34   Zn7   S    
C125  H9    S    
C82   O5    A    
C118  C135  A    
C84   O16   A    
C110  C128  A    
C58   C75   S    
O20   Zn10  S    
C9    C133  A    
