data_mof_unit_6247.cif
_audit_creation_date              2012-12-11T16:45:47-0500
_audit_creation_method            fapswitch 2.2
_symmetry_space_group_name_H-M    P1
_symmetry_Int_Tables_number       1
_space_group_crystal_system       triclinic
_cell_length_a                    19.801343
_cell_length_b                    17.237505
_cell_length_c                    15.468114
_cell_angle_alpha                 89.996178
_cell_angle_beta                  53.20227
_cell_angle_gamma                 90.001225
_cell_volume                      4227.71914658

loop_
_atom_site_label
_atom_site_type_symbol
_atom_type_description
_atom_site_fract_x
_atom_site_fract_y
_atom_site_fract_z
_atom_type_partial_charge
C1    C     C_R   0.843044 0.675689 0.040748 -0.103935
C2    C     C_R   0.147150 0.309435 0.072549 -0.293883
C3    C     C_R   0.352856 0.809434 0.927449 -0.293833
C4    C     C_R   0.647147 0.809434 0.072552 -0.293765
C5    C     C_R   0.887784 0.684008 0.300672 -0.056519
C6    C     C_R   0.112524 0.684016 0.699240 -0.056631
C7    C     C_R   0.387867 0.184024 0.300632 -0.056398
C8    C     C_R   0.612242 0.184017 0.699318 -0.056423
C9    C     C_R   0.851829 0.808295 0.394678 -0.049136
C10   C     C_R   0.147596 0.808087 0.604938 -0.048212
C11   C     C_R   0.351774 0.308324 0.394634 -0.049332
C12   C     C_R   0.156958 0.675698 0.959260 -0.103452
C13   C     C_R   0.648098 0.308298 0.605290 -0.049096
C14   C     C_R   0.839884 0.728796 0.396018 0.069701
C15   C     C_R   0.160708 0.728837 0.603982 0.069470
C16   C     C_R   0.339962 0.228798 0.395995 0.069555
C17   C     C_R   0.660154 0.228820 0.603979 0.069605
C18   C     C_R   0.273090 0.191716 0.489431 -0.264759
C19   C     C_R   0.727157 0.191818 0.510600 -0.264945
C20   C     C_R   0.772937 0.691759 0.489425 -0.264803
C21   C     C_R   0.228587 0.692160 0.511075 -0.266019
C22   C     C_R   0.223591 0.232735 0.584105 0.807139
C23   C     C_R   0.343042 0.175686 0.040754 -0.103501
C24   C     C_R   0.776564 0.232849 0.415909 0.807217
C25   C     C_R   0.723483 0.732785 0.584100 0.807223
C26   C     C_R   0.277848 0.733166 0.416309 0.808801
C27   C     C_R   0.241792 0.311150 0.585563 -0.096094
C28   C     C_R   0.758141 0.311189 0.414390 -0.095961
C29   C     C_R   0.741804 0.811160 0.585586 -0.095992
C30   C     C_R   0.258398 0.811091 0.414336 -0.095501
C31   C     C_R   0.803107 0.849254 0.489768 0.086381
C32   C     C_R   0.196192 0.849020 0.509792 0.085005
C33   C     C_R   0.303014 0.349274 0.489724 0.086073
C34   C     C_R   0.656969 0.175686 0.959228 -0.103451
C35   C     C_R   0.696781 0.349264 0.510187 0.086055
C36   C     C_3   0.875880 0.896914 0.464380 -0.565813
C37   C     C_3   0.122918 0.895347 0.534239 -0.565886
C38   C     C_3   0.375715 0.397086 0.464274 -0.565138
C39   C     C_3   0.623949 0.396803 0.535536 -0.565056
C40   C     C_R   0.852681 0.327433 0.217340 -0.030596
C41   C     C_R   0.147267 0.327388 0.782640 -0.030620
C42   C     C_R   0.352755 0.827329 0.217350 -0.030795
C43   C     C_R   0.647279 0.827399 0.782650 -0.030957
C44   C     C_3   0.929734 0.851836 0.359434 0.701338
C45   C     C_R   0.815562 0.355339 0.319875 -0.093709
C46   C     C_3   0.069226 0.850314 0.639264 0.701350
C47   C     C_3   0.429615 0.352018 0.359322 0.701414
C48   C     C_3   0.570138 0.351711 0.640491 0.701200
C49   C     C_2   0.773579 0.192512 0.976143 -0.289126
C50   C     C_2   0.226455 0.192531 0.023807 -0.289027
C51   C     C_2   0.273554 0.692525 0.976191 -0.289177
C52   C     C_2   0.726458 0.692533 0.023801 -0.289376
C53   C     C_2   0.313492 0.750501 0.904764 0.814519
C54   C     C_2   0.686525 0.750504 0.095223 0.814882
C55   C     C_2   0.813506 0.250501 0.904734 0.814341
C56   C     C_R   0.184327 0.355259 0.680094 -0.093656
C57   C     C_2   0.186525 0.250504 0.095224 0.814388
C58   C     C_R   0.869870 0.385694 0.892703 -0.040022
C59   C     C_R   0.130140 0.385691 0.107284 -0.040045
C60   C     C_R   0.369864 0.885694 0.892712 -0.040016
C61   C     C_R   0.630138 0.885690 0.107286 -0.040291
C62   C     C_R   0.910230 0.609278 0.299546 0.797147
C63   C     C_R   0.090079 0.609286 0.700255 0.798479
C64   C     C_R   0.410297 0.109289 0.299502 0.797193
C65   C     C_R   0.589797 0.109286 0.700436 0.797116
C66   C     C_R   0.879704 0.298797 0.989785 0.658986
C67   C     C_R   0.315561 0.855320 0.319850 -0.093827
C68   C     C_R   0.120308 0.298801 0.010202 0.659045
C69   C     C_R   0.379689 0.798800 0.989808 0.659012
C70   C     C_R   0.620305 0.798801 0.010205 0.659119
C71   C     C_R   0.895154 0.697353 0.208276 -0.235482
C72   C     C_R   0.104985 0.697335 0.791721 -0.236174
C73   C     C_R   0.395192 0.197361 0.208261 -0.235556
C74   C     C_R   0.604862 0.197356 0.791716 -0.235642
C75   C     C_R   0.864041 0.415399 0.315367 0.447264
C76   C     C_R   0.135858 0.415330 0.684615 0.447035
C77   C     C_R   0.363977 0.915428 0.315355 0.447687
C78   C     C_R   0.684369 0.855289 0.680107 -0.093777
C79   C     C_R   0.635910 0.915369 0.684623 0.447312
C80   C     C_R   0.834578 0.586170 0.942151 0.474854
C81   C     C_R   0.165422 0.586164 0.057850 0.474826
C82   C     C_R   0.334576 0.086169 0.942154 0.474815
C83   C     C_R   0.665432 0.086161 0.057831 0.474630
C84   C     C_R   0.794081 0.649305 0.010820 0.009103
C85   C     C_R   0.205924 0.649304 0.989179 0.008950
C86   C     C_R   0.294079 0.149303 0.010826 0.008932
C87   C     C_R   0.705939 0.149296 0.989146 0.008832
C88   C     C_R   0.852871 0.309431 0.927425 -0.293791
Cl1   Cl    Cl    0.863231 0.445462 0.424403 -0.497190
Cl2   Cl    Cl    0.136446 0.445232 0.575691 -0.496245
Cl3   Cl    Cl    0.362916 0.945627 0.424532 -0.497206
Cl4   Cl    Cl    0.636671 0.945435 0.575621 -0.497126
Cl5   Cl    Cl    0.813542 0.549528 0.854702 -0.533622
Cl6   Cl    Cl    0.186442 0.549520 0.145318 -0.534120
Cl7   Cl    Cl    0.313538 0.049526 0.854709 -0.533545
Cl8   Cl    Cl    0.686464 0.049516 0.145286 -0.533935
F1    F     F_    0.157222 0.196201 0.672802 -0.647866
F2    F     F_    0.692777 0.761887 0.177219 -0.672586
F3    F     F_    0.807244 0.261909 0.822749 -0.672723
F4    F     F_    0.192779 0.261891 0.177218 -0.672709
F5    F     F_    0.942401 0.585925 0.351668 -0.577963
F6    F     F_    0.058134 0.586012 0.647839 -0.577256
F7    F     F_    0.442505 0.085919 0.351575 -0.578157
F8    F     F_    0.557646 0.085942 0.648289 -0.578036
F9    F     F_    0.902900 0.230035 0.007538 -0.644802
F10   F     F_    0.097114 0.230038 0.992451 -0.644725
F11   F     F_    0.402885 0.730037 0.007560 -0.645200
F12   F     F_    0.843052 0.196407 0.327248 -0.648109
F13   F     F_    0.597110 0.730037 0.992457 -0.644645
F14   F     F_    0.657044 0.696301 0.672779 -0.648049
F15   F     F_    0.345070 0.697137 0.327960 -0.648282
F16   F     F_    0.988601 0.805007 0.355018 -0.627006
F17   F     F_    0.011410 0.802255 0.643068 -0.625455
F18   F     F_    0.488596 0.305331 0.354847 -0.627062
F19   F     F_    0.511356 0.304759 0.644882 -0.626777
F20   F     F_    0.307247 0.761891 0.822763 -0.672626
H1    H     H_    0.835991 0.728159 0.083362 0.191565
H2    H     H_    0.107555 0.883346 0.477127 0.246864
H3    H     H_    0.391884 0.386218 0.520808 0.245784
H4    H     H_    0.607875 0.385750 0.478945 0.246047
H5    H     H_    0.955816 0.887349 0.285755 0.036044
H6    H     H_    0.042139 0.886115 0.712937 0.035031
H7    H     H_    0.455600 0.387510 0.285649 0.036172
H8    H     H_    0.543980 0.387240 0.714167 0.035969
H9    H     H_    0.780237 0.183734 0.039959 0.213334
H10   H     H_    0.219807 0.183771 0.959980 0.213301
H11   H     H_    0.280195 0.683760 0.040024 0.213169
H12   H     H_    0.164012 0.728187 0.916673 0.191571
H13   H     H_    0.719811 0.683776 0.959973 0.213262
H14   H     H_    0.833251 0.277889 0.194491 0.210912
H15   H     H_    0.166707 0.277859 0.805502 0.211094
H16   H     H_    0.333481 0.777618 0.194565 0.210283
H17   H     H_    0.666704 0.777857 0.805510 0.211027
H18   H     H_    0.870456 0.407973 0.827176 0.245337
H19   H     H_    0.129558 0.407957 0.172810 0.245365
H20   H     H_    0.370449 0.907968 0.827184 0.245368
H21   H     H_    0.629557 0.907958 0.172811 0.245398
H22   H     H_    0.888987 0.752435 0.180186 0.167664
H23   H     H_    0.335988 0.228154 0.083373 0.191583
H24   H     H_    0.111153 0.752399 0.819840 0.168155
H25   H     H_    0.389019 0.252442 0.180175 0.167632
H26   H     H_    0.611029 0.252436 0.819802 0.167728
H27   H     H_    0.259132 0.130928 0.489074 0.177140
H28   H     H_    0.741259 0.131080 0.511009 0.176438
H29   H     H_    0.758899 0.631000 0.489045 0.176621
H30   H     H_    0.243327 0.631679 0.511880 0.174853
H31   H     H_    0.664031 0.228159 0.916604 0.191615
H32   H     H_    0.868616 0.959069 0.452312 0.194996
H33   H     H_    0.129037 0.957807 0.546289 0.194215
H34   H     H_    0.368327 0.459209 0.452215 0.195027
H35   H     H_    0.631116 0.458987 0.547597 0.194889
H36   H     H_    0.891990 0.885941 0.520952 0.245615
N1    N     N_R   0.908660 0.628630 0.995840 -0.087591
N2    N     N_R   0.096530 0.421430 0.063580 -0.104121
N3    N     N_R   0.403470 0.921430 0.936420 -0.104131
N4    N     N_R   0.596530 0.921430 0.063580 -0.104163
N5    N     N_R   0.927500 0.575670 0.211370 -0.141233
N6    N     N_R   0.072500 0.575670 0.788630 -0.141513
N7    N     N_R   0.427500 0.075670 0.211370 -0.141244
N8    N     N_R   0.572500 0.075670 0.788630 -0.141263
N9    N     N_R   0.908660 0.365680 0.995820 -0.116381
N10   N     N_R   0.091340 0.365680 0.004180 -0.116406
N11   N     N_R   0.408660 0.865680 0.995820 -0.116330
N12   N     N_R   0.091340 0.628630 0.004160 -0.087647
N13   N     N_R   0.591340 0.865680 0.004180 -0.116468
N14   N     N_R   0.922310 0.631420 0.151980 -0.086729
N15   N     N_R   0.077690 0.631420 0.848020 -0.086830
N16   N     N_R   0.422310 0.131420 0.151980 -0.086764
N17   N     N_R   0.577690 0.131420 0.848020 -0.086792
N18   N     N_R   0.927500 0.426330 0.211360 -0.105118
N19   N     N_R   0.072500 0.426330 0.788640 -0.105292
N20   N     N_R   0.427500 0.926330 0.211360 -0.105009
N21   N     N_R   0.572500 0.926330 0.788640 -0.105168
N22   N     N_R   0.903470 0.570760 0.936440 -0.098829
N23   N     N_R   0.408660 0.128630 0.995840 -0.087657
N24   N     N_R   0.096530 0.570760 0.063560 -0.098797
N25   N     N_R   0.403470 0.070760 0.936440 -0.098816
N26   N     N_R   0.596530 0.070760 0.063560 -0.098812
N27   N     N_R   0.591340 0.128630 0.004160 -0.087678
N28   N     N_R   0.922310 0.368460 0.151950 -0.076134
N29   N     N_R   0.077690 0.368460 0.848050 -0.076232
N30   N     N_R   0.422310 0.868460 0.151950 -0.075947
N31   N     N_R   0.577690 0.868460 0.848050 -0.076177
N32   N     N_R   0.903470 0.421430 0.936420 -0.104128
Ni1   Ni    Ni4+2 1.000000 0.630300 0.000000 0.193798
Ni2   Ni    Ni4+2 0.500000 0.130300 0.000000 0.193808
Ni3   Ni    Ni4+2 1.000000 0.369700 0.000000 0.342893
Ni4   Ni    Ni4+2 0.500000 0.869700 0.000000 0.342858
Ni5   Ni    Ni4+2 0.988090 0.497570 0.863760 0.319191
Ni6   Ni    Ni4+2 0.011910 0.497570 0.136240 0.319369
Ni7   Ni    Ni4+2 0.488090 0.997570 0.863760 0.319254
Ni8   Ni    Ni4+2 0.511910 0.997570 0.136240 0.319387

loop_
_geom_bond_atom_site_label_1
_geom_bond_atom_site_label_2
_ccdc_geom_bond_type
C64   F7    S    
C83   C87   A    
C21   C26   A    
C19   H28   S    
N25   Ni7   S    
C47   F18   S    
N14   Ni1   S    
C79   N21   A    
C11   C47   S    
C67   C77   A    
C80   C84   A    
C51   C85   S    
C4    C70   A    
N26   N27   A    
N29   Ni3   S    
C2    C57   S    
N23   N25   A    
N27   Ni2   S    
C73   H25   S    
N20   Ni8   S    
C43   C78   A    
C6    C72   A    
C12   C85   A    
C56   C76   A    
C52   H13   S    
C23   H23   S    
C18   H27   S    
C70   F13   S    
N17   Ni2   S    
C13   C35   A    
C2    C68   A    
C10   C15   A    
C73   N16   A    
C66   C88   A    
N10   Ni3   S    
C23   N23   A    
C20   C25   A    
C39   H4    S    
N15   Ni1   S    
C39   H35   S    
C44   H5    S    
N7    N16   A    
N19   Ni5   S    
C58   N32   A    
C34   H31   S    
C59   H19   S    
C55   C88   S    
C52   C84   S    
C49   C87   S    
N5    Ni6   S    
C74   N17   A    
C6    C15   S    
C40   N28   A    
C47   H7    S    
C36   H32   S    
C29   C78   S    
C28   C35   A    
C23   C86   A    
C82   N25   A    
C10   C46   S    
N8    N17   A    
C50   H10   S    
C24   C28   A    
C60   H20   S    
C30   C67   S    
C83   N26   A    
C53   F20   S    
C62   F5    S    
C3    C60   A    
C3    C69   A    
N2    Ni6   S    
C8    C65   A    
C22   F1    S    
C41   N29   A    
C34   N27   A    
C68   F10   S    
C63   F6    S    
C38   H34   S    
C59   N2    A    
C52   C54   D    
N6    N15   A    
C71   H22   S    
C25   C29   A    
C40   C45   A    
C28   C45   S    
N13   Ni4   S    
N16   Ni2   S    
C37   H2    S    
C81   N24   A    
C14   C20   A    
C11   C33   A    
C7    C73   A    
N12   Ni1   S    
C70   N13   A    
C41   H15   S    
C50   C86   S    
C78   C79   A    
C36   H36   S    
C1    H1    S    
N3    N11   A    
C82   C86   A    
C57   F4    S    
N1    N22   A    
C71   N14   A    
C42   N30   A    
C66   N9    A    
N18   N28   A    
N11   Ni4   S    
C1    C84   A    
C6    C63   A    
N5    N14   A    
C76   N19   A    
C35   C39   S    
C9    C14   A    
C41   C56   A    
N28   Ni3   S    
N20   N30   A    
C12   N12   A    
N26   Ni8   S    
C11   C16   A    
N24   Ni6   S    
C58   H18   S    
C72   H24   S    
C75   N18   A    
C8    C74   A    
C79   Cl4   S    
C62   N5    A    
C20   H29   S    
N30   Ni4   S    
C32   C37   S    
C27   C56   S    
C1    N1    A    
N32   Ni5   S    
C65   N8    A    
C5    C14   S    
N3    Ni7   S    
C25   F14   S    
C48   F19   S    
C24   F12   S    
C38   H3    S    
C44   F16   S    
C16   C18   A    
C7    C16   S    
C2    C59   A    
C43   H17   S    
C26   C30   A    
C22   C27   A    
N9    Ni3   S    
C42   C67   A    
C72   N15   A    
N6    Ni5   S    
C66   F9    S    
C61   N4    A    
N4    Ni8   S    
C40   H14   S    
C77   Cl3   S    
C9    C44   S    
C82   Cl7   S    
C46   F17   S    
C4    C54   S    
C18   C22   A    
C50   C57   D    
N7    Ni8   S    
N19   N29   A    
C46   H6    S    
C69   N11   A    
N8    Ni7   S    
C37   H33   S    
C58   C88   A    
N2    N10   A    
C48   H8    S    
C13   C48   S    
C12   H12   S    
C68   N10   A    
C49   H9    S    
N18   Ni6   S    
C8    C17   S    
C63   N6    A    
C38   C47   S    
C45   C75   A    
C51   H11   S    
C21   H30   S    
N9    N32   A    
C19   C24   A    
C80   Cl5   S    
C60   N3    A    
C80   N22   A    
C29   C31   A    
C49   C55   D    
N31   Ni4   S    
N23   Ni2   S    
C30   C32   A    
C81   Cl6   S    
C3    C53   S    
C61   H21   S    
N1    Ni1   S    
N4    N13   A    
C77   N20   A    
C83   Cl8   S    
C4    C61   A    
C64   N7    A    
C43   N31   A    
C17   C19   A    
N21   Ni7   S    
C5    C62   A    
N12   N24   A    
C34   C87   A    
C74   H26   S    
C7    C64   A    
C36   C44   S    
C9    C31   A    
N22   Ni5   S    
C13   C17   A    
C10   C32   A    
C15   C21   A    
N21   N31   A    
C5    C71   A    
C75   Cl1   S    
C55   F3    S    
C27   C33   A    
C31   C36   S    
C54   F2    S    
C33   C38   S    
C42   H16   S    
C65   F8    S    
C51   C53   D    
C37   C46   S    
C26   F15   S    
C69   F11   S    
C81   C85   A    
C76   Cl2   S    
C39   C48   S    
