data_mof_unit_63169.cif
_audit_creation_date              2012-12-11T15:44:54-0500
_audit_creation_method            fapswitch 2.2
_symmetry_space_group_name_H-M    P1
_symmetry_Int_Tables_number       1
_space_group_crystal_system       triclinic
_cell_length_a                    22.763275
_cell_length_b                    30.547466
_cell_length_c                    19.093593
_cell_angle_alpha                 90.02578
_cell_angle_beta                  123.860846
_cell_angle_gamma                 89.9764
_cell_volume                      11025.0697718

loop_
_atom_site_label
_atom_site_type_symbol
_atom_type_description
_atom_site_fract_x
_atom_site_fract_y
_atom_site_fract_z
_atom_type_partial_charge
C1    C     C_R   0.122791 0.386291 0.067845 -0.230518
C2    C     C_R   0.121616 0.614232 0.068208 -0.202469
C3    C     C_R   0.622791 0.886290 0.067845 -0.230464
C4    C     C_R   0.621616 0.114233 0.068208 -0.202430
C5    C     C_R   0.868210 0.389235 0.934301 0.559126
C6    C     C_R   0.873789 0.614307 0.934311 0.624775
C7    C     C_R   0.368207 0.889237 0.934304 0.559152
C8    C     C_R   0.373790 0.114307 0.934311 0.624791
C9    C     C_R   0.944762 0.611928 0.075191 -0.220563
C10   C     C_R   0.942573 0.389715 0.075502 -0.213411
C11   C     C_R   0.444762 0.111928 0.075191 -0.220546
C12   C     C_R   0.442573 0.889715 0.075504 -0.213434
C13   C     C_R   0.018468 0.500159 0.268890 -0.252639
C14   C     C_R   0.518468 0.000160 0.268890 -0.252643
C15   C     C_R   0.764906 0.499673 0.732512 0.057887
C16   C     C_R   0.264905 0.999673 0.732514 0.058091
C17   C     C_R   0.881446 0.370101 0.008237 -0.087897
C18   C     C_R   0.886262 0.633356 0.007473 -0.106383
C19   C     C_R   0.381445 0.870102 0.008238 -0.087860
C20   C     C_R   0.386263 0.133356 0.007473 -0.106393
C21   C     C_3   0.478792 0.549356 0.401341 0.456004
C22   C     C_3   0.501269 0.474311 0.352498 0.458745
C23   C     C_3   0.979055 0.049353 0.400767 0.456096
C24   C     C_3   0.001129 0.973886 0.352803 0.458727
C25   C     C_3   0.579275 0.474621 0.432910 0.361405
C26   C     C_3   0.557511 0.548527 0.478705 0.360287
C27   C     C_3   0.079134 0.974208 0.433208 0.361407
C28   C     C_3   0.057770 0.048509 0.478156 0.360352
C29   C     C_1   0.705213 0.499770 0.649653 -0.015969
C30   C     C_1   0.205208 0.999771 0.649658 -0.015953
C31   C     C_3   0.452521 0.500702 0.372571 -0.201214
C32   C     C_3   0.952522 0.000689 0.372561 -0.201289
C33   C     C_3   0.581723 0.499975 0.505866 -0.240120
C34   C     C_3   0.081717 0.999974 0.505870 -0.240174
C35   C     C_R   0.056518 0.613000 0.929273 0.574939
C36   C     C_R   0.058055 0.387681 0.929844 0.568909
C37   C     C_R   0.556519 0.113000 0.929273 0.574924
C38   C     C_R   0.558054 0.887680 0.929844 0.568917
C39   C     C_3   0.531440 0.476883 0.526697 0.498996
C40   C     C_3   0.031307 0.977307 0.526958 0.499090
C41   C     C_3   0.455500 0.476975 0.446944 -0.575536
C42   C     C_3   0.955371 0.977388 0.447206 -0.575596
C43   C     C_1   0.651804 0.499793 0.581893 0.167383
C44   C     C_1   0.151797 0.999794 0.581900 0.167209
C45   C     C_1   0.379079 0.500391 0.303753 0.249781
C46   C     C_1   0.879079 0.000385 0.303744 0.249874
C47   C     C_1   0.316569 0.500151 0.258289 0.031360
C48   C     C_1   0.816569 0.000149 0.258282 0.031323
C49   C     C_1   0.153974 0.672463 0.004015 -0.000094
C50   C     C_1   0.154426 0.329329 0.999160 0.054162
C51   C     C_1   0.653973 0.172463 0.004015 -0.000089
C52   C     C_1   0.654425 0.829329 0.999159 0.054206
C53   C     C_1   0.189509 0.703203 0.008207 0.004943
C54   C     C_1   0.189406 0.298737 0.001582 0.015389
C55   C     C_1   0.689508 0.203203 0.008207 0.004945
C56   C     C_1   0.689404 0.798736 0.001581 0.015405
C57   C     C_1   0.232111 0.738537 0.012451 0.016544
C58   C     C_1   0.232161 0.263595 0.005581 0.017709
C59   C     C_1   0.732111 0.238538 0.012453 0.016542
C60   C     C_1   0.732159 0.763595 0.005580 0.017694
C61   C     C_1   0.768385 0.268361 0.014995 0.011564
C62   C     C_1   0.769046 0.733970 0.008900 0.015711
C63   C     C_1   0.268385 0.768361 0.014993 0.011573
C64   C     C_1   0.269048 0.233971 0.008901 0.015756
C65   C     C_1   0.810098 0.303358 0.016003 -0.003590
C66   C     C_1   0.811919 0.699276 0.011597 0.009746
C67   C     C_1   0.310098 0.803358 0.016000 -0.003563
C68   C     C_1   0.311921 0.199277 0.011597 0.009812
C69   C     C_R   0.975660 0.462774 0.772125 0.518224
C70   C     C_R   0.977064 0.535756 0.772205 0.547652
C71   C     C_R   0.475659 0.962774 0.772124 0.518270
C72   C     C_R   0.477062 0.035756 0.772204 0.547691
C73   C     C_1   0.843911 0.333477 0.014187 0.009883
C74   C     C_1   0.847099 0.669492 0.011629 0.026451
C75   C     C_1   0.343911 0.833477 0.014186 0.009951
C76   C     C_1   0.347100 0.169492 0.011629 0.026509
C77   C     C_1   0.017963 0.500421 0.344350 0.044395
C78   C     C_1   0.517964 0.000421 0.344350 0.044379
C79   C     C_1   0.013471 0.500859 0.404530 -0.036305
C80   C     C_1   0.513471 0.000859 0.404530 -0.036295
C81   C     C_1   0.005357 0.501449 0.472888 0.005980
C82   C     C_1   0.505358 0.001449 0.472888 0.006005
C83   C     C_1   0.997568 0.501783 0.530531 0.000617
C84   C     C_1   0.497569 0.001782 0.530531 0.000660
C85   C     C_1   0.988909 0.501722 0.598475 -0.020881
C86   C     C_1   0.488908 0.001722 0.598475 -0.020823
C87   C     C_1   0.983407 0.500975 0.657881 0.075120
C88   C     C_1   0.483406 0.000975 0.657881 0.075179
C89   C     C_R   0.200408 0.535923 0.194277 -0.056123
C90   C     C_R   0.200498 0.464133 0.194503 -0.079528
C91   C     C_R   0.700408 0.035923 0.194275 -0.056429
C92   C     C_R   0.700498 0.964133 0.194500 -0.079397
C93   C     C_R   0.115607 0.367023 0.998625 -0.065071
C94   C     C_R   0.113767 0.634434 0.999553 -0.082006
C95   C     C_R   0.615606 0.867023 0.998624 -0.065087
C96   C     C_R   0.613766 0.134434 0.999552 -0.082018
C97   C     C_R   0.980923 0.499416 0.731909 -0.274574
C98   C     C_R   0.480922 0.999416 0.731908 -0.274589
C99   C     C_R   0.242699 0.500047 0.214640 0.028945
C100  C     C_R   0.742699 0.000046 0.214636 0.028869
C101  C     C_R   0.020638 0.463228 0.226532 0.537103
C102  C     C_R   0.020331 0.536946 0.226196 0.538654
C103  C     C_R   0.520638 0.963228 0.226532 0.537098
C104  C     C_R   0.520331 0.036946 0.226196 0.538636
C105  C     C_R   0.803045 0.535642 0.776863 -0.130037
C106  C     C_R   0.805265 0.464027 0.774516 -0.070286
C107  C     C_R   0.303044 0.035642 0.776865 -0.129763
C108  C     C_R   0.305266 0.964027 0.774516 -0.070644
H1    H     H_    0.155034 0.374308 0.131831 0.151864
H2    H     H_    0.153498 0.625949 0.132437 0.153667
H3    H     H_    0.655033 0.874307 0.131831 0.151918
H4    H     H_    0.653497 0.125950 0.132436 0.153664
H5    H     H_    0.595147 0.440225 0.455216 0.094534
H6    H     H_    0.560113 0.564917 0.532647 0.095097
H7    H     H_    0.094825 0.939851 0.455909 0.094482
H8    H     H_    0.060448 0.065199 0.531901 0.095063
H9    H     H_    0.418637 0.492357 0.460495 0.257724
H10   H     H_    0.435024 0.443027 0.429074 0.256378
H11   H     H_    0.918595 0.993074 0.460578 0.257727
H12   H     H_    0.934704 0.943460 0.429728 0.256410
H13   H     H_    0.217187 0.569597 0.206120 0.129295
H14   H     H_    0.217424 0.430495 0.206769 0.119873
H15   H     H_    0.717187 0.069596 0.206116 0.129301
H16   H     H_    0.717424 0.930495 0.206766 0.120015
H17   H     H_    0.790844 0.568956 0.754829 0.155686
H18   H     H_    0.797609 0.431292 0.749529 0.166560
H19   H     H_    0.290842 0.068956 0.754833 0.155737
H20   H     H_    0.297610 0.931293 0.749528 0.166426
H21   H     H_    0.972983 0.623151 0.139266 0.197970
H22   H     H_    0.970863 0.378154 0.139362 0.196201
H23   H     H_    0.472983 0.123151 0.139266 0.197971
H24   H     H_    0.470864 0.878154 0.139363 0.196209
N1    N     N_R   0.075400 0.419050 0.040930 -0.067560
N2    N     N_R   0.075400 0.580950 0.040930 -0.072884
N3    N     N_R   0.575400 0.919050 0.040930 -0.067577
N4    N     N_R   0.575400 0.080950 0.040930 -0.072873
N5    N     N_R   0.035610 0.578860 0.956800 -0.104475
N6    N     N_R   0.035610 0.421140 0.956800 -0.114973
N7    N     N_R   0.535610 0.078860 0.956800 -0.104476
N8    N     N_R   0.535610 0.921140 0.956800 -0.114967
N9    N     N_R   0.976800 0.476930 0.840160 -0.132760
N10   N     N_R   0.976800 0.523070 0.840160 -0.147164
N11   N     N_R   0.476800 0.976930 0.840160 -0.132761
N12   N     N_R   0.476800 0.023070 0.840160 -0.147171
N13   N     N_R   0.134210 0.520980 0.157560 -0.046939
N14   N     N_R   0.134210 0.479020 0.157560 -0.042879
N15   N     N_R   0.634210 0.020980 0.157560 -0.046909
N16   N     N_R   0.634210 0.979020 0.157560 -0.042902
N17   N     N_R   0.020160 0.476910 0.158980 -0.120316
N18   N     N_R   0.020160 0.523090 0.158980 -0.120116
N19   N     N_R   0.520160 0.976910 0.158980 -0.120314
N20   N     N_R   0.520160 0.023090 0.158980 -0.120110
N21   N     N_R   0.864590 0.520950 0.843300 -0.059236
N22   N     N_R   0.864590 0.479050 0.843300 -0.056973
N23   N     N_R   0.364590 0.020950 0.843300 -0.059273
N24   N     N_R   0.364590 0.979050 0.843300 -0.056934
N25   N     N_R   0.919150 0.419020 0.955970 -0.109238
N26   N     N_R   0.919150 0.580980 0.955970 -0.107979
N27   N     N_R   0.419150 0.919020 0.955970 -0.109237
N28   N     N_R   0.419150 0.080980 0.955970 -0.107994
N29   N     N_R   0.965610 0.578840 0.046310 -0.067325
N30   N     N_R   0.965610 0.421160 0.046310 -0.065991
N31   N     N_R   0.465610 0.078840 0.046310 -0.067321
N32   N     N_R   0.465610 0.921160 0.046310 -0.065989
Ni1   Ni    Ni4+2 0.047340 0.448440 0.099050 0.236590
Ni2   Ni    Ni4+2 0.047340 0.551560 0.099050 0.239121
Ni3   Ni    Ni4+2 0.547340 0.948440 0.099050 0.236600
Ni4   Ni    Ni4+2 0.547340 0.051560 0.099050 0.239107
Ni5   Ni    Ni4+2 0.950540 0.549450 0.900950 0.217061
Ni6   Ni    Ni4+2 0.950540 0.450550 0.900950 0.223936
Ni7   Ni    Ni4+2 0.450540 0.049450 0.900950 0.217069
Ni8   Ni    Ni4+2 0.450540 0.950550 0.900950 0.223923
Br1   Br    Br    0.464600 0.587324 0.310148 -0.370679
Br2   Br    Br    0.494741 0.494798 0.251049 -0.360196
Br3   Br    Br    0.965082 0.086858 0.309141 -0.370314
Br4   Br    Br    0.994708 0.993803 0.251114 -0.360211
Br5   Br    Br    0.469669 0.413302 0.322323 -0.513270
Br6   Br    Br    0.421452 0.579886 0.434161 -0.501028
Br7   Br    Br    0.969208 0.912889 0.323346 -0.513421
Br8   Br    Br    0.921865 0.080420 0.433205 -0.501141
Br9   Br    Br    0.532322 0.505615 0.619387 -0.462174
Br10  Br    Br    0.560514 0.416423 0.566009 -0.509624
Br11  Br    Br    0.032348 0.006575 0.619318 -0.461823
Br12  Br    Br    0.060041 0.916903 0.566951 -0.509634
O1    O     O_3   0.012189 0.631726 0.850559 -0.627988
C109  C     C_3   0.050097 0.653039 0.821911 -0.118209
H25   H     H_    0.099869 0.635670 0.840508 0.116623
H26   H     H_    0.016513 0.653969 0.751999 0.189018
H27   H     H_    0.060354 0.687619 0.843275 0.123783
O2    O     O_3   0.018901 0.367914 0.851984 -0.627976
C110  C     C_3   0.957113 0.350074 0.840745 -0.064745
H28   H     H_    0.918785 0.376485 0.827193 0.184839
H29   H     H_    0.968435 0.330147 0.895881 0.099426
H30   H     H_    0.931994 0.328106 0.785055 0.159727
O3    O     O_3   0.512190 0.131725 0.850557 -0.627980
C111  C     C_3   0.550100 0.153036 0.821910 -0.118201
H31   H     H_    0.599872 0.135667 0.840510 0.116622
H32   H     H_    0.516517 0.153965 0.751997 0.189014
H33   H     H_    0.560356 0.187617 0.843271 0.123778
O4    O     O_3   0.518899 0.867914 0.851984 -0.627957
C112  C     C_3   0.457111 0.850075 0.840746 -0.064893
H34   H     H_    0.418784 0.876486 0.827196 0.184840
H35   H     H_    0.468434 0.830147 0.895881 0.099458
H36   H     H_    0.431991 0.828107 0.785055 0.159667
O5    O     O_3   0.945430 0.423046 0.733658 -0.605201
C113  C     C_3   0.971809 0.406920 0.686998 -0.074803
H37   H     H_    0.029036 0.414241 0.717190 0.115265
H38   H     H_    0.939296 0.419268 0.621251 0.111730
H39   H     H_    0.966229 0.370776 0.683121 0.170974
O6    O     O_3   0.958331 0.576264 0.734081 -0.587960
C114  C     C_3   0.889199 0.586552 0.709756 -0.122989
H40   H     H_    0.871301 0.615938 0.668734 0.153518
H41   H     H_    0.888892 0.595113 0.765942 0.169817
H42   H     H_    0.851235 0.559662 0.672579 0.101511
O7    O     O_3   0.445428 0.923045 0.733658 -0.605209
C115  C     C_3   0.471805 0.906920 0.686996 -0.075058
H43   H     H_    0.529032 0.914240 0.717186 0.115317
H44   H     H_    0.439292 0.919268 0.621249 0.111744
H45   H     H_    0.466224 0.870776 0.683118 0.170946
O8    O     O_3   0.458327 0.076264 0.734078 -0.587911
C116  C     C_3   0.389195 0.086550 0.709754 -0.123219
H46   H     H_    0.371294 0.115936 0.668728 0.153421
H47   H     H_    0.388889 0.095113 0.765940 0.169857
H48   H     H_    0.351232 0.059660 0.672580 0.101449
O9    O     O_3   0.043949 0.421787 0.260563 -0.612289
C117  C     C_3   0.007203 0.405706 0.295138 -0.230715
H49   H     H_    0.951119 0.416951 0.260394 0.117701
H50   H     H_    0.036089 0.414225 0.363028 0.172112
H51   H     H_    0.006080 0.369449 0.291287 0.167664
O10   O     O_3   0.043169 0.578503 0.259793 -0.611750
C118  C     C_3   0.005295 0.594835 0.292779 -0.215124
H52   H     H_    0.033587 0.586865 0.360836 0.173815
H53   H     H_    0.949346 0.583301 0.257568 0.116526
H54   H     H_    0.003691 0.631058 0.287954 0.166997
O11   O     O_3   0.543950 0.921787 0.260563 -0.612288
C119  C     C_3   0.507204 0.905706 0.295138 -0.230711
H55   H     H_    0.451120 0.916951 0.260394 0.117718
H56   H     H_    0.536090 0.914225 0.363028 0.172098
H57   H     H_    0.506081 0.869449 0.291288 0.167668
O12   O     O_3   0.543170 0.078504 0.259793 -0.611784
C120  C     C_3   0.505295 0.094835 0.292780 -0.215129
H58   H     H_    0.533588 0.086865 0.360837 0.173807
H59   H     H_    0.449346 0.083301 0.257568 0.116563
H60   H     H_    0.503692 0.131059 0.287954 0.167009
O13   O     O_3   0.821464 0.374726 0.852611 -0.669516
C121  C     C_3   0.751824 0.374245 0.833010 -0.191200
H61   H     H_    0.740551 0.402182 0.861479 0.135351
H62   H     H_    0.740499 0.342570 0.851492 0.158391
H63   H     H_    0.714549 0.377114 0.763604 0.202752
O14   O     O_3   0.827989 0.629000 0.852806 -0.644909
C122  C     C_3   0.854242 0.668459 0.842179 -0.280067
H64   H     H_    0.823986 0.676189 0.773866 0.176495
H65   H     H_    0.910998 0.665848 0.864798 0.170232
H66   H     H_    0.846489 0.696030 0.874176 0.162269
O15   O     O_3   0.321461 0.874723 0.852619 -0.669509
C123  C     C_3   0.251811 0.874313 0.832992 -0.191465
H67   H     H_    0.240560 0.902316 0.861350 0.135524
H68   H     H_    0.240441 0.842687 0.851577 0.158387
H69   H     H_    0.214554 0.877122 0.763572 0.202619
O16   O     O_3   0.327995 0.129002 0.852807 -0.644803
C124  C     C_3   0.354253 0.168461 0.842187 -0.279802
H70   H     H_    0.324003 0.176192 0.773874 0.176532
H71   H     H_    0.411011 0.165848 0.864811 0.170146
H72   H     H_    0.346500 0.196032 0.874182 0.162235
O17   O     O_3   0.602439 0.569411 0.458878 -0.518072
C125  C     C_3   0.635524 0.606694 0.509701 -0.052821
H73   H     H_    0.670546 0.597474 0.577408 0.087817
H74   H     H_    0.595568 0.631236 0.500195 0.145248
H75   H     H_    0.668958 0.622071 0.491022 0.156387
O18   O     O_3   0.626438 0.494412 0.415534 -0.523157
C126  C     C_3   0.670470 0.462940 0.412719 -0.058276
H76   H     H_    0.638680 0.437207 0.364922 0.150726
H77   H     H_    0.706825 0.448012 0.475957 0.099834
H78   H     H_    0.703276 0.479471 0.394279 0.160200
O19   O     O_3   0.102815 0.069010 0.458103 -0.517996
C127  C     C_3   0.136189 0.106348 0.508600 -0.052823
H79   H     H_    0.171149 0.097268 0.576387 0.087550
H80   H     H_    0.096422 0.131097 0.498885 0.145133
H81   H     H_    0.169733 0.121408 0.489779 0.156412
O20   O     O_3   0.126399 0.993619 0.415604 -0.523146
C128  C     C_3   0.170285 0.961875 0.413185 -0.058155
H82   H     H_    0.138375 0.936043 0.365695 0.150684
H83   H     H_    0.206559 0.947112 0.476604 0.099813
H84   H     H_    0.203181 0.978103 0.394562 0.160179

loop_
_geom_bond_atom_site_label_1
_geom_bond_atom_site_label_2
_ccdc_geom_bond_type
C126  H78   S    
C105  N21   A    
C21   C26   S    
O2    C110  S    
C55   C59   S    
N6    Ni6   S    
C90   H14   S    
C112  H34   S    
N15   N16   A    
C115  H45   S    
C128  H83   S    
N2    N5    A    
C91   N15   A    
N13   N14   A    
C14   C103  A    
C49   C94   S    
C47   C99   S    
C122  H64   S    
C39   C41   S    
C72   C98   A    
O5    C113  S    
C128  H84   S    
C89   N13   A    
C21   C31   S    
N12   Ni7   S    
N22   Ni6   S    
C8    C20   A    
C89   C99   A    
C34   C40   S    
C37   O3    S    
C15   C106  A    
C60   C62   T    
C36   N6    A    
C115  H44   S    
N11   Ni8   S    
C116  H48   S    
C25   H5    S    
C92   H16   S    
C124  H70   S    
C71   O7    S    
C42   H11   S    
C122  H65   S    
C7    N27   A    
C10   C17   A    
C16   C30   S    
N11   N12   A    
C66   C74   T    
C123  H69   S    
C72   N12   A    
C65   C73   T    
C119  H55   S    
C20   C76   S    
C52   C95   S    
C101  O9    S    
C120  H58   S    
C45   C47   T    
C114  H41   S    
O12   C120  S    
C82   C84   T    
C35   O1    S    
C28   H8    S    
N26   N29   A    
C1    H1    S    
C4    C96   A    
C36   C93   A    
O6    C114  S    
O19   C127  S    
C5    N25   A    
C3    H3    S    
O4    C112  S    
C106  N22   A    
C22   C25   S    
C123  H68   S    
C38   C95   A    
C103  O11   S    
O11   C119  S    
N2    Ni2   S    
C24   Br4   S    
C15   C29   S    
C69   C97   A    
C41   H10   S    
C12   H24   S    
O17   C125  S    
N5    Ni5   S    
N29   Ni2   S    
C16   C107  A    
C70   C97   A    
C103  N19   A    
C51   C96   S    
C4    N4    A    
C26   O17   S    
C40   Br12  S    
C40   C42   S    
C4    H4    S    
C109  H25   S    
C28   C34   S    
N1    N6    A    
C10   N30   A    
C91   H15   S    
O13   C121  S    
C29   C43   T    
C17   C73   S    
C112  H35   S    
C30   C44   T    
C32   C46   S    
C111  H33   S    
C1    N1    A    
O8    C116  S    
C22   Br2   S    
C57   C63   T    
N23   N24   A    
C13   C77   S    
N13   Ni2   S    
C85   C87   T    
C27   C34   S    
C58   C64   T    
N3    N8    A    
C6    C18   A    
C71   C98   A    
C121  H62   S    
C11   C20   A    
C70   N10   A    
N18   Ni2   S    
C59   C61   T    
C22   C31   S    
C6    O14   S    
C52   C56   T    
C104  O12   S    
C33   C43   S    
N28   N31   A    
O9    C117  S    
C2    C94   A    
C48   C100  S    
N17   Ni1   S    
C115  H43   S    
C111  H32   S    
N27   Ni8   S    
C79   C81   S    
C62   C66   S    
C113  H37   S    
C111  H31   S    
C28   O19   S    
N4    Ni4   S    
C51   C55   T    
C128  H82   S    
N24   Ni8   S    
C1    C93   A    
C56   C60   S    
C37   C96   A    
C11   H23   S    
C120  H59   S    
N4    N7    A    
C8    O16   S    
O7    C115  S    
C24   C32   S    
C63   C67   S    
C116  H46   S    
N1    Ni1   S    
N25   Ni6   S    
C12   N32   A    
N30   Ni1   S    
C81   C83   T    
C26   C33   S    
C14   C104  A    
C114  H40   S    
C108  N24   A    
C127  H81   S    
C88   C98   S    
N19   N20   A    
C24   C27   S    
C123  H67   S    
C24   Br7   S    
C11   N31   A    
C110  H29   S    
C77   C79   T    
C34   C44   S    
C118  H53   S    
C40   Br11  S    
C33   C39   S    
C23   C28   S    
C108  H20   S    
C9    N29   A    
C78   C80   T    
C23   Br8   S    
C39   Br9   S    
C125  H74   S    
C102  N18   A    
N10   Ni5   S    
C80   C82   S    
C21   Br6   S    
C83   C85   S    
N14   Ni1   S    
C127  H80   S    
C117  H49   S    
C16   C108  A    
C7    C19   A    
C31   C45   S    
C91   C100  A    
C112  H36   S    
C38   O4    S    
C67   C75   T    
N20   Ni4   S    
C109  H26   S    
O15   C123  S    
C8    N28   A    
C64   C68   S    
C90   C99   A    
C50   C54   T    
C92   C100  A    
C124  H71   S    
C54   C58   S    
C35   C94   A    
C26   H6    S    
C126  H77   S    
C121  H61   S    
C2    H2    S    
C38   N8    A    
C31   C41   S    
C7    O15   S    
O18   C126  S    
C69   O5    S    
N32   Ni3   S    
C104  N20   A    
C25   O18   S    
C23   Br3   S    
C5    O13   S    
O16   C124  S    
C122  H66   S    
C125  H75   S    
C53   C57   S    
C6    N26   A    
C124  H72   S    
C2    N2    A    
N26   Ni5   S    
C27   O20   S    
C36   O2    S    
N19   Ni3   S    
C9    H21   S    
C68   C76   T    
C117  H51   S    
C106  H18   S    
C21   Br1   S    
N15   Ni4   S    
C119  H57   S    
C105  H17   S    
C116  H47   S    
C120  H60   S    
C41   H9    S    
N7    Ni7   S    
C15   C105  A    
C109  H27   S    
C19   C75   S    
N31   Ni4   S    
C13   C102  A    
C110  H30   S    
C107  H19   S    
O20   C128  S    
C90   N14   A    
C50   C93   S    
N9    N10   A    
C23   C32   S    
C92   N16   A    
C113  H39   S    
C42   H12   S    
O1    C109  S    
C32   C42   S    
C71   N11   A    
C89   H13   S    
C49   C53   T    
C12   C19   A    
C101  N17   A    
N9    Ni6   S    
N28   Ni7   S    
C119  H56   S    
C118  H54   S    
C86   C88   T    
C14   C78   S    
C61   C65   S    
O10   C118  S    
C110  H28   S    
C107  N23   A    
O14   C122  S    
C39   Br10  S    
C3    N3    A    
C125  H73   S    
N8    Ni8   S    
O3    C111  S    
C46   C48   T    
N23   Ni7   S    
C9    C18   A    
C114  H42   S    
C5    C17   A    
C127  H79   S    
C18   C74   S    
C10   H22   S    
C37   N7    A    
C69   N9    A    
N21   Ni5   S    
C118  H52   S    
C102  O10   S    
N16   Ni3   S    
N3    Ni3   S    
N27   N32   A    
C84   C86   S    
C72   O8    S    
C3    C95   A    
C70   O6    S    
C22   Br5   S    
N21   N22   A    
N17   N18   A    
C113  H38   S    
C13   C101  A    
N25   N30   A    
C35   N5    A    
C117  H50   S    
C126  H76   S    
C25   C33   S    
C87   C97   S    
C121  H63   S    
C27   H7    S    
