data_mof_unit_23742.cif
_audit_creation_date              2012-12-10T17:36:45-0500
_audit_creation_method            fapswitch 2.2
_symmetry_space_group_name_H-M    P1
_symmetry_Int_Tables_number       1
_space_group_crystal_system       triclinic
_cell_length_a                    12.055313
_cell_length_b                    12.884176
_cell_length_c                    15.705322
_cell_angle_alpha                 91.151506
_cell_angle_beta                  87.4301
_cell_angle_gamma                 93.901386
_cell_volume                      2430.9379253

loop_
_atom_site_label
_atom_site_type_symbol
_atom_type_description
_atom_site_fract_x
_atom_site_fract_y
_atom_site_fract_z
_atom_type_partial_charge
C1    C     C_R   0.522066 0.700646 0.497637 0.986757
C2    C     C_R   0.533299 0.026731 0.527236 -0.262916
C3    C     C_R   0.951206 0.412157 0.412380 -0.262230
C4    C     C_R   0.048777 0.587622 0.587767 -0.286284
C5    C     C_R   0.836169 0.419771 0.421794 -0.054498
C6    C     C_R   0.163787 0.580128 0.578246 -0.096262
C7    C     C_R   0.859610 0.535693 0.540097 0.479151
C8    C     C_R   0.140296 0.463009 0.460826 0.489414
C9    C     C_R   0.976812 0.531387 0.532480 -0.037447
C10   C     C_R   0.023161 0.468315 0.467736 -0.034951
C11   C     C_R   0.501075 0.499691 0.661842 0.889040
C12   C     C_R   0.477631 0.300468 0.499877 0.993554
C13   C     C_R   0.498872 0.499868 0.338156 0.898671
C14   C     C_3   0.495856 0.592341 0.028952 0.490199
C15   C     C_3   0.503125 0.397413 0.970871 0.490146
C16   C     C_3   0.589366 0.551238 0.971067 0.490930
C17   C     C_3   0.409596 0.438531 0.028889 0.489919
C18   C     C_1   0.502910 0.497556 0.750586 -0.145518
C19   C     C_1   0.496587 0.498252 0.249371 -0.148709
C20   C     C_3   0.404846 0.536978 0.974725 -0.493441
C21   C     C_3   0.594134 0.452795 0.025217 -0.497923
C22   C     C_3   0.500162 0.495119 0.916746 -0.087306
C23   C     C_R   0.616087 0.970443 0.562513 0.479750
C24   C     C_3   0.498811 0.494714 0.083157 -0.086988
C25   C     C_1   0.502498 0.495906 0.825850 0.092685
C26   C     C_1   0.496678 0.496434 0.174070 0.090167
C27   C     C_R   0.462986 0.190031 0.493949 -0.366191
C28   C     C_R   0.534262 0.813245 0.498296 -0.379788
C29   C     C_3   0.756307 0.641591 0.995650 -0.267540
C30   C     C_3   0.242835 0.347804 0.004497 -0.271034
C31   C     C_3   0.477083 0.765513 0.004397 -0.282204
C32   C     C_3   0.521950 0.224216 0.995183 -0.317485
C33   C     C_3   0.513756 0.194697 0.682399 -0.244512
C34   C     C_R   0.392265 0.035803 0.418954 0.464651
C35   C     C_3   0.265209 0.816953 0.484864 -0.182813
C36   C     C_3   0.433147 0.219729 0.297807 -0.235256
C37   C     C_3   0.801208 0.833834 0.499986 -0.174066
C38   C     C_3   0.685267 0.985463 0.695618 -0.178663
C39   C     C_3   0.224398 0.017517 0.350907 -0.171955
C40   C     C_R   0.623725 0.865970 0.538572 0.308958
C41   C     C_R   0.403271 0.144366 0.426977 0.332568
C42   C     C_R   0.449216 0.868422 0.465599 0.497638
C43   C     C_R   0.525095 0.132112 0.546163 0.484617
C44   C     C_R   0.457800 0.976927 0.469944 -0.274543
Cl1   Cl    Cl    0.200149 0.381609 0.382966 -0.560677
Cl2   Cl    Cl    0.799482 0.610892 0.622374 -0.565498
H1    H     H_    0.669445 0.419242 0.048302 0.175317
H2    H     H_    0.282750 0.304936 0.950467 0.183237
H3    H     H_    0.202212 0.415959 0.980952 0.163552
H4    H     H_    0.176618 0.294336 0.033916 0.187652
H5    H     H_    0.391529 0.753485 0.980796 0.161136
H6    H     H_    0.539875 0.763308 0.950402 0.184415
H7    H     H_    0.485122 0.844537 0.033755 0.185792
H8    H     H_    0.459301 0.226400 0.049288 0.189649
H9    H     H_    0.607569 0.236148 0.018673 0.166319
H10   H     H_    0.513784 0.145242 0.965739 0.180342
H11   H     H_    0.451910 0.252337 0.670497 0.129369
H12   H     H_    0.329476 0.570484 0.951696 0.176312
H13   H     H_    0.564051 0.225410 0.735931 0.217337
H14   H     H_    0.470212 0.119748 0.702889 0.131977
H15   H     H_    0.235437 0.896168 0.493448 0.127984
H16   H     H_    0.282125 0.787152 0.548652 0.128341
H17   H     H_    0.196752 0.766166 0.458240 0.177479
H18   H     H_    0.447184 0.144368 0.264581 0.167693
H19   H     H_    0.513846 0.258638 0.316675 0.121029
H20   H     H_    0.397015 0.270544 0.251627 0.216359
H21   H     H_    0.827713 0.918195 0.497278 0.158973
H22   H     H_    0.777375 0.803993 0.435864 0.140062
H23   H     H_    0.218290 0.622662 0.621503 0.146604
H24   H     H_    0.874317 0.792641 0.517931 0.185867
H25   H     H_    0.721789 0.909330 0.701789 0.203349
H26   H     H_    0.596833 0.980147 0.719948 0.110242
H27   H     H_    0.731521 0.042268 0.737169 0.179267
H28   H     H_    0.218627 0.077465 0.301835 0.209297
H29   H     H_    0.190655 0.046158 0.413696 0.130478
H30   H     H_    0.169966 0.948808 0.331970 0.160611
H31   H     H_    0.781589 0.376944 0.378727 0.147757
H32   H     H_    0.982452 0.362703 0.361596 0.203444
H33   H     H_    0.017607 0.637188 0.638497 0.206158
H34   H     H_    0.797013 0.573275 0.018805 0.161500
H35   H     H_    0.716453 0.684068 0.049931 0.183669
H36   H     H_    0.822455 0.695285 0.966415 0.188015
N1    N     N_R   0.207800 0.519340 0.515560 -0.123543
N2    N     N_R   0.792200 0.480660 0.484440 -0.126370
O1    O     O_R   0.421700 0.658830 0.504150 -0.611663
O2    O     O_3   0.319183 0.378476 0.066981 -0.594358
O3    O     O_3   0.495153 0.692464 0.066957 -0.589678
O4    O     O_3   0.503818 0.297374 0.932727 -0.611925
O5    O     O_3   0.585734 0.181082 0.610245 -0.533078
O6    O     O_3   0.359516 0.815564 0.427793 -0.526160
O7    O     O_3   0.357650 0.206308 0.368640 -0.547554
O8    O     O_3   0.713842 0.813795 0.561554 -0.542641
O9    O     O_3   0.697763 0.020466 0.610836 -0.547245
O10   O     O_3   0.335010 0.987321 0.352365 -0.561977
O11   O     O_R   0.578300 0.341170 0.495850 -0.602683
O12   O     O_R   0.609310 0.646410 0.494170 -0.556983
O13   O     O_R   0.390690 0.353590 0.505830 -0.567104
O14   O     O_R   0.406210 0.506220 0.628210 -0.653407
O15   O     O_R   0.593790 0.493780 0.371790 -0.659665
O16   O     O_R   0.593830 0.493800 0.618230 -0.535866
O17   O     O_R   0.406170 0.506200 0.381770 -0.536669
O18   O     O_3   0.679872 0.611325 0.933120 -0.584689
Zn1   Zn    Zn3+2 0.374730 0.508290 0.506660 1.018936
Zn2   Zn    Zn3+2 0.625270 0.491710 0.493340 1.025616

loop_
_geom_bond_atom_site_label_1
_geom_bond_atom_site_label_2
_ccdc_geom_bond_type
C6    H23   S    
C11   C18   S    
C16   C21   S    
C8    N1    A    
C31   H6    S    
C34   C41   A    
C43   O5    S    
N1    Zn1   S    
C11   O14   A    
C30   H2    S    
C24   C26   S    
C14   O3    S    
C36   H20   S    
C28   C40   A    
O14   Zn1   S    
C32   O4    S    
C37   H22   S    
O16   Zn2   S    
C17   C20   S    
C7    C9    A    
C39   H28   S    
C14   C24   S    
C19   C26   T    
C8    Cl1   S    
C15   C22   S    
C2    C44   A    
C22   C25   S    
C1    C28   S    
C33   H11   S    
C12   O11   A    
C39   H29   S    
C30   O2    S    
C9    C10   A    
C32   H9    S    
O1    Zn1   S    
O15   Zn2   S    
C30   H4    S    
C33   H13   S    
C37   H24   S    
C18   C25   T    
C42   C44   A    
C32   H8    S    
C1    O1    A    
C38   H26   S    
C17   C24   S    
C31   O3    S    
C13   C19   S    
C12   C27   S    
C17   O2    S    
C7    Cl2   S    
C14   C20   S    
C20   H12   S    
C34   C44   A    
C4    H33   S    
C4    C6    A    
C5    N2    A    
C36   H19   S    
C40   O8    S    
C23   O9    S    
C11   O16   A    
C42   O6    S    
C13   O15   A    
C39   O10   S    
C29   H35   S    
C33   O5    S    
C27   C41   A    
C2    C43   A    
C35   H15   S    
C39   H30   S    
C31   H7    S    
C12   O13   A    
O13   Zn1   S    
C36   O7    S    
C16   O18   S    
C41   O7    S    
C30   H3    S    
C20   C22   S    
C33   H14   S    
O12   Zn2   S    
N2    Zn2   S    
C14   C16   S    
C5    H31   S    
O11   Zn2   S    
C15   C17   S    
C38   H25   S    
C16   C22   S    
C6    N1    A    
C37   O8    S    
C8    C10   A    
C34   O10   S    
C31   H5    S    
C3    C5    A    
C29   H36   S    
C3    C10   A    
C29   H34   S    
C1    O12   A    
C37   H21   S    
C38   O9    S    
C28   C42   A    
C29   O18   S    
C7    N2    A    
C35   H16   S    
C35   O6    S    
C27   C43   A    
C15   C21   S    
O17   Zn1   S    
C21   C24   S    
C2    C23   A    
C35   H17   S    
C4    C9    A    
C36   H18   S    
C3    H32   S    
C13   O17   A    
C32   H10   S    
C23   C40   A    
C15   O4    S    
C21   H1    S    
C38   H27   S    
