data_mof_unit_68196.cif
_audit_creation_date              2012-12-11T16:32:26-0500
_audit_creation_method            fapswitch 2.2
_symmetry_space_group_name_H-M    P1
_symmetry_Int_Tables_number       1
_space_group_crystal_system       triclinic
_cell_length_a                    7.004218
_cell_length_b                    14.072181
_cell_length_c                    16.398486
_cell_angle_alpha                 90.657299
_cell_angle_beta                  90.592908
_cell_angle_gamma                 89.450439
_cell_volume                      1616.04517565

loop_
_atom_site_label
_atom_site_type_symbol
_atom_type_description
_atom_site_fract_x
_atom_site_fract_y
_atom_site_fract_z
_atom_type_partial_charge
O1    O     O_R   0.361630 0.167340 0.164570 -0.549034
O2    O     O_R   0.638370 0.832660 0.835430 -0.511062
O3    O     O_R   0.690860 0.157560 0.338690 -0.542277
O4    O     O_R   0.309140 0.842440 0.661310 -0.540484
O5    O     O_R   0.861260 0.336420 0.339380 -0.540569
O6    O     O_R   0.138740 0.663580 0.660620 -0.539503
C1    C     C_R   0.523165 0.136512 0.369195 0.668833
C2    C     C_R   0.477019 0.864146 0.631225 0.666866
O7    O     O_R   0.691330 0.156310 0.165190 -0.525849
O8    O     O_R   0.308670 0.843690 0.834810 -0.556788
O9    O     O_R   0.861730 0.335160 0.164640 -0.513900
O10   O     O_R   0.138270 0.664840 0.835360 -0.543300
C3    C     C_R   0.521749 0.126593 0.142581 0.687632
C4    C     C_R   0.478725 0.874016 0.856835 0.686359
O11   O     O_R   0.361150 0.168600 0.339320 -0.538144
O12   O     O_R   0.638850 0.831400 0.660680 -0.539664
O13   O     O_3   0.527950 0.310560 0.252000 -0.367903
O14   O     O_3   0.472050 0.689440 0.748000 -0.369042
V1    V     V_3+5 0.802770 0.240990 0.251980 1.423589
V2    V     V_3+5 0.197230 0.759010 0.748020 1.388055
O15   O     O_R   0.191450 0.346190 0.165260 -0.548484
O16   O     O_R   0.808550 0.653810 0.834740 -0.520625
C5    C     C_R   0.020743 0.367980 0.136808 0.770979
C6    C     C_R   0.978383 0.631957 0.863496 0.766936
O17   O     O_R   0.190980 0.347440 0.338770 -0.543191
O18   O     O_R   0.809020 0.652560 0.661230 -0.544678
C7    C     C_R   0.022866 0.370918 0.366557 0.659647
C8    C     C_R   0.977176 0.628995 0.633545 0.660168
V3    V     V_3+5 0.302780 0.262760 0.251980 1.391018
V4    V     V_3+5 0.697220 0.737240 0.748020 1.432467
O19   O     O_3   0.027730 0.193200 0.251960 -0.379979
O20   O     O_3   0.972270 0.806800 0.748040 -0.376534
C9    C     C_3   0.879947 0.427750 0.508432 -0.099413
C10   C     C_3   0.120317 0.572096 0.491863 -0.100716
C11   C     C_3   0.044731 0.453414 0.568804 -0.143656
C12   C     C_3   0.955611 0.546489 0.431454 -0.145172
H1    H     H_    0.082979 0.420090 0.627471 0.086462
H2    H     H_    0.918438 0.580324 0.372875 0.087187
H3    H     H_    0.779930 0.367483 0.506420 0.143681
H4    H     H_    0.220049 0.632458 0.494318 0.144140
C13   C     C_3   0.985172 0.558517 0.563446 -0.022991
C14   C     C_3   0.015032 0.441325 0.436774 -0.022541
C15   C     C_3   0.820270 0.533621 0.504192 -0.132615
C16   C     C_3   0.179999 0.466231 0.496058 -0.132578
H5    H     H_    0.671454 0.560508 0.509644 0.115401
H6    H     H_    0.328816 0.439269 0.490801 0.116003
H7    H     H_    0.177007 0.316696 0.769864 0.123298
H8    H     H_    0.827867 0.677090 0.238043 0.126623
C17   C     C_R   0.907833 0.696349 0.034931 0.361922
C18   C     C_R   0.025407 0.301456 0.966477 0.344584
C19   C     C_R   0.881776 0.726395 0.116416 0.482988
C20   C     C_R   0.077786 0.269942 0.887206 0.445513
C21   C     C_R   0.874116 0.658166 0.177536 -0.288136
C22   C     C_R   0.120457 0.337984 0.828269 -0.246655
C23   C     C_R   0.915004 0.563624 0.160838 -0.250763
C24   C     C_R   0.089335 0.434355 0.843187 -0.244064
C25   C     C_R   0.959044 0.532201 0.081263 0.037726
C26   C     C_R   0.034495 0.467805 0.920847 0.030090
C27   C     C_R   0.950884 0.598651 0.015860 -0.026475
C28   C     C_R   0.022113 0.400979 0.985194 -0.008195
C29   C     C_R   0.001792 0.434732 0.066638 -0.108673
C30   C     C_R   0.989913 0.565832 0.934608 -0.125732
H9    H     H_    0.909375 0.515306 0.211576 0.118632
H10   H     H_    0.112816 0.482411 0.793327 0.120241
C31   C     C_3   0.329915 0.011270 0.463129 -0.165351
C32   C     C_3   0.671025 0.990383 0.538020 -0.165569
C33   C     C_3   0.448691 0.918085 0.468852 0.063061
C34   C     C_3   0.552394 0.083677 0.532229 0.063212
H11   H     H_    0.187963 0.021356 0.433630 0.110710
H12   H     H_    0.812922 0.980309 0.567573 0.110583
C35   C     C_3   0.487760 0.935808 0.560500 -0.054324
C36   C     C_3   0.513067 0.065775 0.440553 -0.054691
C37   C     C_3   0.370186 0.029427 0.555560 -0.178319
C38   C     C_3   0.630813 0.972266 0.445594 -0.178081
H13   H     H_    0.262442 0.054303 0.600414 0.098581
H14   H     H_    0.738576 0.947381 0.400752 0.098242
H15   H     H_    0.416159 0.791940 0.222368 0.134466
H16   H     H_    0.521320 0.213165 0.776312 0.132117
C39   C     C_R   0.538973 0.198245 0.982403 -0.119369
C40   C     C_R   0.463223 0.803048 0.017118 -0.127467
C41   C     C_R   0.538115 0.241021 0.907096 0.513174
C42   C     C_R   0.436951 0.761253 0.091762 0.492036
C43   C     C_R   0.528583 0.182734 0.836467 -0.194240
C44   C     C_R   0.430245 0.820653 0.162028 -0.192096
C45   C     C_R   0.519800 0.083414 0.843241 -0.173647
C46   C     C_R   0.452901 0.919383 0.155255 -0.173431
C47   C     C_R   0.514050 0.039996 0.920481 0.073517
C48   C     C_R   0.480972 0.961487 0.078504 0.081645
C49   C     C_R   0.526312 0.099103 0.991385 -0.021999
C50   C     C_R   0.478406 0.901882 0.007875 0.016903
C51   C     C_R   0.490916 0.940289 0.928812 -0.154279
C52   C     C_R   0.512020 0.060566 0.070437 -0.175918
H17   H     H_    0.541861 0.245926 0.034623 0.154067
H18   H     H_    0.470796 0.754845 0.965323 0.151488
H19   H     H_    0.510269 0.041330 0.787675 0.096112
H20   H     H_    0.451884 0.962055 0.210623 0.097618
O21   O     O_3   0.525320 0.339830 0.909068 -0.556363
C53   C     C_3   0.599633 0.382365 0.839677 -0.239673
H21   H     H_    0.490449 0.383333 0.790547 0.147034
H22   H     H_    0.733426 0.346985 0.819775 0.128669
H23   H     H_    0.633545 0.457361 0.854826 0.178445
O22   O     O_3   0.432414 0.662188 0.089112 -0.558729
C54   C     C_3   0.385309 0.620794 0.163092 -0.257328
H24   H     H_    0.251269 0.651989 0.186628 0.137491
H25   H     H_    0.504452 0.627960 0.207387 0.157499
H26   H     H_    0.362100 0.543766 0.152557 0.180373
O23   O     O_3   0.858904 0.759839 0.974162 -0.554028
C55   C     C_3   0.003662 0.827455 0.965878 -0.154197
H27   H     H_    0.138476 0.790856 0.951521 0.120490
H28   H     H_    0.021985 0.873707 0.020503 0.147774
H29   H     H_    0.966372 0.874452 0.914213 0.168338
O24   O     O_3   0.935654 0.240996 0.020740 -0.571793
C56   C     C_3   0.029155 0.152904 0.031414 -0.114709
H30   H     H_    0.184019 0.157581 0.022524 0.135710
H31   H     H_    0.964544 0.097999 0.990870 0.163331
H32   H     H_    0.008544 0.129347 0.094802 0.158450
O25   O     O_3   0.835130 0.821397 0.130965 -0.546280
C57   C     C_3   0.913666 0.856557 0.204743 -0.307264
H33   H     H_    0.062632 0.831529 0.214636 0.138435
H34   H     H_    0.821683 0.838237 0.256920 0.145510
H35   H     H_    0.917250 0.935236 0.201708 0.166601
O26   O     O_3   0.106293 0.173216 0.872678 -0.565103
C58   C     C_3   0.033435 0.143008 0.796511 -0.286852
H36   H     H_    0.136093 0.157912 0.747252 0.137571
H37   H     H_    0.890920 0.174482 0.783710 0.151598
H38   H     H_    0.015438 0.064813 0.798007 0.164908
C59   C     C_R   0.399149 0.826307 0.428293 0.089541
C60   C     C_R   0.216452 0.813500 0.395027 -0.145999
C61   C     C_R   0.173048 0.729741 0.353863 -0.153896
C62   C     C_R   0.310212 0.657776 0.345838 -0.130299
C63   C     C_R   0.493452 0.670594 0.377600 -0.158462
C64   C     C_R   0.538300 0.754485 0.419509 -0.157766
H39   H     H_    0.106246 0.867339 0.401285 0.093218
H40   H     H_    0.030766 0.720131 0.330922 0.102717
H41   H     H_    0.272262 0.590459 0.317895 0.109080
H42   H     H_    0.598422 0.614777 0.370304 0.111107
H43   H     H_    0.680917 0.763754 0.444354 0.107385
C65   C     C_R   0.602849 0.175575 0.572700 0.089145
C66   C     C_R   0.786255 0.188495 0.605331 -0.147870
C67   C     C_R   0.829915 0.271916 0.647162 -0.150827
C68   C     C_R   0.692343 0.343369 0.656543 -0.124792
C69   C     C_R   0.509014 0.330918 0.624596 -0.163222
C70   C     C_R   0.463848 0.247356 0.582169 -0.159870
H44   H     H_    0.896566 0.134831 0.598350 0.093032
H45   H     H_    0.972451 0.281622 0.670227 0.100607
H46   H     H_    0.730305 0.410057 0.685612 0.106340
H47   H     H_    0.403870 0.386602 0.632401 0.110151
H48   H     H_    0.320930 0.238226 0.557611 0.108373

loop_
_geom_bond_atom_site_label_1
_geom_bond_atom_site_label_2
_ccdc_geom_bond_type
C26   C30   A    
C32   C34   S    
C47   C51   A    
O13   V3    S    
C12   C14   S    
C62   H41   S    
O4    C2    A    
V1    O19   S    
C60   C61   A    
O21   C53   S    
C58   H36   S    
C17   O23   S    
C59   C64   A    
O9    V1    S    
C9    H3    S    
C38   H14   S    
C10   H4    S    
C9    C14   S    
C11   H1    S    
C44   C46   A    
C39   H17   S    
O3    C1    A    
C65   C70   A    
C9    C11   S    
C46   C48   A    
C25   C27   A    
O12   V4    S    
C32   C38   S    
C8    C13   S    
C31   C37   S    
C55   H27   S    
O7    C3    A    
C57   H33   S    
C19   O25   S    
O5    C7    A    
C34   C65   S    
H16   C43   S    
O7    V1    S    
O6    C8    A    
C48   C52   A    
O8    V2    S    
C31   C33   S    
C23   H9    S    
C18   C20   A    
O23   C55   S    
C24   H10   S    
O3    V1    S    
O14   V4    S    
O14   V2    S    
C56   H32   S    
C34   C37   S    
C45   C47   A    
C2    O12   A    
C13   C15   S    
C70   H48   S    
C10   C13   S    
C14   C16   S    
C11   C13   S    
O1    V3    S    
O24   C56   S    
C41   C43   A    
C20   C22   A    
O11   V3    S    
C21   C23   A    
O17   V3    S    
H8    C21   S    
C22   C24   A    
C9    C15   S    
C10   C16   S    
C67   C68   A    
C36   C38   S    
C63   H42   S    
O8    C4    A    
C1    C36   S    
C39   C41   A    
C58   H38   S    
C1    O11   A    
C16   H6    S    
H15   C44   S    
C17   C19   A    
C64   H43   S    
O15   V3    S    
C68   C69   A    
C28   C29   A    
C19   C21   A    
C57   H35   S    
C31   C36   S    
C33   C59   S    
C66   H44   S    
C32   C35   S    
C34   C36   S    
O10   V2    S    
C18   O24   S    
C42   O22   S    
C54   H25   S    
C33   C38   S    
C49   C52   A    
C11   C16   S    
C15   H5    S    
C46   H20   S    
C68   H46   S    
H7    C22   S    
C40   C42   A    
C43   C45   A    
C48   C50   A    
O18   V4    S    
C42   C44   A    
O15   C5    A    
C3    C52   S    
O16   C6    A    
O1    C3    A    
C37   H13   S    
C40   H18   S    
C59   C60   A    
C27   C30   A    
C35   C37   S    
C56   H30   S    
V2    O20   S    
C2    C35   S    
C6    C30   S    
O16   V4    S    
O18   C8    A    
C69   H47   S    
C67   H45   S    
C20   O26   S    
C66   C67   A    
C55   H28   S    
C25   C29   A    
O5    V1    S    
O17   C7    A    
C53   H23   S    
O6    V2    S    
O10   C6    A    
C53   H22   S    
C17   C27   A    
C55   H29   S    
O2    V4    S    
C18   C28   A    
C23   C25   A    
C62   C63   A    
C61   C62   A    
V3    O19   S    
O25   C57   S    
C12   H2    S    
V4    O20   S    
C45   H19   S    
C7    C14   S    
C50   C51   A    
C32   H12   S    
C41   O21   S    
C31   H11   S    
O9    C5    A    
O13   V1    S    
C10   C12   S    
C24   C26   A    
C54   H26   S    
C33   C35   S    
C40   C50   A    
O22   C54   S    
O2    C4    A    
C57   H34   S    
C4    C51   S    
C39   C49   A    
C58   H37   S    
C65   C66   A    
C61   H40   S    
O4    V2    S    
C5    C29   S    
C53   H21   S    
C54   H24   S    
C47   C49   A    
C69   C70   A    
C12   C15   S    
O26   C58   S    
C60   H39   S    
C26   C28   A    
C63   C64   A    
C56   H31   S    
