data_mof_unit_52456.cif
_audit_creation_date              2012-12-10T18:43:43-0500
_audit_creation_method            fapswitch 2.2
_symmetry_space_group_name_H-M    P1
_symmetry_Int_Tables_number       1
_space_group_crystal_system       triclinic
_cell_length_a                    10.441085
_cell_length_b                    10.654146
_cell_length_c                    9.924237
_cell_angle_alpha                 90.926909
_cell_angle_beta                  104.45873
_cell_angle_gamma                 91.730792
_cell_volume                      1068.20635096

loop_
_atom_site_label
_atom_site_type_symbol
_atom_type_description
_atom_site_fract_x
_atom_site_fract_y
_atom_site_fract_z
_atom_type_partial_charge
C1    C     C_R   0.497987 0.260234 0.498710 0.952529
C2    C     C_R   0.502496 0.739771 0.501515 0.935860
C3    C     C_R   0.255553 0.502167 0.441577 0.911179
C4    C     C_R   0.744048 0.502013 0.558926 0.904895
C5    C     C_R   0.579506 0.582492 0.096061 0.653363
C6    C     C_R   0.419478 0.418683 0.903502 0.644234
C7    C     C_R   0.583713 0.580839 0.953731 -0.070963
C8    C     C_R   0.421905 0.414885 0.047133 -0.069147
C9    C     C_2   0.112255 0.522216 0.412889 0.005160
C10   C     C_2   0.888421 0.518270 0.592719 -0.034941
C11   C     C_2   0.074121 0.598561 0.504864 -0.235554
C12   C     C_2   0.936733 0.599755 0.513391 -0.209756
C13   C     C_R   0.577834 0.066631 0.426875 -0.386453
C14   C     C_R   0.424839 0.933478 0.575674 -0.373012
C15   C     C_R   0.581361 0.937984 0.429278 0.676337
C16   C     C_R   0.420725 0.062076 0.572579 0.670047
C17   C     C_R   0.504167 0.872317 0.503260 -0.260715
C18   C     C_R   0.497320 0.127716 0.497884 -0.264237
H1    H     H_    0.870366 0.654805 0.436352 0.235105
H2    H     H_    0.146443 0.650355 0.586227 0.173228
H3    H     H_    0.639588 0.118599 0.372543 0.195535
H4    H     H_    0.364269 0.881570 0.631449 0.196988
N1    N     N_R   0.499970 0.499970 0.857200 -0.183500
N2    N     N_R   0.500030 0.500030 0.142800 -0.177909
O1    O     O_R   0.499990 0.316750 0.614620 -0.519513
O2    O     O_R   0.500010 0.683250 0.385380 -0.519233
O3    O     O_R   0.499990 0.316780 0.385290 -0.646151
O4    O     O_R   0.500010 0.683220 0.614710 -0.668754
O5    O     O_R   0.317810 0.500000 0.571850 -0.574641
O6    O     O_R   0.682190 0.500000 0.428150 -0.581468
O7    O     O_R   0.317810 0.500030 0.342520 -0.634900
O8    O     O_R   0.682190 0.499970 0.657480 -0.625207
Zn1   Zn    Zn3+2 0.500000 0.499980 0.653120 0.986548
Zn2   Zn    Zn3+2 0.500000 0.500020 0.346880 0.986673
F1    F     F_    0.656646 0.665888 0.188212 -0.615886
F2    F     F_    0.337423 0.339295 0.810279 -0.610752
C19   C     C_3   0.979487 0.441002 0.702627 -0.375540
C20   C     C_3   0.910467 0.331152 0.756821 -0.839300
H5    H     H_    0.842995 0.365165 0.818628 0.265758
H6    H     H_    0.854033 0.270004 0.668898 0.253085
H7    H     H_    0.985987 0.274104 0.825901 0.262571
H8    H     H_    0.056774 0.400002 0.657739 0.268827
H9    H     H_    0.030065 0.503982 0.791559 0.214743
C21   C     C_3   0.008554 0.446719 0.303725 -0.370796
C22   C     C_3   0.061273 0.373118 0.197947 -0.914722
H10   H     H_    0.111691 0.438138 0.139871 0.269914
H11   H     H_    0.128859 0.300827 0.251316 0.263652
H12   H     H_    0.977504 0.324437 0.121937 0.257826
H13   H     H_    0.955825 0.379463 0.357456 0.230425
H14   H     H_    0.934517 0.511595 0.245817 0.234301
C23   C     C_3   0.681957 0.671265 0.913812 -0.267300
C24   C     C_3   0.825399 0.640324 0.981571 -0.838231
H15   H     H_    0.853330 0.671524 0.092430 0.294724
H16   H     H_    0.840081 0.538015 0.973725 0.252801
H17   H     H_    0.892596 0.690740 0.928154 0.239796
H18   H     H_    0.672278 0.671357 0.802188 0.253968
H19   H     H_    0.663546 0.768628 0.944312 0.219022
C25   C     C_3   0.339073 0.312062 0.089421 -0.326445
C26   C     C_3   0.401544 0.184462 0.086795 -0.742936
H20   H     H_    0.397707 0.154009 0.978305 0.301915
H21   H     H_    0.506393 0.189385 0.147658 0.255688
H22   H     H_    0.346538 0.113101 0.132903 0.235850
H23   H     H_    0.325174 0.330282 0.193028 0.254435
H24   H     H_    0.238426 0.307902 0.017712 0.215002
F3    F     F_    0.662004 0.878098 0.363030 -0.618327
F4    F     F_    0.340386 0.121950 0.639256 -0.615695

loop_
_geom_bond_atom_site_label_1
_geom_bond_atom_site_label_2
_ccdc_geom_bond_type
C21   H13   S    
C19   H9    S    
C3    O7    A    
C11   C12   S    
C1    O1    A    
C19   C20   S    
C23   H19   S    
C14   C16   A    
C6    C8    A    
C24   H17   S    
O8    Zn1   S    
C14   H4    S    
O1    Zn1   S    
C13   C15   A    
O7    Zn2   S    
C7    C23   S    
C26   H20   S    
C2    O2    A    
C22   H10   S    
C21   C22   S    
C2    C17   S    
C20   H6    S    
C9    C11   D    
C14   C17   A    
C3    O5    A    
C1    C18   S    
C4    O8    A    
C5    N2    A    
C10   C12   D    
C13   C18   A    
C10   C19   S    
C3    C9    S    
C6    N1    A    
C5    F1    S    
C12   H1    S    
C16   C18   A    
C8    N2    A    
C6    F2    S    
O4    Zn1   S    
C5    C7    A    
C22   H11   S    
O3    Zn2   S    
C25   H24   S    
C20   H5    S    
C7    N1    A    
C11   H2    S    
C26   H21   S    
C16   F4    S    
O6    Zn2   S    
C13   H3    S    
C23   C24   S    
C15   F3    S    
O5    Zn1   S    
C25   H23   S    
C24   H15   S    
N1    Zn1   S    
C20   H7    S    
C1    O3    A    
C23   H18   S    
C22   H12   S    
C21   H14   S    
C19   H8    S    
C15   C17   A    
C9    C21   S    
C2    O4    A    
C8    C25   S    
C25   C26   S    
C4    C10   S    
O2    Zn2   S    
C4    O6    A    
C24   H16   S    
C26   H22   S    
N2    Zn2   S    
