data_mof_unit_44378.cif
_audit_creation_date              2012-10-26T21:25:53-0400
_audit_creation_method            fapswitch 2.2
_symmetry_space_group_name_H-M    P1
_symmetry_Int_Tables_number       1
_space_group_crystal_system       triclinic
_cell_length_a                    10.921864
_cell_length_b                    10.926755
_cell_length_c                    12.704592
_cell_angle_alpha                 91.797932
_cell_angle_beta                  90.696191
_cell_angle_gamma                 89.59932
_cell_volume                      1515.28131723

loop_
_atom_site_label
_atom_site_type_symbol
_atom_type_description
_atom_site_fract_x
_atom_site_fract_y
_atom_site_fract_z
_atom_type_partial_charge
C1    C     C_R   0.261835 0.502189 0.502583 0.596688
C2    C     C_R   0.823476 0.577556 0.242570 0.347029
C3    C     C_R   0.111256 0.539080 0.708260 -0.037030
C4    C     C_R   0.887699 0.481087 0.290567 -0.040007
C5    C     C_R   0.075375 0.643889 0.767618 -0.111862
C6    C     C_R   0.927730 0.380964 0.227298 -0.126606
C7    C     C_R   0.091920 0.651184 0.876834 0.201628
C8    C     C_R   0.909907 0.378213 0.118202 0.193143
C9    C     C_R   0.145462 0.551956 0.928396 -0.151391
C10   C     C_R   0.848624 0.476125 0.070974 -0.158021
C11   C     C_R   0.933170 0.523065 0.590717 -0.175111
C12   C     C_R   0.738077 0.502514 0.497225 0.603748
C13   C     C_R   0.066497 0.495476 0.408078 -0.168690
C14   C     C_R   0.871468 0.508278 0.493521 0.028401
C15   C     C_R   0.128237 0.505801 0.505665 0.025937
C16   C     C_R   0.501941 0.261795 0.501612 0.578534
C17   C     C_R   0.500013 0.738052 0.498418 0.580090
C18   C     C_R   0.939427 0.495761 0.399677 -0.033549
C19   C     C_R   0.060227 0.522502 0.599118 -0.038194
C20   C     C_2   0.487994 0.452414 0.032584 -0.164991
C21   C     C_2   0.510460 0.544632 0.967402 -0.156623
C22   C     C_1   0.516429 0.528539 0.852403 0.155527
C23   C     C_R   0.500820 0.871532 0.496462 0.001435
C24   C     C_1   0.482828 0.469879 0.147619 0.146973
C25   C     C_R   0.743995 0.266547 0.774830 -0.091207
C26   C     C_R   0.261648 0.755036 0.211598 -0.099384
C27   C     C_R   0.703561 0.203250 0.683543 0.277489
C28   C     C_R   0.302523 0.809098 0.306920 0.269113
C29   C     C_R   0.602507 0.122864 0.688169 0.055515
C30   C     C_R   0.412115 0.877362 0.309770 0.069239
C31   C     C_R   0.550096 0.100504 0.786941 0.260413
C32   C     C_R   0.477132 0.894206 0.216206 0.283348
C33   C     C_R   0.593263 0.164138 0.877248 -0.101549
C34   C     C_R   0.505196 0.127971 0.503731 -0.003166
C35   C     C_R   0.434022 0.839413 0.121359 -0.109633
C36   C     C_R   0.688569 0.247341 0.871019 -0.198686
C37   C     C_R   0.326588 0.771150 0.119260 -0.210363
C38   C     C_R   0.547854 0.935331 0.585281 -0.143942
C39   C     C_R   0.460277 0.063824 0.414398 -0.158754
C40   C     C_3   0.839783 0.138539 0.559812 -0.032668
C41   C     C_3   0.909237 0.179372 0.464232 -0.380819
C42   C     C_3   0.162713 0.877914 0.426295 -0.032094
C43   C     C_3   0.090560 0.841017 0.521718 -0.377507
C44   C     C_3   0.347104 0.060468 0.818687 -0.013229
C45   C     C_R   0.457991 0.936633 0.409161 0.006788
C46   C     C_3   0.302969 0.018254 0.924576 -0.358254
C47   C     C_3   0.594335 0.047694 0.149056 -0.027330
C48   C     C_3   0.687585 0.142217 0.187512 -0.354529
C49   C     C_3   0.133876 0.252234 0.686656 -0.025149
C50   C     C_3   0.179531 0.169538 0.597043 -0.392437
C51   C     C_3   0.855768 0.773145 0.300443 0.012338
C52   C     C_3   0.817627 0.866014 0.384798 -0.365092
C53   C     C_R   0.550453 0.062792 0.590823 -0.006763
C54   C     C_R   0.185631 0.447792 0.870543 0.238559
C55   C     C_R   0.803444 0.574949 0.132861 0.232303
C56   C     C_R   0.168927 0.441546 0.760644 0.345191
Cu1   Cu    Cu3+1 0.492140 0.492110 0.395880 1.048342
Cu2   Cu    Cu3+1 0.507860 0.507890 0.604120 1.056596
H1    H     H_    0.719345 0.296652 0.941238 0.125922
H2    H     H_    0.180006 0.699268 0.209523 0.110535
H3    H     H_    0.552216 0.149541 0.952443 0.101023
H4    H     H_    0.484727 0.847805 0.049373 0.133301
H5    H     H_    0.585407 0.885339 0.650764 0.167443
H6    H     H_    0.424694 0.113080 0.347689 0.131861
H7    H     H_    0.156086 0.555727 0.013304 0.090677
H8    H     H_    0.836439 0.475826 0.986250 0.089455
H9    H     H_    0.065313 0.743975 0.007553 0.318619
H10   H     H_    0.942331 0.295007 0.983984 0.323476
H11   H     H_    0.791726 0.051894 0.538786 0.133828
H12   H     H_    0.295241 0.728681 0.045978 0.131177
H13   H     H_    0.906534 0.121190 0.624643 0.115501
H14   H     H_    0.955927 0.266856 0.483215 0.164583
H15   H     H_    0.980189 0.110936 0.441456 0.082190
H16   H     H_    0.844934 0.191973 0.397042 0.158384
H17   H     H_    0.097587 0.897241 0.360757 0.114802
H18   H     H_    0.213901 0.962870 0.447355 0.131141
H19   H     H_    0.153647 0.828144 0.589765 0.164989
H20   H     H_    0.021679 0.912237 0.542857 0.079522
H21   H     H_    0.041552 0.754342 0.503661 0.169496
H22   H     H_    0.281856 0.024271 0.758070 0.148430
H23   H     H_    0.028359 0.718233 0.729236 0.140429
H24   H     H_    0.342894 0.162453 0.817421 0.204310
H25   H     H_    0.364394 0.052504 0.988810 0.127427
H26   H     H_    0.209160 0.054233 0.939214 0.153889
H27   H     H_    0.300610 0.916704 0.924343 0.175755
H28   H     H_    0.504683 0.095969 0.139548 0.103284
H29   H     H_    0.624980 0.008463 0.071997 0.161978
H30   H     H_    0.779460 0.098942 0.195221 0.173931
H31   H     H_    0.692401 0.216945 0.130541 0.120011
H32   H     H_    0.660099 0.182011 0.265267 0.168995
H33   H     H_    0.237721 0.364883 0.996721 0.325325
H34   H     H_    0.979463 0.307417 0.262431 0.138843
H35   H     H_    0.745885 0.661686 0.010424 0.319560
H36   H     H_    0.041831 0.288211 0.664494 0.127723
H37   H     H_    0.124944 0.198207 0.758828 0.149666
H38   H     H_    0.276334 0.142847 0.610726 0.167668
H39   H     H_    0.123396 0.086065 0.591850 0.087628
H40   H     H_    0.173848 0.217916 0.521573 0.140154
H41   H     H_    0.849240 0.817081 0.222746 0.199649
H42   H     H_    0.952591 0.745711 0.316078 0.106441
H43   H     H_    0.828409 0.826775 0.463936 0.126128
H44   H     H_    0.875225 0.947871 0.378967 0.084867
H45   H     H_    0.881837 0.533278 0.663019 0.139436
H46   H     H_    0.720729 0.893090 0.373738 0.221759
H47   H     H_    0.117800 0.486875 0.335669 0.145333
H48   H     H_    0.523518 0.636134 0.000338 0.156544
H49   H     H_    0.474262 0.360680 0.999814 0.141386
H50   H     H_    0.818129 0.331485 0.770807 0.111236
N1    N     N_1   0.480320 0.480250 0.239400 -0.185842
N2    N     N_1   0.519680 0.519750 0.760600 -0.183270
O1    O     O_R   0.313000 0.493330 0.412070 -0.512344
O2    O     O_3   0.956852 0.280592 0.059810 -0.704119
O3    O     O_3   0.755270 0.231084 0.588731 -0.560288
O4    O     O_3   0.243441 0.781506 0.398537 -0.558692
O5    O     O_3   0.463555 0.009428 0.796160 -0.579343
O6    O     O_3   0.588890 0.953786 0.222434 -0.557125
O7    O     O_3   0.238979 0.349503 0.919398 -0.719423
O8    O     O_3   0.742864 0.672009 0.088176 -0.686767
O9    O     O_3   0.220512 0.345276 0.703895 -0.517402
O10   O     O_3   0.776366 0.672730 0.303713 -0.504368
O11   O     O_R   0.687000 0.506670 0.587930 -0.509969
O12   O     O_R   0.326280 0.506660 0.587930 -0.457168
O13   O     O_R   0.673720 0.493340 0.412070 -0.466946
O14   O     O_R   0.493370 0.312980 0.412070 -0.531971
O15   O     O_R   0.506630 0.687020 0.587930 -0.519542
O16   O     O_R   0.506650 0.326310 0.587930 -0.464472
O17   O     O_R   0.493350 0.673690 0.412070 -0.453051
O18   O     O_3   0.051029 0.754569 0.931128 -0.703345

loop_
_geom_bond_atom_site_label_1
_geom_bond_atom_site_label_2
_ccdc_geom_bond_type
C23   C45   A    
C40   H13   S    
C27   C29   A    
C14   C18   A    
C30   C45   S    
C36   H1    S    
C17   O15   A    
Cu1   O1    S    
C43   H20   S    
C15   C19   A    
C39   H6    S    
C38   C53   A    
C11   C19   A    
C42   H17   S    
C17   C23   S    
C13   C18   A    
C35   C37   A    
C44   H24   S    
C2    C55   A    
C8    O2    S    
C11   C14   A    
C43   H21   S    
C33   C36   A    
H10   O2    S    
C1    O12   A    
C16   C34   S    
C41   H16   S    
C42   O4    S    
Cu1   N1    S    
C12   O11   A    
C40   O3    S    
C44   O5    S    
C22   N2    T    
C48   H30   S    
C3    C19   S    
C1    C15   S    
C49   H36   S    
C21   H48   S    
C39   C45   A    
C20   H49   S    
C4    C18   S    
C48   H32   S    
C21   C22   S    
C31   O5    S    
C44   C46   S    
C10   H8    S    
C51   H41   S    
C47   O6    S    
C54   C56   A    
C52   H43   S    
Cu2   O12   S    
C50   H40   S    
C40   H11   S    
C51   C52   S    
C47   H28   S    
C20   C24   S    
C44   H22   S    
C4    C6    A    
C5    C7    A    
C2    O10   S    
C17   O17   A    
C6    C8    A    
C49   H37   S    
C34   C39   A    
C47   H29   S    
C2    C4    A    
C32   C35   A    
Cu1   O13   S    
C5    H23   S    
C3    C56   A    
C47   C48   S    
C52   H44   S    
Cu2   O11   S    
H33   O7    S    
C51   O10   S    
C32   O6    S    
C10   C55   A    
C28   O4    S    
Cu2   O15   S    
C41   H14   S    
C46   H26   S    
C27   O3    S    
C13   H47   S    
C40   C41   S    
C12   C14   S    
Cu2   O16   S    
C48   H31   S    
C13   C15   A    
C7    O18   S    
C56   O9    S    
C43   H19   S    
H35   O8    S    
C26   H2    S    
C38   H5    S    
C51   H42   S    
C7    C9    A    
C52   H46   S    
C31   C33   A    
C50   H39   S    
Cu2   N2    S    
C42   H18   S    
C8    C10   A    
C24   N1    T    
C3    C5    A    
Cu1   O17   S    
C26   C37   A    
C25   C27   A    
C23   C38   A    
C26   C28   A    
C46   H27   S    
C28   C30   A    
C16   O14   A    
C29   C31   A    
H9    O18   S    
C1    O1    A    
Cu1   O14   S    
C30   C32   A    
C50   H38   S    
Cu1   Cu2   S    
C49   O9    S    
C12   O13   A    
C29   C53   S    
C6    H34   S    
C35   H4    S    
C9    H7    S    
C25   C36   A    
C41   H15   S    
C46   H25   S    
C20   C21   D    
C34   C53   A    
C33   H3    S    
C49   C50   S    
C42   C43   S    
C54   O7    S    
C11   H45   S    
C9    C54   A    
C37   H12   S    
C16   O16   A    
C25   H50   S    
C55   O8    S    
