data_mof_unit_26840.cif
_audit_creation_date              2013-03-05T16:06:12-0500
_audit_creation_method            fapswitch 2.2
_symmetry_space_group_name_H-M    P1
_symmetry_Int_Tables_number       1
_space_group_crystal_system       triclinic
_cell_length_a                    6.92897
_cell_length_b                    28.849915
_cell_length_c                    32.078344
_cell_angle_alpha                 100.960828
_cell_angle_beta                  89.700945
_cell_angle_gamma                 90.446996
_cell_volume                      6295.25003271

loop_
_atom_site_label
_atom_site_type_symbol
_atom_site_description
_atom_site_fract_x
_atom_site_fract_y
_atom_site_fract_z
_atom_type_partial_charge
O1    O     O_R   0.494350 0.453170 0.452520 -0.597533
O2    O     O_R   0.820980 0.455850 0.538220 -0.567238
O3    O     O_R   0.994300 0.546830 0.547480 -0.599562
C1    C     C_R   0.651594 0.444817 0.550929 1.036833
O4    O     O_R   0.823860 0.447590 0.452270 -0.590196
O5    O     O_R   0.997200 0.538510 0.460920 -0.602567
C2    C     C_R   0.654976 0.434616 0.436614 0.952486
O6    O     O_R   0.491440 0.461490 0.539080 -0.583253
O7    O     O_3   0.661790 0.529840 0.502940 -0.286312
V1    V     V_3+5 0.935470 0.494460 0.499450 1.212369
O8    O     O_R   0.327090 0.544150 0.461780 -0.602239
C3    C     C_R   0.158962 0.554287 0.448228 0.956159
O9    O     O_R   0.324210 0.552410 0.547730 -0.602307
C4    C     C_R   0.155435 0.565280 0.563436 0.958187
V2    V     V_3+5 0.435840 0.505540 0.500550 1.184326
O10   O     O_3   0.159650 0.470160 0.497060 -0.241622
C5    C     C_R   0.201275 0.892162 0.871510 -0.030343
H1    H     H_    0.315924 0.918241 0.877326 0.182185
C6    C     C_R   0.210938 0.857354 0.834718 -0.096024
H2    H     H_    0.333321 0.857252 0.813558 0.131133
C7    C     C_R   0.066353 0.822661 0.825576 0.050191
C8    C     C_R   0.912447 0.823309 0.854366 -0.226972
H3    H     H_    0.801257 0.796317 0.848009 0.168634
C9    C     C_R   0.901326 0.857975 0.891734 0.357943
C10   C     C_R   0.045688 0.893790 0.900138 -0.329345
C11   C     C_R   0.129442 0.796909 0.747204 -0.151385
H4    H     H_    0.156920 0.833291 0.744733 0.134844
C12   C     C_R   0.143374 0.761744 0.710605 -0.086574
H5    H     H_    0.182767 0.771464 0.680680 0.131077
C13   C     C_R   0.109676 0.714243 0.712741 0.151234
C14   C     C_R   0.057754 0.702451 0.751760 -0.029881
H6    H     H_    0.030806 0.665951 0.753925 0.146916
C15   C     C_R   0.041415 0.737658 0.788284 -0.132568
H7    H     H_    0.003516 0.727530 0.818114 0.144251
C16   C     C_R   0.078474 0.785298 0.786518 0.113906
C17   C     C_R   0.300544 0.650072 0.665049 0.377650
C18   C     C_R   0.306783 0.614030 0.628559 -0.264965
H8    H     H_    0.437379 0.593612 0.621374 0.171475
C19   C     C_R   0.146628 0.603840 0.601499 -0.178852
C20   C     C_R   0.978196 0.630525 0.611291 -0.121559
H9    H     H_    0.852354 0.623603 0.591112 0.139496
C21   C     C_R   0.970646 0.666855 0.646987 -0.086169
H10   H     H_    0.839089 0.686996 0.653674 0.172108
C22   C     C_R   0.129556 0.676918 0.674244 -0.094599
C23   C     C_R   0.086945 0.656573 0.282373 0.541593
N1    N     N_R   0.123007 0.675512 0.324202 -0.170546
C24   C     C_R   0.141684 0.723482 0.337371 0.606592
C25   C     C_R   0.131825 0.754047 0.307900 -0.110850
C26   C     C_R   0.094938 0.735178 0.265016 0.006958
C27   C     C_R   0.070065 0.685976 0.252138 -0.057113
C28   C     C_R   0.154709 0.802993 0.320680 -0.046479
C29   C     C_R   0.142202 0.833683 0.291559 -0.085848
C30   C     C_R   0.111688 0.814770 0.247594 -0.130287
C31   C     C_R   0.082756 0.765377 0.234937 0.031504
C32   C     C_R   0.041753 0.745834 0.192106 -0.063237
C33   C     C_R   0.014263 0.696812 0.179836 -0.101678
C34   C     C_R   0.029482 0.667252 0.209390 -0.091763
C35   C     C_R   0.112826 0.842647 0.215385 0.552554
N2    N     N_R   0.065575 0.823097 0.174289 -0.173585
C36   C     C_R   0.028887 0.775753 0.162402 0.515364
O11   O     O_2   0.068944 0.609376 0.269918 -0.539097
O12   O     O_2   0.169219 0.741644 0.378888 -0.503717
H11   H     H_    0.177666 0.817753 0.353973 0.203798
O13   O     O_2   0.164939 0.888530 0.224418 -0.537573
O14   O     O_2   0.981527 0.757646 0.121792 -0.514628
H12   H     H_    0.982483 0.680993 0.147182 0.185607
H13   H     H_    0.008838 0.629641 0.198591 0.182549
C37   C     C_R   0.208841 0.854327 0.113911 -0.073683
C38   C     C_R   0.200258 0.884971 0.084641 -0.094544
H14   H     H_    0.318888 0.886181 0.062716 0.179576
C39   C     C_R   0.039243 0.913623 0.082855 -0.204555
C40   C     C_R   0.885696 0.911798 0.111170 -0.230135
H15   H     H_    0.761084 0.933917 0.109888 0.167046
C41   C     C_R   0.891360 0.882375 0.141531 0.453238
C42   C     C_R   0.054389 0.853087 0.142883 -0.001715
C43   C     C_R   0.310447 0.641187 0.377527 0.413127
C44   C     C_R   0.314899 0.612032 0.408171 -0.289954
H16   H     H_    0.447693 0.609381 0.425204 0.176849
C45   C     C_R   0.151347 0.585961 0.416550 -0.173752
C46   C     C_R   0.981512 0.589597 0.393679 -0.161420
H17   H     H_    0.853119 0.569859 0.399044 0.140069
C47   C     C_R   0.975521 0.618252 0.363118 -0.018039
H18   H     H_    0.843162 0.620147 0.345811 0.182918
C48   C     C_R   0.137713 0.644596 0.354818 0.052737
C49   C     C_R   0.579762 0.227509 0.840978 0.505512
N3    N     N_R   0.588367 0.179476 0.827893 -0.188622
C50   C     C_R   0.601565 0.159680 0.785675 0.482223
C51   C     C_R   0.604643 0.188255 0.754698 -0.068316
C52   C     C_R   0.604155 0.237665 0.767419 -0.016616
C53   C     C_R   0.598559 0.258033 0.811259 -0.226222
C54   C     C_R   0.612217 0.168130 0.711386 -0.068389
C55   C     C_R   0.617969 0.196122 0.680080 -0.095510
C56   C     C_R   0.609353 0.246225 0.692333 -0.139339
C57   C     C_R   0.608731 0.266633 0.736222 0.032740
C58   C     C_R   0.612217 0.316112 0.749050 -0.116163
C59   C     C_R   0.612128 0.336129 0.792458 -0.188064
C60   C     C_R   0.607724 0.307975 0.823533 0.380707
C61   C     C_R   0.597940 0.277026 0.662724 0.570396
N4    N     N_R   0.614839 0.324974 0.675848 -0.161642
C62   C     C_R   0.620994 0.344744 0.718132 0.572571
O15   O     O_2   0.548716 0.245312 0.882422 -0.464032
O16   O     O_2   0.611339 0.112308 0.773650 -0.519317
H19   H     H_    0.618987 0.130072 0.701725 0.205057
O17   O     O_2   0.564642 0.259711 0.621321 -0.518996
O18   O     O_2   0.636593 0.392035 0.730275 -0.530190
H20   H     H_    0.619853 0.374123 0.802637 0.214489
C63   C     C_R   0.482317 0.387540 0.641763 -0.013598
H21   H     H_    0.361810 0.390984 0.663743 0.167779
C64   C     C_R   0.489906 0.415889 0.611022 -0.120053
H22   H     H_    0.376968 0.441568 0.610688 0.161392
C65   C     C_R   0.641983 0.411824 0.581461 -0.330165
C66   C     C_R   0.787861 0.377859 0.582918 0.216716
C67   C     C_R   0.783660 0.350347 0.615116 0.267555
C68   C     C_R   0.628517 0.354946 0.644437 0.034099
C69   C     C_R   0.414948 0.119478 0.858801 -0.082367
H23   H     H_    0.301822 0.120686 0.835852 0.154182
C70   C     C_R   0.401562 0.086897 0.886121 0.374350
C71   C     C_R   0.549637 0.085471 0.916231 -0.346681
C72   C     C_R   0.711003 0.115469 0.916538 -0.094482
H24   H     H_    0.825366 0.114233 0.939211 0.182108
C73   C     C_R   0.728248 0.146568 0.887721 -0.016809
C74   C     C_R   0.576843 0.148919 0.858825 0.053266
C75   C     C_R   0.612112 0.148218 0.097480 -0.142420
H25   H     H_    0.650728 0.155905 0.066725 0.122568
C76   C     C_R   0.627096 0.183898 0.133667 -0.102810
H26   H     H_    0.674440 0.218783 0.130065 0.135474
C77   C     C_R   0.583133 0.174541 0.174184 0.072608
C78   C     C_R   0.514419 0.129286 0.177318 -0.123108
H27   H     H_    0.477917 0.121104 0.207994 0.127188
C79   C     C_R   0.495168 0.093946 0.140991 -0.147123
H28   H     H_    0.444049 0.059210 0.144202 0.125239
C80   C     C_R   0.546245 0.103047 0.100960 -0.106522
C81   C     C_R   0.446956 0.220335 0.241618 -0.047751
H29   H     H_    0.316590 0.199192 0.235711 0.119101
C82   C     C_R   0.454808 0.256030 0.277753 -0.121881
H30   H     H_    0.331891 0.260628 0.299075 0.113927
C83   C     C_R   0.619402 0.284892 0.286546 0.051467
C84   C     C_R   0.776866 0.276727 0.258276 -0.134015
H31   H     H_    0.904729 0.298717 0.264585 0.152279
C85   C     C_R   0.772438 0.240307 0.222043 -0.035084
C86   C     C_R   0.603147 0.212119 0.213063 -0.014318
C87   C     C_R   0.801759 0.333673 0.347826 -0.139598
H32   H     H_    0.931319 0.313751 0.337991 0.106533
C88   C     C_R   0.810417 0.369725 0.383813 -0.102342
H33   H     H_    0.946855 0.376833 0.400192 0.143870
C89   C     C_R   0.645148 0.395923 0.398615 -0.136687
C90   C     C_R   0.470894 0.385039 0.376439 -0.134288
H34   H     H_    0.340857 0.404592 0.386728 0.129552
C91   C     C_R   0.462597 0.349240 0.340227 -0.121544
H35   H     H_    0.326834 0.342666 0.323515 0.110344
C92   C     C_R   0.627977 0.323037 0.325324 0.128928
O19   O     O_R   0.699170 0.038480 0.960880 -0.594478
O20   O     O_R   0.366800 0.052460 0.047690 -0.596382
O21   O     O_R   0.193520 0.961530 0.039110 -0.609348
C93   C     C_R   0.535658 0.065112 0.063174 0.902508
O22   O     O_R   0.369630 0.044100 0.961740 -0.566330
O23   O     O_R   0.196370 0.953120 0.952550 -0.573952
C94   C     C_R   0.538726 0.053624 0.947736 1.017765
O24   O     O_R   0.696320 0.046890 0.047450 -0.600913
O25   O     O_3   0.528890 0.970170 0.997080 -0.252670
V3    V     V_3+5 0.255190 0.005530 0.000540 1.233469
O26   O     O_R   0.866460 0.947530 0.952310 -0.568534
C95   C     C_R   0.035476 0.933612 0.937394 1.057972
O27   O     O_R   0.863630 0.955880 0.038270 -0.579191
C96   C     C_R   0.031776 0.945724 0.051698 0.982219
V4    V     V_3+5 0.754830 0.994440 0.999470 1.243684
O28   O     O_3   0.031000 0.029830 0.002920 -0.278155
C97   C     C_2   0.147305 0.885119 0.309259 0.661668
H36   H     H_    0.060831 0.909469 0.295529 0.081090
O29   O     O_2   0.244279 0.900790 0.340527 -0.546339
C98   C     C_2   0.380465 0.823898 0.114241 0.710524
H37   H     H_    0.394215 0.801768 0.137839 0.015194
O30   O     O_2   0.509509 0.823071 0.088030 -0.551026
N5    N     N_R   0.731553 0.883080 0.170728 0.232451
O31   O     O_R   0.695705 0.847478 0.189177 -0.425954
O32   O     O_R   0.612401 0.918412 0.177028 -0.386269
N6    N     N_R   0.482097 0.666561 0.369627 0.231156
O33   O     O_R   0.523202 0.673186 0.331553 -0.430568
O34   O     O_R   0.604952 0.680544 0.400054 -0.379128
C99   C     C_2   0.649706 0.171491 0.635554 0.663440
H38   H     H_    0.734355 0.187865 0.613736 0.095578
O35   O     O_2   0.586214 0.131687 0.623055 -0.542383
N7    N     N_R   0.624665 0.331006 0.867112 0.273597
O36   O     O_R   0.773337 0.322471 0.889033 -0.297176
O37   O     O_R   0.517634 0.367386 0.881735 -0.315551
N8    N     N_R   0.938345 0.370604 0.551461 0.266939
O38   O     O_R   0.895178 0.359532 0.511347 -0.363571
O39   O     O_R   0.118629 0.373398 0.562800 -0.357378
N9    N     N_R   0.935189 0.317287 0.617740 0.253125
O40   O     O_R   0.016963 0.316254 0.653976 -0.420154
O41   O     O_R   0.986548 0.286786 0.584309 -0.280021
N10   N     N_R   0.244171 0.053561 0.880662 0.239637
O42   O     O_R   0.277688 0.009048 0.879487 -0.431412
O43   O     O_R   0.076697 0.065637 0.868191 -0.404102
C100  C     C_2   0.906851 0.175234 0.887139 0.672608
H39   H     H_    0.930155 0.195829 0.862572 -0.012206
O44   O     O_2   0.031525 0.176014 0.914042 -0.564421
N11   N     N_R   0.748442 0.854680 0.921498 0.240495
O45   O     O_R   0.787327 0.857869 0.961597 -0.368785
O46   O     O_R   0.577661 0.840265 0.907854 -0.395106
C101  C     C_2   0.948984 0.230947 0.195395 0.470263
H40   H     H_    0.966788 0.197610 0.173572 0.026835
O47   O     O_2   0.078092 0.260377 0.197712 -0.564834
N12   N     N_R   0.467408 0.658291 0.692211 0.223164
O48   O     O_R   0.589686 0.624447 0.692989 -0.407147
O49   O     O_R   0.506796 0.700159 0.713830 -0.420268

loop_
_geom_bond_atom_site_label_1
_geom_bond_atom_site_label_2
_geom_bond_distance
_ccdc_geom_bond_type
C32   C33   1.405823 A    
N4    C62   1.368557 A    
C56   C57   1.419012 A    
N2    C42   1.450139 S    
C75   C80   1.401616 A    
C70   C71   1.418947 A    
C101  O47   1.221287 D    
C101  H40   1.084059 S    
O21   V3    1.976878 S    
O2    C1    1.297520 A    
C58   C59   1.402359 A    
C90   H34   1.083062 S    
C1    O6    1.299835 A    
C78   H27   1.082958 S    
C43   C48   1.418087 A    
C24   O12   1.349197 S    
C81   H29   1.083126 S    
C75   H25   1.083306 S    
C44   H16   1.083175 S    
C29   C30   1.428331 A    
C37   C42   1.418437 A    
C98   O30   1.221416 D    
C12   H5    1.083103 S    
C62   O18   1.349409 S    
O26   C95   1.300039 A    
C7    C8    1.404971 A    
C17   C18   1.410873 A    
C90   C91   1.401033 A    
C41   N5    1.444306 S    
C91   C92   1.408377 A    
C66   N8    1.435760 S    
C13   C14   1.402558 A    
N5    O31   1.300981 A    
C37   C98   1.484877 S    
C33   H12   1.083086 S    
C75   C76   1.401095 A    
C78   C79   1.401033 A    
V2    O10   2.155222 S    
C3    C45   1.491615 S    
C80   C93   1.472256 S    
C33   C34   1.395370 A    
N9    O41   1.301176 A    
C77   C86   1.495094 S    
C23   O11   1.349154 S    
C52   C57   1.420666 A    
C38   C39   1.401538 A    
C71   C72   1.407487 A    
C55   C99   1.485462 S    
C64   C65   1.404461 A    
C5    C6    1.398359 A    
C4    C19   1.488573 S    
O26   V4    1.985948 S    
O8    V2    1.976100 S    
C25   C28   1.401519 A    
C65   C66   1.420360 A    
C37   C38   1.408474 A    
C69   C70   1.404010 A    
N3    C74   1.448729 S    
C63   H21   1.082931 S    
C14   C15   1.401806 A    
O21   C96   1.297819 A    
N11   O45   1.301481 A    
O1    V2    1.984623 S    
O25   V4    1.706096 S    
O20   C93   1.295893 A    
O7    V1    2.152893 S    
O23   C95   1.299147 A    
C53   C60   1.420611 A    
C2    C89   1.489564 S    
C51   C52   1.406195 A    
C97   O29   1.221398 D    
C9    N11   1.437080 S    
N2    C36   1.368633 A    
C69   C74   1.401658 A    
O1    C2    1.298110 A    
C32   C36   1.405595 A    
C63   C64   1.396256 A    
C13   C22   1.482720 S    
N9    O40   1.301315 A    
C21   C22   1.403460 A    
C34   H13   1.083048 S    
C8    H3    1.083257 S    
C66   C67   1.417269 A    
C99   O35   1.221408 D    
C60   N7    1.434124 S    
C43   C44   1.410628 A    
C72   C73   1.409389 A    
C35   O13   1.346984 S    
N11   O46   1.301275 A    
C49   C53   1.420359 A    
O19   C94   1.298881 A    
C41   C42   1.421704 A    
C89   C90   1.407321 A    
C93   O24   1.293253 A    
C28   C29   1.407363 A    
C97   H36   1.083268 S    
C82   H30   1.082581 S    
C28   H11   1.083960 S    
C9    C10   1.421844 A    
C88   C89   1.406920 A    
C43   N6    1.438222 S    
C52   C53   1.417748 A    
C19   C20   1.404148 A    
O4    C2    1.299806 A    
C58   C62   1.407061 A    
C40   H15   1.083217 S    
N6    O34   1.301410 A    
C35   N2    1.371880 A    
C23   N1    1.372597 A    
C47   H18   1.081635 S    
C45   C46   1.405089 A    
O20   V3    1.983926 S    
N10   O43   1.300832 A    
C87   C92   1.408623 A    
C79   C80   1.401873 A    
N7    O36   1.301412 A    
C63   C68   1.401518 A    
O5    V1    1.977102 S    
C18   H8    1.083268 S    
O27   C96   1.298981 A    
C70   N10   1.437538 S    
C50   O16   1.349783 S    
C20   C21   1.398670 A    
C24   C25   1.412289 A    
C51   C54   1.401138 A    
C72   H24   1.083743 S    
C59   C60   1.400557 A    
C5    H1    1.082031 S    
C11   H4    1.082858 S    
C44   C45   1.408060 A    
C57   C58   1.408461 A    
N1    C24   1.373310 A    
C85   C86   1.421203 A    
C98   H37   1.084045 S    
C73   C74   1.414047 A    
V3    O28   1.704633 S    
O3    C4    1.298062 A    
C84   C85   1.411153 A    
N6    O33   1.301398 A    
C85   C101  1.485442 S    
N1    C48   1.451216 S    
C40   C41   1.409218 A    
C25   C26   1.403871 A    
C1    C65   1.490817 S    
N12   O49   1.301044 A    
C36   O14   1.349321 S    
C61   N4    1.371500 A    
O6    V2    1.975100 S    
C47   C48   1.404265 A    
O9    V2    1.985734 S    
V4    O28   2.155273 S    
C8    C9    1.409751 A    
C71   C94   1.490793 S    
C21   H10   1.083241 S    
N8    O39   1.300493 A    
C77   C78   1.407523 A    
O2    V1    1.979782 S    
O23   V3    1.983423 S    
C54   C55   1.403484 A    
N4    C68   1.449474 S    
C49   O15   1.347809 S    
C99   H38   1.083561 S    
C76   C77   1.408185 A    
C67   C68   1.414958 A    
C82   C83   1.404551 A    
C59   H20   1.083592 S    
C31   C32   1.411868 A    
C20   H9    1.083139 S    
C26   C31   1.420849 A    
C6    C7    1.402582 A    
N3    C50   1.368946 A    
C27   C34   1.404026 A    
C81   C86   1.406257 A    
C14   H6    1.083105 S    
C54   H19   1.083993 S    
C46   H17   1.083083 S    
C49   N3    1.371097 A    
O22   V3    1.979566 S    
O19   V4    1.976402 S    
C30   C35   1.424864 A    
C30   C31   1.418439 A    
C7    C16   1.491809 S    
C67   N9    1.437447 S    
C83   C84   1.407399 A    
C11   C12   1.401549 A    
O24   V4    1.985036 S    
C88   H33   1.083063 S    
C5    C10   1.407775 A    
N10   O42   1.300265 A    
C6    H2    1.083087 S    
O27   V4    1.975961 S    
C79   H28   1.083368 S    
O7    V2    1.706501 S    
C12   C13   1.402754 A    
C18   C19   1.406876 A    
O3    V1    1.983546 S    
V1    O10   1.704558 S    
C91   H35   1.082641 S    
C29   C97   1.484812 S    
O5    C3    1.298833 A    
C76   H26   1.082815 S    
C23   C27   1.410486 A    
C10   C95   1.493789 S    
C61   O17   1.347527 S    
O22   C94   1.298661 A    
C55   C56   1.425637 A    
C15   C16   1.407880 A    
C46   C47   1.398358 A    
C15   H7    1.082814 S    
C87   C88   1.400418 A    
C38   H14   1.083701 S    
O25   V3    2.152783 S    
N5    O32   1.301740 A    
C17   C22   1.419279 A    
C84   H31   1.082875 S    
C100  H39   1.084178 S    
C11   C16   1.407656 A    
O4    V1    1.983608 S    
C39   C40   1.402470 A    
N12   O48   1.301613 A    
C50   C51   1.406573 A    
C26   C27   1.410380 A    
C39   C96   1.487487 S    
C64   H22   1.083279 S    
C81   C82   1.397477 A    
C87   H32   1.082547 S    
C83   C92   1.497032 S    
N7    O37   1.301120 A    
C17   N12   1.442173 S    
N8    O38   1.301360 A    
O9    C4    1.299526 A    
C56   C61   1.421569 A    
C73   C100  1.485063 S    
C69   H23   1.083395 S    
O8    C3    1.300217 A    
C100  O44   1.221321 D    
