data_mof_unit_62841.cif
_audit_creation_date              2013-03-05T16:08:27-0500
_audit_creation_method            fapswitch 2.2
_symmetry_space_group_name_H-M    P1
_symmetry_Int_Tables_number       1
_space_group_crystal_system       triclinic
_cell_length_a                    23.619414
_cell_length_b                    14.428907
_cell_length_c                    13.135372
_cell_angle_alpha                 90.03109
_cell_angle_beta                  89.997685
_cell_angle_gamma                 89.998818
_cell_volume                      4476.5646931

loop_
_atom_site_label
_atom_site_type_symbol
_atom_site_description
_atom_site_fract_x
_atom_site_fract_y
_atom_site_fract_z
_atom_type_partial_charge
O1    O     O_R   0.500000 0.376050 0.578280 -0.553471
O2    O     O_R   0.500000 0.623950 0.421720 -0.553700
O3    O     O_R   0.500000 0.623950 0.578280 -0.553274
O4    O     O_R   0.500000 0.376050 0.421720 -0.553432
C1    C     C_R   0.500000 0.328693 0.499977 0.850207
C2    C     C_R   0.500000 0.671307 0.500023 0.850165
O5    O     O_R   0.417880 0.500000 0.578280 -0.573206
O6    O     O_R   0.582120 0.500000 0.421720 -0.573082
O7    O     O_R   0.582120 0.500000 0.578280 -0.573126
O8    O     O_R   0.417880 0.500000 0.421720 -0.573152
C3    C     C_R   0.389475 0.500003 0.500013 0.833332
C4    C     C_R   0.610520 0.499991 0.500008 0.833091
Cu1   Cu    Cu3+1 0.500000 0.500000 0.592680 0.982481
Cu2   Cu    Cu3+1 0.500000 0.500000 0.407320 0.982143
C5    C     C_R   0.879829 0.582052 0.489374 0.560611
C6    C     C_R   0.120074 0.420139 0.523198 0.559799
C7    C     C_R   0.879892 0.418536 0.513102 0.558342
C8    C     C_R   0.120022 0.580206 0.479401 0.558864
N1    N     N_R   0.851965 0.500212 0.500838 -0.470740
N2    N     N_R   0.147963 0.500113 0.500909 -0.470249
C9    C     C_R   0.939745 0.416635 0.519776 -0.081109
C10   C     C_R   0.060151 0.584165 0.484606 -0.081453
C11   C     C_R   0.939766 0.584341 0.484900 -0.080383
C12   C     C_R   0.060127 0.416578 0.520231 -0.079806
C13   C     C_R   0.969894 0.500479 0.502452 -0.006260
C14   C     C_R   0.030007 0.500414 0.502489 -0.006645
C15   C     C_R   0.970059 0.333587 0.540300 -0.102033
C16   C     C_R   0.029808 0.668257 0.470060 -0.100556
C17   C     C_R   0.970159 0.667750 0.466604 -0.097205
C18   C     C_R   0.029707 0.332906 0.537018 -0.099368
O9    O     O_2   0.849005 0.660586 0.484138 -0.504731
O10   O     O_2   0.150906 0.344959 0.548605 -0.506221
O11   O     O_2   0.849250 0.339729 0.516669 -0.501011
O12   O     O_2   0.150693 0.655042 0.452184 -0.503864
C19   C     C_R   0.238443 0.499996 0.592748 -0.083555
C20   C     C_R   0.761547 0.491963 0.592270 -0.084676
C21   C     C_R   0.238227 0.500150 0.408146 -0.082918
C22   C     C_R   0.761749 0.508134 0.408527 -0.084247
H1    H     H_    0.215736 0.500066 0.664364 0.150371
H2    H     H_    0.784276 0.485798 0.663536 0.150160
H3    H     H_    0.215351 0.500105 0.336708 0.150669
H4    H     H_    0.784636 0.514372 0.337431 0.150399
C23   C     C_R   0.297462 0.499961 0.592623 -0.205115
C24   C     C_R   0.702527 0.492175 0.592192 -0.204423
C25   C     C_R   0.297266 0.500121 0.407836 -0.206689
C26   C     C_R   0.702710 0.507821 0.408203 -0.206369
H5    H     H_    0.319727 0.499909 0.664705 0.163025
H6    H     H_    0.680258 0.485963 0.663948 0.162949
H7    H     H_    0.319390 0.500152 0.335611 0.162854
H8    H     H_    0.680573 0.514014 0.336318 0.162689
C27   C     C_R   0.327305 0.500025 0.500127 -0.061431
C28   C     C_R   0.672681 0.499985 0.500105 -0.061152
C29   C     C_R   0.208697 0.500088 0.500569 0.349644
C30   C     C_R   0.791259 0.500080 0.500513 0.350813
C31   C     C_1   0.500000 0.227121 0.499941 -0.196722
C32   C     C_1   0.500000 0.772879 0.500059 -0.196816
C33   C     C_1   0.500000 0.142306 0.499949 0.015433
C34   C     C_1   0.500000 0.857694 0.500051 0.015373
C35   C     C_1   0.500000 0.042406 0.499983 0.026567
C36   C     C_1   0.500000 0.957593 0.500017 0.026549
N3    N     N_1   0.500000 0.500000 0.268070 -0.127571
N4    N     N_1   0.500000 0.500000 0.731930 -0.127522
C37   C     C_1   0.500000 0.500000 0.173605 0.147675
C38   C     C_1   0.500000 0.500000 0.826394 0.148016
C39   C     C_1   0.500000 0.500000 0.050683 -0.052366
C40   C     C_1   0.500000 0.500000 0.949317 -0.052252
C41   C     C_2   0.940546 0.246238 0.568207 0.970920
O13   O     O_2   0.915556 0.240729 0.649527 -0.525235
O14   O     O_R   0.942492 0.170231 0.502274 -0.720866
H9    H     H_    0.921271 0.114621 0.529983 0.360876
C42   C     C_2   0.059270 0.758862 0.460688 0.970629
O15   O     O_2   0.083840 0.791700 0.534300 -0.521921
O16   O     O_R   0.057713 0.806987 0.368411 -0.726086
H10   H     H_    0.078821 0.868092 0.371755 0.353211
C43   C     C_2   0.940613 0.755611 0.440900 0.977342
O17   O     O_2   0.940971 0.820268 0.501135 -0.552352
O18   O     O_R   0.913083 0.764099 0.347169 -0.700382
H11   H     H_    0.894692 0.827040 0.338090 0.352870
C44   C     C_2   0.059196 0.242615 0.549104 0.980165
O19   O     O_2   0.059294 0.203572 0.631715 -0.547745
O20   O     O_R   0.086079 0.202249 0.465283 -0.695857
H12   H     H_    0.104436 0.140733 0.482606 0.354110

loop_
_geom_bond_atom_site_label_1
_geom_bond_atom_site_label_2
_geom_bond_distance
_ccdc_geom_bond_type
C37   C39   1.614634 S    
C19   C29   1.399908 A    
O16   H10   1.013802 S    
O3    C2    1.234632 A    
O20   H12   1.013827 S    
O18   H11   1.013805 S    
O5    C3    1.227641 A    
O1    C1    1.234526 A    
C11   C17   1.421908 A    
C16   C17   1.409636 A    
C12   C14   1.422664 A    
C22   H4    1.082821 S    
C33   C35   1.441442 S    
C25   C27   1.404682 A    
C34   C36   1.441442 S    
C26   C28   1.404698 A    
N3    C37   1.240826 T    
O7    Cu1   1.948820 S    
N4    C38   1.240825 T    
C5    N1    1.360327 A    
Cu1   N4    1.829101 S    
C19   C23   1.393995 A    
O3    Cu1   1.798540 S    
O6    C4    1.227809 A    
C21   C29   1.400090 A    
C24   C28   1.404621 A    
C5    C11   1.417284 A    
C9    C15   1.421812 A    
C35   C36   1.223761 T    
C6    C12   1.417399 A    
C20   C30   1.399643 A    
C10   C16   1.422183 A    
Cu1   Cu2   2.434774 S    
C15   C18   1.409554 A    
O4    Cu2   1.798540 S    
O2    C2    1.234525 A    
C7    O11   1.348747 S    
C4    C28   1.468202 S    
C41   O13   1.223007 D    
C20   H2    1.082835 S    
C15   C41   1.486357 S    
O8    Cu2   1.948822 S    
C44   O20   1.397809 S    
O4    C1    1.234633 A    
C13   C14   1.419839 A    
Cu2   N3    1.829101 S    
C7    C9    1.416678 A    
C41   O14   1.397809 S    
C38   C40   1.614635 S    
C19   H1    1.082838 S    
C43   O17   1.222963 D    
C43   O18   1.397809 S    
C22   C30   1.399810 A    
C25   H7    1.083084 S    
C6    N2    1.360729 A    
C8    O12   1.348698 S    
C18   C44   1.485870 S    
N1    C30   1.433824 S    
C31   C33   1.223783 T    
C20   C24   1.394029 A    
C16   C42   1.486178 S    
O1    Cu1   1.798335 S    
C21   C25   1.394465 A    
C42   O16   1.397724 S    
C9    C13   1.422226 A    
O6    Cu2   1.948835 S    
C8    C10   1.416925 A    
C1    C31   1.465574 S    
C2    C32   1.465574 S    
N2    C29   1.434497 S    
C5    O9    1.348655 S    
C17   C43   1.486137 S    
C6    O10   1.348620 S    
C26   H8    1.083091 S    
C42   O15   1.223015 D    
C23   C27   1.404609 A    
C7    N1    1.360181 A    
C32   C34   1.223783 T    
C8    N2    1.360586 A    
C11   C13   1.422666 A    
C21   H3    1.082818 S    
O14   H9    1.013837 S    
O2    Cu2   1.798335 S    
O7    C4    1.227593 A    
C12   C18   1.422229 A    
C22   C26   1.394471 A    
C3    C27   1.468408 S    
O8    C3    1.227876 A    
C44   O19   1.222914 D    
O5    Cu1   1.948837 S    
C39   C40   1.331476 T    
C10   C14   1.422233 A    
C23   H5    1.083094 S    
C24   H6    1.083103 S    
