data_mof_unit_51117.cif
_audit_creation_date              2012-10-26T20:00:57-0400
_audit_creation_method            fapswitch 2.2
_symmetry_space_group_name_H-M    P1
_symmetry_Int_Tables_number       1
_space_group_crystal_system       triclinic
_cell_length_a                    11.663358
_cell_length_b                    13.004297
_cell_length_c                    13.518427
_cell_angle_alpha                 92.038031
_cell_angle_beta                  77.035556
_cell_angle_gamma                 99.859448
_cell_volume                      1968.60579943

loop_
_atom_site_label
_atom_site_type_symbol
_atom_type_description
_atom_site_fract_x
_atom_site_fract_y
_atom_site_fract_z
_atom_type_partial_charge
C1    C     C_R   0.520869 0.700894 0.501579 0.546659
C2    C     C_R   0.401446 0.505039 0.807861 -0.002850
C3    C     C_R   0.466972 0.185681 0.497882 0.001202
C4    C     C_R   0.437715 0.501787 0.695871 0.536680
C5    C     C_R   0.532854 0.814290 0.502684 0.001440
C6    C     C_R   0.652182 0.984745 0.511043 -0.137539
C7    C     C_R   0.641376 0.876650 0.510304 -0.136148
C8    C     C_R   0.435018 0.860722 0.496028 -0.129827
C9    C     C_R   0.445132 0.968736 0.496697 0.048356
C10   C     C_R   0.554588 0.031224 0.504205 0.048386
C11   C     C_R   0.564747 0.139245 0.504732 -0.129876
C12   C     C_R   0.451060 0.514877 0.975677 0.025028
C13   C     C_R   0.358386 0.123305 0.490461 -0.136209
C14   C     C_R   0.347528 0.015208 0.489888 -0.137953
C15   C     C_R   0.958887 0.621311 0.561891 -0.181744
C16   C     C_R   0.479074 0.299100 0.498603 0.553867
C17   C     C_R   0.836927 0.606147 0.561185 0.047928
C18   C     C_R   0.850560 0.445203 0.475367 0.042190
C19   C     C_R   0.973387 0.456561 0.475608 0.007286
C20   C     C_R   0.027736 0.545280 0.520659 0.000115
C21   C     C_R   0.149713 0.555392 0.523402 0.040707
C22   C     C_R   0.164608 0.396249 0.434412 0.041298
C23   C     C_R   0.485012 0.537402 0.870171 -0.006178
C24   C     C_R   0.043276 0.382182 0.431331 -0.178732
C25   C     C_R   0.563294 0.505768 0.304616 0.550280
C26   C     C_R   0.744925 0.599172 0.049490 -0.136164
C27   C     C_R   0.600337 0.522511 0.195106 0.000001
C28   C     C_R   0.282128 0.466531 0.853544 -0.131022
C29   C     C_R   0.246138 0.455051 0.957987 -0.141640
C30   C     C_R   0.329102 0.477045 0.018486 -0.111783
C31   C     C_3   0.885993 0.583182 0.806862 -0.309148
C32   C     C_R   0.539735 0.532473 0.034640 0.004655
C33   C     C_R   0.658264 0.581050 0.990096 0.058432
C34   C     C_R   0.687594 0.610939 0.887405 0.125081
C35   C     C_R   0.600702 0.592506 0.830354 -0.086478
C36   C     C_R   0.514522 0.500962 0.136615 -0.128678
C37   C     C_R   0.716005 0.570364 0.150973 -0.144160
Cu1   Cu    Cu3+1 0.386470 0.492430 0.492410 0.931737
Cu2   Cu    Cu3+1 0.613530 0.507570 0.507590 0.930721
H1    H     H_    0.783239 0.588571 0.195610 0.132308
H2    H     H_    0.004481 0.313504 0.395016 0.082123
H3    H     H_    0.784973 0.665240 0.593769 0.130264
H4    H     H_    0.808674 0.378241 0.438977 0.114827
H5    H     H_    0.835262 0.637523 0.019232 0.114120
H6    H     H_    0.428457 0.458899 0.172970 0.118554
H7    H     H_    0.216360 0.443175 0.808242 0.131052
H8    H     H_    0.293823 0.466041 0.098817 0.102885
H9    H     H_    0.153465 0.426201 0.992278 0.112747
H10   H     H_    0.625540 0.625620 0.755055 0.153941
H11   H     H_    0.648912 0.186911 0.510480 0.115502
H12   H     H_    0.281877 0.157922 0.485093 0.123647
H13   H     H_    0.841074 0.721318 0.875364 0.246529
H14   H     H_    0.850902 0.524837 0.754313 0.176362
H15   H     H_    0.974861 0.624921 0.767712 0.134805
H16   H     H_    0.897610 0.541374 0.873161 0.137409
H17   H     H_    0.736553 0.031849 0.516881 0.101393
H18   H     H_    0.263137 0.968098 0.484110 0.101247
H19   H     H_    0.717894 0.842026 0.515631 0.123689
H20   H     H_    0.350870 0.813060 0.490221 0.115762
H21   H     H_    0.191208 0.621974 0.560553 0.111517
H22   H     H_    0.217397 0.338191 0.400310 0.121663
H23   H     H_    0.998659 0.691662 0.595144 0.091112
N1    N     N_R   0.215880 0.481050 0.481000 -0.227906
N2    N     N_R   0.784100 0.518950 0.519000 -0.232783
N3    N     N_2   0.805310 0.657329 0.838308 -0.539897
O1    O     O_R   0.419710 0.645650 0.494620 -0.513044
O2    O     O_R   0.611450 0.658430 0.507430 -0.520376
O3    O     O_R   0.357340 0.490460 0.641450 -0.501703
O4    O     O_R   0.549080 0.503250 0.654260 -0.505735
O5    O     O_R   0.388550 0.341570 0.492570 -0.512575
O6    O     O_R   0.580290 0.354350 0.505380 -0.510559
O7    O     O_R   0.450920 0.496750 0.345740 -0.503420
O8    O     O_R   0.642660 0.509540 0.358550 -0.501383

loop_
_geom_bond_atom_site_label_1
_geom_bond_atom_site_label_2
_ccdc_geom_bond_type
Cu1   O5    S    
C19   C20   A    
C26   H5    S    
Cu2   N2    S    
C12   C23   A    
C28   H7    S    
C1    C5    S    
C32   C36   A    
C28   C29   A    
C34   C35   A    
C37   H1    S    
C17   N2    A    
Cu1   Cu2   S    
C31   N3    S    
C18   C19   A    
C17   H3    S    
C22   N1    A    
C13   H12   S    
Cu1   O1    S    
C8    C9    A    
C35   H10   S    
C9    C10   A    
C7    H19   S    
C3    C13   A    
C13   C14   A    
C12   C32   A    
C24   H2    S    
C16   O6    A    
C34   N3    S    
C4    O4    A    
C1    O1    A    
C15   C20   A    
Cu1   O7    S    
C29   H9    S    
C30   H8    S    
C16   O5    A    
C21   H21   S    
C5    C7    A    
C2    C4    S    
C9    C14   A    
C29   C30   A    
C26   C33   A    
C33   C34   A    
Cu2   O4    S    
C36   H6    S    
C25   O7    A    
C31   H14   S    
Cu1   O3    S    
C23   C35   A    
C22   C24   A    
C4    O3    A    
Cu1   N1    S    
C15   C17   A    
C14   H18   S    
C12   C30   A    
Cu2   O2    S    
C6    H17   S    
C6    C10   A    
C5    C8    A    
C26   C37   A    
C6    C7    A    
C27   C36   A    
C25   C27   S    
C32   C33   A    
C19   C24   A    
C8    H20   S    
C11   H11   S    
C18   H4    S    
C22   H22   S    
C18   N2    A    
C27   C37   A    
C1    O2    A    
C15   H23   S    
C25   O8    A    
Cu2   O8    S    
C31   H15   S    
C21   N1    A    
C3    C11   A    
C10   C11   A    
C3    C16   S    
C20   C21   A    
C2    C23   A    
Cu2   O6    S    
C2    C28   A    
C31   H16   S    
H13   N3    S    
