data_mof_unit_21718.cif
_audit_creation_date              2012-12-10T17:50:15-0500
_audit_creation_method            fapswitch 2.2
_symmetry_space_group_name_H-M    P1
_symmetry_Int_Tables_number       1
_space_group_crystal_system       triclinic
_cell_length_a                    10.643758
_cell_length_b                    14.716973
_cell_length_c                    14.675651
_cell_angle_alpha                 64.778103
_cell_angle_beta                  103.379001
_cell_angle_gamma                 102.693507
_cell_volume                      2003.99221169

loop_
_atom_site_label
_atom_site_type_symbol
_atom_type_description
_atom_site_fract_x
_atom_site_fract_y
_atom_site_fract_z
_atom_type_partial_charge
C1    C     C_R   0.474460 0.119885 0.312053 0.827735
C2    C     C_R   0.520678 0.880119 0.688096 0.830341
C3    C     C_R   0.470902 0.292210 0.177803 -0.200577
C4    C     C_R   0.487136 0.708609 0.822784 -0.210661
C5    C     C_R   0.430926 0.361039 0.079071 0.039594
C6    C     C_R   0.480208 0.640862 0.924038 0.039677
C7    C     C_R   0.371643 0.322723 0.002946 0.083675
C8    C     C_R   0.520950 0.679326 0.001790 0.085838
C9    C     C_R   0.453571 0.467398 0.053759 0.087059
C10   C     C_R   0.437840 0.535208 0.949904 0.090037
C11   C     C_R   0.378390 0.495207 0.875590 -0.206436
C12   C     C_R   0.488025 0.507948 0.129212 -0.215562
C13   C     C_R   0.344486 0.391569 0.901864 -0.215031
C14   C     C_R   0.518862 0.611595 0.103560 -0.222152
C15   C     C_R   0.739024 0.295851 0.648019 -0.303108
C16   C     C_R   0.263136 0.708275 0.346646 -0.301042
C17   C     C_R   0.693429 0.208142 0.630118 -0.046714
C18   C     C_R   0.307319 0.793709 0.368724 -0.040034
C19   C     C_R   0.514868 0.283442 0.511086 0.732206
C20   C     C_R   0.485406 0.716690 0.486571 0.734348
C21   C     C_R   0.550309 0.372809 0.532035 -0.155825
C22   C     C_R   0.451267 0.629884 0.461356 -0.156643
C23   C     C_R   0.260326 0.000300 0.500744 0.896844
C24   C     C_R   0.739742 0.999447 0.499636 0.900486
C25   C     C_R   0.670879 0.380326 0.596731 0.046496
C26   C     C_R   0.332521 0.624347 0.394255 0.040418
C27   C     C_R   0.474645 0.455659 0.488909 0.023025
C28   C     C_R   0.527085 0.547614 0.502839 0.027182
C29   C     C_R   0.655402 0.555938 0.554712 -0.190335
C30   C     C_R   0.347660 0.449074 0.433895 -0.200952
C31   C     C_R   0.724347 0.472717 0.606553 0.250638
C32   C     C_R   0.280740 0.533627 0.380231 0.245373
C33   C     C_3   0.019481 0.022391 0.406097 0.085237
C34   C     C_3   0.980583 0.976804 0.594735 0.087896
C35   C     C_3   0.965154 0.091518 0.437851 0.588124
C36   C     C_3   0.035072 0.907730 0.563024 0.587135
C37   C     C_3   0.875068 0.997827 0.499381 -0.347911
C38   C     C_3   0.125064 0.001538 0.501425 -0.343986
C39   C     C_3   0.930465 0.929255 0.467152 0.124930
C40   C     C_3   0.069618 0.069914 0.533771 0.125362
C41   C     C_R   0.443980 0.187860 0.204382 -0.099664
C42   C     C_R   0.524307 0.812387 0.796600 -0.100349
C43   C     C_R   0.342764 0.216495 0.028968 0.273500
C44   C     C_R   0.561540 0.784735 0.976395 0.268872
C45   C     C_R   0.379341 0.150125 0.130542 -0.227918
C46   C     C_R   0.560790 0.850321 0.872983 -0.229589
Cu1   Cu    Cu3+1 0.465750 0.918270 0.475680 1.001772
Cu2   Cu    Cu3+1 0.534250 0.081730 0.524320 1.001355
H1    H     H_    0.253100 0.857611 0.332424 0.140444
H2    H     H_    0.747324 0.144080 0.668340 0.142155
H3    H     H_    0.828533 0.297368 0.700802 0.171408
H4    H     H_    0.172997 0.707996 0.294316 0.165622
H5    H     H_    0.706885 0.628356 0.551561 0.227972
H6    H     H_    0.297521 0.378085 0.432828 0.233584
H7    H     H_    0.300022 0.366152 0.841069 0.158223
H8    H     H_    0.542426 0.637713 0.164979 0.161388
H9    H     H_    0.466908 0.681715 0.762540 0.186823
H10   H     H_    0.526828 0.318697 0.235202 0.180006
H11   H     H_    0.591255 0.930857 0.851304 0.165623
H12   H     H_    0.355590 0.068949 0.153361 0.162467
H13   H     H_    0.352185 0.542329 0.796229 0.153724
H14   H     H_    0.487053 0.461232 0.209182 0.170685
N1    N     N_R   0.585750 0.204560 0.560800 -0.214286
N2    N     N_R   0.414250 0.795440 0.439200 -0.216106
O1    O     O_R   0.454850 0.022100 0.338110 -0.618731
O2    O     O_R   0.545150 0.977900 0.661890 -0.617343
O3    O     O_R   0.512700 0.160150 0.379180 -0.519913
O4    O     O_R   0.487300 0.839850 0.620820 -0.521322
O5    O     O_R   0.287930 0.931000 0.479440 -0.586339
O6    O     O_R   0.712070 0.069000 0.520560 -0.586007
O7    O     O_R   0.345780 0.069050 0.520520 -0.540168
O8    O     O_R   0.654220 0.930950 0.479480 -0.539078
F1    F     F_    0.927050 0.185214 0.373962 -0.673550
F2    F     F_    0.074182 0.814445 0.627111 -0.681196
F3    F     F_    0.581191 0.720591 0.564147 -0.674304
F4    F     F_    0.418375 0.276686 0.435109 -0.680044
N3    N     N_2   0.048022 0.048788 0.305255 -0.392759
H15   H     H_    0.103827 0.001078 0.302810 0.244902
C47   C     C_3   0.939128 0.071652 0.223118 -0.629427
H16   H     H_    0.975297 0.102001 0.149085 0.217208
H17   H     H_    0.888884 0.129871 0.223807 0.274248
H18   H     H_    0.868900 0.002093 0.229403 0.199707
N4    N     N_2   0.952400 0.950771 0.695564 -0.394841
H19   H     H_    0.900862 0.000927 0.698361 0.246492
C48   C     C_3   0.060453 0.923577 0.777860 -0.627313
H20   H     H_    0.027027 0.902533 0.851438 0.210317
H21   H     H_    0.139982 0.988341 0.767512 0.200016
H22   H     H_    0.098256 0.857388 0.781575 0.280754
N5    N     N_2   0.851159 0.852986 0.432563 -0.370020
H23   H     H_    0.775319 0.880034 0.375092 0.259495
C49   C     C_3   0.921656 0.791015 0.413406 -0.653454
H24   H     H_    0.852075 0.729295 0.397529 0.210435
H25   H     H_    0.994253 0.755773 0.480847 0.276356
H26   H     H_    0.971853 0.837124 0.346289 0.206074
N6    N     N_2   0.147930 0.146597 0.568200 -0.362159
H27   H     H_    0.227966 0.121783 0.621934 0.263409
C50   C     C_3   0.076911 0.203111 0.594291 -0.668463
H28   H     H_    0.141506 0.271965 0.598663 0.217342
H29   H     H_    0.045364 0.156553 0.669657 0.204864
H30   H     H_    0.990150 0.227188 0.535877 0.269117
N7    N     N_2   0.274315 0.178763 0.953001 -0.435787
H31   H     H_    0.188561 0.207895 0.914359 0.242147
C51   C     C_3   0.269782 0.073296 0.971879 -0.710385
H32   H     H_    0.230415 0.062222 0.899851 0.225949
H33   H     H_    0.204739 0.024254 0.028893 0.218476
H34   H     H_    0.369302 0.051189 0.998689 0.237990
N8    N     N_2   0.605585 0.822151 0.055668 -0.437300
H35   H     H_    0.679548 0.787256 0.110526 0.243620
C52   C     C_3   0.615935 0.929463 0.031423 -0.708517
H36   H     H_    0.630981 0.941605 0.103085 0.227519
H37   H     H_    0.524730 0.959107 0.983892 0.235869
H38   H     H_    0.700627 0.971478 0.991178 0.220717
N9    N     N_2   0.852249 0.482831 0.662638 -0.462465
H39   H     H_    0.925920 0.474051 0.633362 0.247738
C53   C     C_3   0.887141 0.556966 0.707977 -0.586086
H40   H     H_    0.975596 0.538974 0.766273 0.230161
H41   H     H_    0.807042 0.554951 0.746043 0.248725
H42   H     H_    0.909427 0.634061 0.649062 0.267543
N10   N     N_2   0.160572 0.529044 0.312524 -0.462273
H43   H     H_    0.162474 0.581462 0.238543 0.250414
C54   C     C_3   0.084214 0.432264 0.320553 -0.571932
H44   H     H_    0.987807 0.445006 0.271609 0.233199
H45   H     H_    0.067243 0.386148 0.400305 0.244742
H46   H     H_    0.134047 0.391146 0.294111 0.255239

loop_
_geom_bond_atom_site_label_1
_geom_bond_atom_site_label_2
_ccdc_geom_bond_type
C25   C31   A    
C14   H8    S    
C45   H12   S    
C26   C32   A    
N7    H31   S    
C46   H11   S    
C34   C37   S    
C23   O5    A    
N6    H27   S    
C33   N3    S    
C50   H28   S    
C24   O6    A    
C48   H20   S    
C30   H6    S    
C28   C29   A    
C33   C39   S    
C4    C42   A    
C34   C40   S    
C19   F4    S    
C35   C37   S    
C2    O4    A    
C52   H37   S    
C44   N8    S    
C53   H40   S    
C42   C46   A    
Cu1   O5    S    
C54   H46   S    
C51   H32   S    
C1    O3    A    
C3    C41   A    
N4    H19   S    
C19   N1    A    
C53   H41   S    
C4    H9    S    
C1    O1    A    
N8    H35   S    
C7    C43   A    
N5    C49   S    
C9    C10   A    
N3    C47   S    
C21   C27   A    
N7    C51   S    
C38   C40   S    
C22   C28   A    
C27   C30   A    
N8    C52   S    
C50   H29   S    
C44   C46   A    
N10   C54   S    
C16   C26   A    
C37   C39   S    
C48   H21   S    
C23   O7    A    
C31   N9    S    
C4    C6    A    
C52   H38   S    
Cu2   O6    S    
Cu1   N2    S    
C47   H17   S    
Cu2   N1    S    
C6    C8    A    
C11   H13   S    
N3    H15   S    
C20   F3    S    
N9    C53   S    
C20   N2    A    
C43   N7    S    
C5    C9    A    
C49   H25   S    
C12   H14   S    
Cu1   Cu2   S    
C53   H42   S    
C24   C37   S    
C51   H33   S    
C43   C45   A    
C8    C44   A    
C54   H44   S    
C36   F2    S    
C1    C41   S    
N4    C48   S    
C12   C14   A    
C15   H3    S    
C34   N4    S    
C40   N6    S    
Cu1   O4    S    
C49   H24   S    
C50   H30   S    
C24   O8    A    
C5    C7    A    
N9    H39   S    
C48   H22   S    
C15   C17   A    
C21   C25   A    
C35   F1    S    
C8    C14   A    
C19   C21   A    
C36   C39   S    
C16   H4    S    
C20   C22   A    
C3    C5    A    
C17   H2    S    
C6    C10   A    
C47   H18   S    
N10   H43   S    
N6    C50   S    
C2    O2    A    
C23   C38   S    
C33   C38   S    
C36   C38   S    
C35   C40   S    
C29   C31   A    
C52   H36   S    
C17   N1    A    
C49   H26   S    
C30   C32   A    
C11   C13   A    
C18   N2    A    
C29   H5    S    
C2    C42   S    
C33   C35   S    
Cu1   O1    S    
C51   H34   S    
C34   C36   S    
Cu2   O3    S    
C9    C12   A    
Cu1   O8    S    
C54   H45   S    
C15   C25   A    
C10   C11   A    
C47   H16   S    
C3    H10   S    
C7    C13   A    
Cu2   O7    S    
C16   C18   A    
C22   C26   A    
C27   C28   A    
C41   C45   A    
C32   N10   S    
Cu2   O2    S    
N5    H23   S    
C39   N5    S    
C18   H1    S    
C13   H7    S    
