data_mof_unit_9885.cif
_audit_creation_date              2012-12-10T17:56:42-0500
_audit_creation_method            fapswitch 2.2
_symmetry_space_group_name_H-M    P1
_symmetry_Int_Tables_number       1
_space_group_crystal_system       triclinic
_cell_length_a                    10.828959
_cell_length_b                    9.493106
_cell_length_c                    10.779195
_cell_angle_alpha                 90.000247
_cell_angle_beta                  90.324555
_cell_angle_gamma                 90.000068
_cell_volume                      1108.08837966

loop_
_atom_site_label
_atom_site_type_symbol
_atom_type_description
_atom_site_fract_x
_atom_site_fract_y
_atom_site_fract_z
_atom_type_partial_charge
C1    C     C_R   0.261988 0.499994 0.500018 0.784292
C2    C     C_R   0.738012 0.499994 0.499982 0.784288
C3    C     C_R   0.936128 0.628181 0.499796 -0.191046
C4    C     C_R   0.063872 0.628181 0.500189 -0.191043
C5    C     C_R   0.427084 0.074484 0.418835 -0.028420
C6    C     C_R   0.572916 0.074485 0.581165 -0.028420
C7    C     C_R   0.427064 0.925474 0.418854 -0.048161
C8    C     C_R   0.572936 0.925475 0.581146 -0.048179
C9    C     C_R   0.510992 0.500422 0.262163 0.793403
C10   C     C_R   0.489007 0.500423 0.737837 0.793410
C11   C     C_R   0.579571 0.758617 0.103986 0.176729
C12   C     C_R   0.420473 0.758631 0.896014 0.176723
C13   C     C_R   0.541578 0.885827 0.049498 -0.209576
C14   C     C_R   0.458491 0.885835 0.950495 -0.209559
C15   C     C_R   0.472782 0.630337 0.940554 0.033852
C16   C     C_R   0.527240 0.630333 0.059448 0.033857
C17   C     C_R   0.523536 0.501925 0.127067 -0.119835
C18   C     C_R   0.476465 0.501928 0.872934 -0.119841
C19   C     C_R   0.507903 0.374371 0.063574 -0.202895
C20   C     C_R   0.492080 0.374372 0.936427 -0.202896
C21   C     C_R   0.063850 0.372101 0.500056 -0.185887
C22   C     C_R   0.936149 0.372101 0.499957 -0.185884
C23   C     C_R   0.871806 0.500113 0.499837 -0.016567
C24   C     C_R   0.128194 0.500113 0.500162 -0.016570
Cu1   Cu    Cu3+1 0.500000 0.640660 0.500000 0.917186
Cu2   Cu    Cu3+1 0.500000 0.359340 0.500000 0.934956
H1    H     H_    0.508853 0.274241 0.111812 0.155871
H2    H     H_    0.491115 0.274242 0.888188 0.155867
H3    H     H_    0.575377 0.985575 0.084708 0.144732
H4    H     H_    0.424710 0.985589 0.915284 0.144730
H5    H     H_    0.888034 0.728251 0.499554 0.148963
H6    H     H_    0.111966 0.728251 0.500420 0.148963
H7    H     H_    0.368705 0.130792 0.353914 0.121157
H8    H     H_    0.631295 0.130794 0.646086 0.121158
H9    H     H_    0.368782 0.869118 0.353874 0.131796
H10   H     H_    0.631218 0.869119 0.646126 0.131801
N1    N     N_R   0.500000 0.852070 0.500000 -0.169528
N2    N     N_R   0.500000 0.147940 0.500000 -0.155824
O1    O     O_R   0.319640 0.618740 0.499990 -0.594232
O2    O     O_R   0.680360 0.618740 0.500010 -0.594232
O3    O     O_R   0.319620 0.381170 0.499990 -0.585676
O4    O     O_R   0.680380 0.381170 0.500010 -0.585675
O5    O     O_R   0.500000 0.618810 0.319650 -0.589123
O6    O     O_R   0.500000 0.618810 0.680350 -0.589128
O7    O     O_R   0.499970 0.381240 0.319640 -0.581699
O8    O     O_R   0.500030 0.381240 0.680360 -0.581698
C25   C     C_3   0.686428 0.762365 0.196013 -0.349129
C26   C     C_3   0.803646 0.821958 0.137618 -0.876217
H11   H     H_    0.828216 0.760712 0.053452 0.260558
H12   H     H_    0.791254 0.934416 0.112244 0.249645
H13   H     H_    0.881187 0.814622 0.205215 0.244900
H14   H     H_    0.660905 0.827796 0.277400 0.222171
H15   H     H_    0.710523 0.655265 0.229344 0.198405
C27   C     C_3   0.313607 0.762394 0.803997 -0.349129
C28   C     C_3   0.196412 0.822051 0.862390 -0.876258
H16   H     H_    0.208826 0.934523 0.887689 0.249643
H17   H     H_    0.118850 0.814674 0.794822 0.244908
H18   H     H_    0.171859 0.760879 0.946599 0.260571
H19   H     H_    0.339140 0.827793 0.722595 0.222190
H20   H     H_    0.289480 0.655295 0.770691 0.198401
H21   H     H_    0.111898 0.272010 0.500039 0.148599
H22   H     H_    0.888102 0.272010 0.499985 0.148598

loop_
_geom_bond_atom_site_label_1
_geom_bond_atom_site_label_2
_ccdc_geom_bond_type
C10   O8    A    
C15   C18   A    
C28   H16   S    
C6    N2    A    
C9    O7    A    
C25   H14   S    
C22   H22   S    
C19   H1    S    
C11   C16   A    
C11   C25   S    
C19   C20   A    
C12   C15   A    
C25   H15   S    
C6    H8    S    
Cu1   O5    S    
C26   H12   S    
C7    N1    A    
C27   H20   S    
C13   C14   A    
Cu1   O1    S    
C3    H5    S    
C11   C13   A    
C4    H6    S    
C7    H9    S    
C26   H13   S    
C2    O4    A    
C4    C24   A    
Cu1   O6    S    
C9    C17   S    
C26   H11   S    
C17   C19   A    
C14   H4    S    
C18   C20   A    
C27   H19   S    
C28   H17   S    
Cu1   O2    S    
C10   C18   S    
C21   C24   A    
C9    O5    A    
C8    N1    A    
C1    O1    A    
C10   O6    A    
C15   C16   A    
C25   C26   S    
C2    O2    A    
Cu2   O3    S    
C5    N2    A    
Cu2   O4    S    
C1    C24   S    
C8    H10   S    
C28   H18   S    
C1    O3    A    
C2    C23   S    
C5    C7    A    
C3    C23   A    
Cu2   O8    S    
C27   C28   S    
Cu2   N2    S    
C6    C8    A    
C20   H2    S    
Cu2   O7    S    
Cu1   N1    S    
Cu1   Cu2   S    
C21   C22   A    
C21   H21   S    
C22   C23   A    
C12   C27   S    
C3    C4    A    
C13   H3    S    
C12   C14   A    
C16   C17   A    
C5    H7    S    
