data_mof_unit_61748.cif
_audit_creation_date              2012-12-10T17:35:52-0500
_audit_creation_method            fapswitch 2.2
_symmetry_space_group_name_H-M    P1
_symmetry_Int_Tables_number       1
_space_group_crystal_system       triclinic
_cell_length_a                    24.279193
_cell_length_b                    24.267224
_cell_length_c                    27.690445
_cell_angle_alpha                 90.012136
_cell_angle_beta                  90.012956
_cell_angle_gamma                 89.982411
_cell_volume                      16314.8933886

loop_
_atom_site_label
_atom_site_type_symbol
_atom_type_description
_atom_site_fract_x
_atom_site_fract_y
_atom_site_fract_z
_atom_type_partial_charge
C1    C     C_1   0.000008 0.499993 0.569164 -0.147079
C2    C     C_1   0.000011 0.500004 0.474609 -0.003455
C3    C     C_R   0.225647 0.307593 0.710375 0.104466
C4    C     C_R   0.309298 0.772945 0.289379 0.084205
C5    C     C_R   0.677305 0.240475 0.726112 0.074595
C6    C     C_R   0.236527 0.318557 0.279924 0.077941
C7    C     C_R   0.761527 0.679520 0.723181 0.075847
C8    C     C_R   0.182479 0.265122 0.219965 0.076884
C9    C     C_R   0.819828 0.737407 0.776540 0.083285
C10   C     C_R   0.266120 0.815629 0.217643 0.077198
C11   C     C_R   0.737485 0.179911 0.775360 0.081754
C12   C     C_R   0.826154 0.744147 0.239122 0.095612
C13   C     C_1   0.499995 0.000006 0.525393 -0.001596
C14   C     C_R   0.192266 0.274307 0.789483 0.108496
C15   C     C_R   0.727562 0.189895 0.212375 0.081533
C16   C     C_R   0.263709 0.818464 0.778919 0.084013
C17   C     C_R   0.181337 0.736759 0.779017 0.080504
C18   C     C_R   0.811151 0.270636 0.211542 0.074389
C19   C     C_R   0.276663 0.194964 0.791049 0.101683
C20   C     C_R   0.743170 0.825148 0.235848 0.104207
C21   C     C_R   0.820227 0.261236 0.775897 0.075493
C22   C     C_R   0.182431 0.735334 0.220043 0.085104
C23   C     C_R   0.738734 0.820797 0.776531 0.075114
C24   C     C_1   0.499999 0.000008 0.474602 -0.001499
C25   C     C_R   0.264252 0.182578 0.218632 0.072574
C26   C     C_R   0.730108 0.770992 0.749590 -0.017954
C27   C     C_R   0.270496 0.229775 0.249381 -0.015303
C28   C     C_R   0.769417 0.271086 0.751317 -0.011970
C29   C     C_R   0.226271 0.732833 0.254199 -0.019746
C30   C     C_R   0.270228 0.229502 0.749970 -0.028151
C31   C     C_R   0.729548 0.770449 0.250069 -0.031307
C32   C     C_R   0.229918 0.729074 0.750686 -0.018151
C33   C     C_R   0.771083 0.269849 0.249622 -0.017709
C34   C     C_R   0.729591 0.229311 0.249959 -0.015775
C35   C     C_1   0.499991 0.999997 0.025390 0.005319
C36   C     C_R   0.270761 0.770143 0.750040 -0.015486
C37   C     C_R   0.770238 0.729771 0.250076 -0.022902
C38   C     C_R   0.229397 0.270313 0.749920 -0.031473
C39   C     C_R   0.266949 0.773878 0.253915 -0.016660
C40   C     C_R   0.728370 0.230494 0.750410 -0.018653
C41   C     C_R   0.229654 0.270821 0.250004 -0.017965
C42   C     C_R   0.770687 0.729741 0.749200 -0.018398
C43   C     C_R   0.670108 0.712633 0.698288 0.084588
C44   C     C_R   0.326353 0.283747 0.307422 0.082069
C45   C     C_R   0.708653 0.333986 0.705333 0.086285
C46   C     C_1   0.499992 0.000009 0.974613 0.005783
C47   C     C_R   0.270853 0.688340 0.324865 0.076265
C48   C     C_R   0.299906 0.258813 0.668641 0.057771
C49   C     C_R   0.660971 0.702024 0.278222 0.054598
C50   C     C_R   0.285020 0.672484 0.694327 0.094908
C51   C     C_R   0.729476 0.313840 0.321012 0.090034
C52   C     C_R   0.687282 0.273225 0.321784 0.071905
C53   C     C_R   0.323823 0.715696 0.689887 0.075876
C54   C     C_R   0.700975 0.659921 0.273734 0.060281
C55   C     C_R   0.262326 0.303632 0.670833 0.058052
C56   C     C_R   0.311552 0.730751 0.324937 0.080023
C57   C     C_1   1.000000 0.499989 0.025397 0.003197
C58   C     C_R   0.667329 0.292585 0.702818 0.075734
C59   C     C_R   0.284626 0.324997 0.309401 0.074436
C60   C     C_R   0.711663 0.671223 0.696544 0.076085
C61   C     C_R   0.176298 0.218947 0.188784 0.096182
C62   C     C_R   0.827881 0.785275 0.805195 0.087291
C63   C     C_R   0.220162 0.820708 0.185655 0.076907
C64   C     C_R   0.785969 0.171443 0.803251 0.096466
C65   C     C_R   0.840057 0.799110 0.226499 0.059421
C66   C     C_R   0.196514 0.238057 0.829295 0.050998
C67   C     C_R   0.767237 0.189653 0.174996 0.088185
C68   C     C_1   0.000003 0.499991 0.974605 0.003335
C69   C     C_R   0.215999 0.825910 0.807892 0.078997
C70   C     C_R   0.175452 0.783852 0.809431 0.074221
C71   C     C_R   0.809812 0.229476 0.174454 0.072894
C72   C     C_R   0.240821 0.199898 0.831348 0.056906
C73   C     C_R   0.797930 0.839032 0.221860 0.056493
C74   C     C_R   0.826674 0.212846 0.804888 0.066935
C75   C     C_R   0.177471 0.780517 0.187620 0.084719
C76   C     C_R   0.787827 0.827767 0.804980 0.075698
C77   C     C_R   0.218223 0.178727 0.186516 0.072145
C78   C     C_R   0.000005 0.499999 0.879122 0.812239
C79   C     C_R   0.999995 0.499996 0.120880 0.811756
C80   C     C_R   0.499998 0.000006 0.879132 0.813947
C81   C     C_1   0.000008 0.500005 0.430843 -0.147121
C82   C     C_R   0.499998 0.999995 0.120871 0.812884
C83   C     C_R   0.500005 0.000002 0.379119 0.812341
C84   C     C_R   0.499995 0.000001 0.620876 0.811564
C85   C     C_R   0.000003 0.500005 0.379128 0.811696
C86   C     C_R   0.000002 0.499995 0.620867 0.811965
C87   C     C_R   0.105764 0.606003 0.750181 0.798174
C88   C     C_R   0.894457 0.393970 0.249768 0.798408
C89   C     C_R   0.605783 0.894100 0.750007 0.796854
C90   C     C_R   0.393913 0.105630 0.249673 0.796044
C91   C     C_R   0.894416 0.393791 0.750352 0.797266
C92   C     C_1   0.499988 0.000005 0.569161 -0.145139
C93   C     C_R   0.106102 0.605646 0.250355 0.797030
C94   C     C_R   0.393987 0.105941 0.750048 0.799553
C95   C     C_R   0.605912 0.894104 0.249977 0.805423
C96   C     C_R   0.105957 0.394292 0.250064 0.797364
C97   C     C_R   0.894066 0.605715 0.749964 0.797046
C98   C     C_R   0.605816 0.105954 0.250179 0.797839
C99   C     C_R   0.394180 0.894223 0.750090 0.797887
C100  C     C_R   0.894094 0.605899 0.250017 0.803574
C101  C     C_R   0.105929 0.394121 0.749951 0.802500
C102  C     C_R   0.394087 0.894029 0.250113 0.796006
C103  C     C_1   0.500009 0.000005 0.430845 -0.145074
C104  C     C_R   0.605778 0.105836 0.750041 0.798557
C105  C     C_R   0.696890 0.861102 0.775213 -0.222299
C106  C     C_R   0.304560 0.141008 0.221194 -0.234860
C107  C     C_R   0.862427 0.300340 0.771755 -0.240061
C108  C     C_R   0.143807 0.692182 0.219204 -0.218232
C109  C     C_R   0.318853 0.155344 0.791037 -0.219686
C110  C     C_R   0.701899 0.865537 0.236078 -0.214980
C111  C     C_R   0.139478 0.696672 0.775892 -0.234612
C112  C     C_R   0.850288 0.313586 0.211754 -0.228731
C113  C     C_R   0.684835 0.150947 0.212185 -0.222235
C114  C     C_1   0.499994 0.999996 0.069158 -0.138677
C115  C     C_R   0.305065 0.858793 0.778130 -0.226015
C116  C     C_R   0.866435 0.703114 0.241004 -0.219515
C117  C     C_R   0.151732 0.315491 0.788867 -0.217636
C118  C     C_R   0.311462 0.851752 0.214891 -0.231004
C119  C     C_R   0.696811 0.139097 0.774142 -0.222220
C120  C     C_R   0.142407 0.306812 0.220322 -0.225051
C121  C     C_R   0.860147 0.695923 0.775769 -0.218723
C122  C     C_R   0.195207 0.359264 0.278205 -0.223466
C123  C     C_R   0.802326 0.638356 0.725886 -0.224479
C124  C     C_R   0.349616 0.814546 0.288397 -0.225297
C125  C     C_1   0.499993 0.000007 0.930837 -0.137431
C126  C     C_R   0.637254 0.198543 0.727285 -0.223022
C127  C     C_R   0.796916 0.633540 0.259142 -0.218436
C128  C     C_R   0.184563 0.348269 0.711020 -0.218033
C129  C     C_R   0.650893 0.185522 0.288307 -0.233096
C130  C     C_R   0.359611 0.804372 0.722436 -0.227551
C131  C     C_R   0.196964 0.638917 0.725756 -0.220208
C132  C     C_R   0.814338 0.349587 0.286808 -0.220852
C133  C     C_R   0.344433 0.180850 0.709015 -0.219245
C134  C     C_R   0.634489 0.798079 0.263899 -0.214643
C135  C     C_R   0.800695 0.363495 0.731050 -0.220327
C136  C     C_1   0.999991 0.499992 0.069156 -0.140351
C137  C     C_R   0.190353 0.646031 0.284737 -0.225967
C138  C     C_R   0.638600 0.802450 0.726652 -0.222831
C139  C     C_R   0.359500 0.195468 0.276352 -0.220955
C140  C     C_R   0.648062 0.851869 0.750345 -0.020689
C141  C     C_R   0.351595 0.147935 0.249331 -0.014347
C142  C     C_R   0.852017 0.351530 0.750457 -0.016990
C143  C     C_R   0.148224 0.648173 0.250855 -0.020178
C144  C     C_R   0.351720 0.148126 0.750062 -0.042486
C145  C     C_R   0.648137 0.851875 0.249962 -0.048364
C146  C     C_R   0.148044 0.648154 0.750444 -0.020420
C147  C     C_1   0.000011 0.499993 0.930841 -0.139783
C148  C     C_R   0.852431 0.351306 0.249507 -0.019154
C149  C     C_R   0.648058 0.148207 0.250304 -0.018513
C150  C     C_R   0.352032 0.851714 0.750058 -0.014232
C151  C     C_R   0.851788 0.648200 0.250057 -0.046315
C152  C     C_R   0.148121 0.351901 0.749933 -0.041754
C153  C     C_R   0.351559 0.851993 0.250629 -0.022201
C154  C     C_R   0.647733 0.148329 0.750039 -0.020633
C155  C     C_R   0.148415 0.352363 0.249966 -0.018525
C156  C     C_R   0.851580 0.647698 0.750062 -0.020919
C157  C     C_R   0.679656 0.761865 0.724586 0.084678
C158  C     C_1   0.000010 0.499992 0.525386 -0.003403
C159  C     C_R   0.318622 0.236430 0.278004 0.085722
C160  C     C_R   0.759499 0.322935 0.728699 0.079670
C161  C     C_R   0.229355 0.688765 0.288326 0.079940
C162  C     C_R   0.304724 0.222962 0.708944 0.102586
C163  C     C_R   0.674880 0.756825 0.264166 0.104711
C164  C     C_R   0.237745 0.679767 0.723691 0.080825
C165  C     C_R   0.771874 0.310654 0.286486 0.083895
C166  C     C_R   0.689175 0.229248 0.287369 0.076140
C167  C     C_R   0.318674 0.763438 0.720202 0.076334
C168  C     C_R   0.755882 0.673819 0.261096 0.094802
H1    H     H_    0.610484 0.737167 0.650669 0.164468
H2    H     H_    0.314377 0.264766 0.594972 0.187386
H3    H     H_    0.582050 0.674447 0.268773 0.192881
H4    H     H_    0.608085 0.663347 0.326028 0.186357
H5    H     H_    0.259783 0.609872 0.649299 0.172770
H6    H     H_    0.326391 0.620087 0.645716 0.195670
H7    H     H_    0.761058 0.360083 0.375814 0.166999
H8    H     H_    0.692365 0.361830 0.375140 0.206080
H9    H     H_    0.608499 0.253947 0.350043 0.183678
H10   H     H_    0.655818 0.277124 0.390260 0.172250
H11   H     H_    0.392657 0.745385 0.649636 0.177262
H12   H     H_    0.613476 0.669372 0.654833 0.193868
H13   H     H_    0.390515 0.677277 0.659939 0.182098
H14   H     H_    0.703531 0.590584 0.315719 0.178770
H15   H     H_    0.644235 0.595482 0.282895 0.190829
H16   H     H_    0.232237 0.335200 0.607942 0.183748
H17   H     H_    0.300439 0.350712 0.617862 0.187151
H18   H     H_    0.393194 0.733316 0.342066 0.175504
H19   H     H_    0.358893 0.696413 0.381293 0.189886
H20   H     H_    0.591635 0.271373 0.671919 0.169811
H21   H     H_    0.621244 0.321942 0.646211 0.161485
H22   H     H_    0.256283 0.390987 0.349877 0.167173
H23   H     H_    0.382117 0.257014 0.357626 0.166252
H24   H     H_    0.310170 0.364667 0.371243 0.163078
H25   H     H_    0.737678 0.601209 0.659512 0.165172
H26   H     H_    0.684639 0.628978 0.636642 0.160779
H27   H     H_    0.092976 0.220228 0.178253 0.161375
H28   H     H_    0.123541 0.176300 0.142366 0.194602
H29   H     H_    0.911378 0.784539 0.815481 0.167130
H30   H     H_    0.880381 0.825215 0.854638 0.197654
H31   H     H_    0.238484 0.899913 0.163106 0.168241
H32   H     H_    0.177611 0.882499 0.151487 0.174414
H33   H     H_    0.792208 0.087908 0.807903 0.163890
H34   H     H_    0.381746 0.325329 0.353482 0.195303
H35   H     H_    0.828058 0.119354 0.851028 0.204584
H36   H     H_    0.909648 0.797016 0.184844 0.180416
H37   H     H_    0.904378 0.856023 0.218122 0.187156
H38   H     H_    0.171323 0.262745 0.896280 0.192755
H39   H     H_    0.145114 0.200174 0.878196 0.186641
H40   H     H_    0.768353 0.109821 0.152341 0.167518
H41   H     H_    0.793037 0.152581 0.110405 0.211368
H42   H     H_    0.216262 0.909661 0.814239 0.172893
H43   H     H_    0.169620 0.881808 0.847732 0.191754
H44   H     H_    0.116209 0.750296 0.854135 0.172803
H45   H     H_    0.730119 0.398535 0.661191 0.161843
H46   H     H_    0.141452 0.806056 0.874433 0.184638
H47   H     H_    0.879013 0.257654 0.135421 0.181044
H48   H     H_    0.872133 0.190068 0.140120 0.170890
H49   H     H_    0.232097 0.126868 0.866576 0.178182
H50   H     H_    0.231592 0.182747 0.904562 0.191247
H51   H     H_    0.824912 0.918245 0.230876 0.187169
H52   H     H_    0.836990 0.891594 0.173993 0.187387
H53   H     H_    0.893328 0.242889 0.845653 0.188262
H54   H     H_    0.897581 0.176086 0.827945 0.173753
H55   H     H_    0.119125 0.751487 0.140073 0.172596
H56   H     H_    0.662788 0.392995 0.666700 0.196670
H57   H     H_    0.129648 0.816730 0.133034 0.188676
H58   H     H_    0.770123 0.907882 0.829687 0.171909
H59   H     H_    0.834161 0.892213 0.829044 0.164698
H60   H     H_    0.251075 0.115277 0.142640 0.184110
H61   H     H_    0.183654 0.109554 0.157324 0.168914
H62   H     H_    0.699324 0.900104 0.793615 0.120448
H63   H     H_    0.300705 0.102308 0.202198 0.118851
H64   H     H_    0.903838 0.292609 0.784665 0.126330
H65   H     H_    0.110070 0.691091 0.193880 0.131604
H66   H     H_    0.325569 0.128814 0.822092 0.157307
H67   H     H_    0.233336 0.631448 0.369424 0.170296
H68   H     H_    0.710930 0.907927 0.225417 0.160304
H69   H     H_    0.099936 0.702116 0.792987 0.134915
H70   H     H_    0.879885 0.319817 0.183388 0.123404
H71   H     H_    0.680354 0.121449 0.182958 0.149547
H72   H     H_    0.302443 0.895900 0.799723 0.138019
H73   H     H_    0.909521 0.712757 0.233889 0.160314
H74   H     H_    0.122731 0.319847 0.818611 0.157202
H75   H     H_    0.316600 0.880985 0.185766 0.132836
H76   H     H_    0.701744 0.100214 0.793076 0.142210
H77   H     H_    0.106643 0.305503 0.196973 0.138360
H78   H     H_    0.284491 0.659947 0.394009 0.177396
H79   H     H_    0.898273 0.699377 0.795833 0.138406
H80   H     H_    0.197928 0.397721 0.297711 0.127879
H81   H     H_    0.797544 0.597862 0.710263 0.129777
H82   H     H_    0.380940 0.817724 0.316142 0.143359
H83   H     H_    0.596743 0.202514 0.711657 0.124917
H84   H     H_    0.787290 0.590414 0.266220 0.161255
H85   H     H_    0.180314 0.377350 0.681340 0.153470
H86   H     H_    0.622500 0.179097 0.317827 0.122366
H87   H     H_    0.399115 0.800869 0.704885 0.119985
H88   H     H_    0.201200 0.599958 0.707018 0.138939
H89   H     H_    0.371577 0.266744 0.630883 0.181298
H90   H     H_    0.817900 0.380112 0.314958 0.140999
H91   H     H_    0.371038 0.174203 0.678037 0.156249
H92   H     H_    0.592114 0.789070 0.274542 0.160728
H93   H     H_    0.794204 0.404582 0.716790 0.144573
H94   H     H_    0.191479 0.609876 0.307538 0.130692
H95   H     H_    0.598639 0.796896 0.709741 0.142519
H96   H     H_    0.397669 0.199353 0.296170 0.143312
N1    N     N_3   0.616764 0.705100 0.675359 -0.451793
N2    N     N_3   0.365080 0.711238 0.652258 -0.457670
N3    N     N_3   0.686930 0.602504 0.282250 -0.460369
N4    N     N_3   0.261642 0.345753 0.634090 -0.475228
N5    N     N_3   0.355549 0.732389 0.360508 -0.456461
N6    N     N_3   0.614673 0.305757 0.680697 -0.438798
N7    N     N_3   0.293335 0.374634 0.337741 -0.436331
N8    N     N_3   0.700868 0.619770 0.671101 -0.430674
N9    N     N_3   0.128510 0.215652 0.157218 -0.442533
N10   N     N_3   0.875814 0.787892 0.836525 -0.448272
N11   N     N_3   0.216950 0.865609 0.151083 -0.450125
N12   N     N_3   0.378244 0.289592 0.333087 -0.453419
N13   N     N_3   0.791131 0.121458 0.831621 -0.451560
N14   N     N_3   0.897463 0.813292 0.218370 -0.464372
N15   N     N_3   0.155519 0.240151 0.867042 -0.479253
N16   N     N_3   0.762848 0.148714 0.136922 -0.452860
N17   N     N_3   0.209971 0.875520 0.836415 -0.458502
N18   N     N_3   0.128539 0.789016 0.841745 -0.458355
N19   N     N_3   0.849866 0.226548 0.136002 -0.458171
N20   N     N_3   0.249755 0.165808 0.873289 -0.465438
N21   N     N_3   0.809025 0.893615 0.202901 -0.479424
N22   N     N_3   0.870767 0.206953 0.839666 -0.460079
N23   N     N_3   0.699205 0.389213 0.686191 -0.443176
N24   N     N_3   0.126836 0.787074 0.160043 -0.456844
N25   N     N_3   0.795985 0.874793 0.836665 -0.443393
N26   N     N_3   0.214853 0.137640 0.148723 -0.454655
N27   N     N_3   0.273136 0.644202 0.360264 -0.447758
N28   N     N_3   0.332810 0.248703 0.626030 -0.474250
N29   N     N_3   0.606258 0.690872 0.296781 -0.479926
N30   N     N_3   0.293917 0.619569 0.670698 -0.451469
N31   N     N_3   0.727020 0.361184 0.352938 -0.456937
N32   N     N_3   0.641499 0.281280 0.354587 -0.460566
O1    O     O_3   0.000000 0.500000 0.750000 -0.485838
O2    O     O_R   0.954240 0.500000 0.143870 -0.631805
O3    O     O_R   0.500000 0.954240 0.856130 -0.631170
O4    O     O_R   0.500000 0.045760 0.143870 -0.631575
O5    O     O_R   0.454240 1.000000 0.356130 -0.632711
O6    O     O_R   0.545760 0.000000 0.643870 -0.634240
O7    O     O_R   0.000000 0.545760 0.356130 -0.632786
O8    O     O_R   0.000000 0.454240 0.643870 -0.634720
O9    O     O_R   0.545760 1.000000 0.356130 -0.634231
O10   O     O_R   0.454240 0.000000 0.643870 -0.632702
O11   O     O_R   0.000000 0.454240 0.356130 -0.635119
O12   O     O_3   0.000000 0.500000 0.250000 -0.485776
O13   O     O_R   0.000000 0.545760 0.643870 -0.632902
O14   O     O_R   0.110440 0.564520 0.777740 -0.632910
O15   O     O_R   0.889560 0.435480 0.222260 -0.632336
O16   O     O_R   0.564520 0.889560 0.777740 -0.631793
O17   O     O_R   0.435480 0.110440 0.222260 -0.631352
O18   O     O_R   0.889560 0.435480 0.777740 -0.631822
O19   O     O_R   0.110440 0.564520 0.222260 -0.634522
O20   O     O_R   0.435480 0.110440 0.777740 -0.633454
O21   O     O_R   0.564520 0.889560 0.222260 -0.635288
O22   O     O_R   0.110440 0.435480 0.222260 -0.631251
O23   O     O_3   0.500000 1.000000 0.750000 -0.486273
O24   O     O_R   0.889560 0.564520 0.777740 -0.631374
O25   O     O_R   0.564520 0.110440 0.222260 -0.630319
O26   O     O_R   0.435480 0.889560 0.777740 -0.634445
O27   O     O_R   0.889560 0.564520 0.222260 -0.634476
O28   O     O_R   0.110440 0.435480 0.777740 -0.633174
O29   O     O_R   0.435480 0.889560 0.222260 -0.635728
O30   O     O_R   0.564520 0.110440 0.777740 -0.630873
O31   O     O_R   0.610440 0.064520 0.277740 -0.640800
O32   O     O_R   0.389560 0.935480 0.722260 -0.636477
O33   O     O_R   0.064520 0.389560 0.277740 -0.639390
O34   O     O_3   0.500000 0.000000 0.250000 -0.485699
O35   O     O_R   0.935480 0.610440 0.722260 -0.639045
O36   O     O_R   0.389560 0.935480 0.277740 -0.634994
O37   O     O_R   0.610440 0.064520 0.722260 -0.640448
O38   O     O_R   0.935480 0.610440 0.277740 -0.636903
O39   O     O_R   0.064520 0.389560 0.722260 -0.638246
O40   O     O_R   0.610440 0.935480 0.722260 -0.639546
O41   O     O_R   0.389560 0.064520 0.277740 -0.638900
O42   O     O_R   0.064520 0.610440 0.722260 -0.636964
O43   O     O_R   0.935480 0.389560 0.277740 -0.640659
O44   O     O_R   0.389560 0.064520 0.722260 -0.636506
O45   O     O_R   0.954240 0.500000 0.856130 -0.629926
O46   O     O_R   0.610440 0.935480 0.277740 -0.637435
O47   O     O_R   0.935480 0.389560 0.722260 -0.639223
O48   O     O_R   0.064520 0.610440 0.277740 -0.635647
O49   O     O_R   0.045760 0.500000 0.143870 -0.632414
O50   O     O_R   0.500000 0.045760 0.856130 -0.631443
O51   O     O_R   0.500000 0.954240 0.143870 -0.632115
O52   O     O_R   0.045760 0.500000 0.856130 -0.634136
Zn1   Zn    Zn3+2 1.000000 0.565500 0.710070 0.973468
Zn2   Zn    Zn3+2 0.500000 0.934500 0.789930 0.981908
Zn3   Zn    Zn3+2 0.065500 0.500000 0.210070 0.980189
Zn4   Zn    Zn3+2 0.934500 0.500000 0.789930 0.983386
Zn5   Zn    Zn3+2 0.500000 0.934500 0.210070 0.978550
Zn6   Zn    Zn3+2 0.500000 0.065500 0.789930 0.982579
Zn7   Zn    Zn3+2 0.934500 0.500000 0.210070 0.981066
Zn8   Zn    Zn3+2 0.065500 0.500000 0.789930 0.979515
Zn9   Zn    Zn3+2 0.000000 0.434500 0.289930 0.969769
Zn10  Zn    Zn3+2 0.565500 1.000000 0.710070 0.970336
Zn11  Zn    Zn3+2 0.434500 0.000000 0.289930 0.974144
Zn12  Zn    Zn3+2 0.000000 0.434500 0.710070 0.971665
Zn13  Zn    Zn3+2 0.000000 0.565500 0.289930 0.976074
Zn14  Zn    Zn3+2 0.434500 1.000000 0.710070 0.974936
Zn15  Zn    Zn3+2 0.565500 0.000000 0.289930 0.972825
Zn16  Zn    Zn3+2 0.500000 0.065500 0.210070 0.983252

loop_
_geom_bond_atom_site_label_1
_geom_bond_atom_site_label_2
_ccdc_geom_bond_type
C22   C29   A    
C86   O13   A    
C10   C63   A    
C47   N27   S    
O9    Zn15  S    
O6    Zn10  S    
C111  H69   S    
C123  H81   S    
C82   O4    A    
C48   C162  A    
C74   N22   S    
O8    Zn12  S    
H15   N3    S    
C30   C38   A    
O12   Zn3   S    
C7    C42   A    
C95   O46   A    
C130  C167  A    
C135  C142  A    
C66   C72   A    
C75   N24   S    
O44   Zn14  S    
C49   N29   S    
C72   N20   S    
C110  C145  A    
O43   Zn9   S    
O27   Zn7   S    
O26   Zn2   S    
C91   C142  S    
C137  H94   S    
C19   C109  A    
C139  C159  A    
C4    C56   A    
O14   Zn8   S    
O37   Zn10  S    
C45   C160  A    
C79   O2    A    
O34   Zn5   S    
C31   C163  A    
C123  C156  A    
C79   O49   A    
C50   C53   A    
C50   C164  A    
C51   C52   A    
H48   N19   S    
C96   O22   A    
C132  H90   S    
C70   N18   S    
C120  C155  A    
C31   C37   A    
C126  H83   S    
C50   N30   S    
C90   O17   A    
C29   C161  A    
C14   C38   A    
C88   C148  S    
C132  C165  A    
C102  C153  S    
C83   O5    A    
C138  C140  A    
C84   O6    A    
C126  C154  A    
C63   N11   S    
C85   O7    A    
C21   C28   A    
C112  H70   S    
O39   Zn12  S    
C30   C162  A    
C16   C115  A    
C18   C71   A    
H20   N6    S    
O21   Zn5   S    
C7    C123  A    
C64   C74   A    
O11   Zn9   S    
C58   N6    S    
C54   N3    S    
C94   C144  S    
C105  H62   S    
H54   N22   S    
C105  C140  A    
C137  C161  A    
H29   N10   S    
C99   O26   A    
C131  C164  A    
C20   C73   A    
C109  C144  A    
C69   C70   A    
C90   C141  S    
H13   N2    S    
H9    N32   S    
C100  O27   A    
C65   N14   S    
O10   Zn14  S    
C17   C32   A    
C28   C40   A    
C2    C81   T    
C19   C30   A    
O50   Zn6   S    
O34   Zn11  S    
H31   N11   S    
C87   C146  S    
C122  C155  A    
O46   Zn15  S    
C23   C76   A    
C79   C136  S    
C83   C103  S    
C5    C58   A    
C131  C146  A    
O38   Zn13  S    
C32   C36   A    
H67   N27   S    
O23   Zn6   S    
C23   C26   A    
C44   C59   A    
C27   C159  A    
C23   C105  A    
C28   C160  A    
C134  C163  A    
C4    C124  A    
C62   N10   S    
C97   C156  S    
O18   Zn4   S    
C124  H82   S    
O5    Zn11  S    
C127  C151  A    
C3    C55   A    
C128  C152  A    
C61   C77   A    
O7    Zn13  S    
C130  C150  A    
C15   C113  A    
H43   N17   S    
H24   N7    S    
O25   Zn16  S    
C89   C140  S    
O33   Zn9   S    
O22   Zn3   S    
H8    N31   S    
O19   Zn3   S    
C17   C111  A    
C128  H85   S    
O4    Zn16  S    
O13   Zn1   S    
C8    C41   A    
C111  C146  A    
C77   N26   S    
C3    C128  A    
H45   N23   S    
O51   Zn5   S    
C93   O48   A    
C5    C126  A    
C129  C149  A    
C9    C121  A    
H14   N3    S    
C121  H79   S    
C14   C117  A    
C15   C67   A    
O1    Zn8   S    
C66   N15   S    
C97   O35   A    
C20   C110  A    
H34   N12   S    
O32   Zn14  S    
C51   C165  A    
H26   N8    S    
C57   C68   S    
O52   Zn8   S    
C1    C86   S    
C44   C159  A    
C100  O38   A    
C133  C144  A    
C61   N9    S    
H59   N25   S    
H42   N17   S    
C6    C59   A    
C33   C165  A    
C55   N4    S    
C54   C168  A    
C43   C157  A    
C94   O44   A    
C138  H95   S    
H32   N11   S    
O12   Zn7   S    
H1    N1    S    
C85   O11   A    
C24   C103  T    
C71   N19   S    
O2    Zn7   S    
C117  H74   S    
C84   O10   A    
C139  C141  A    
H18   N5    S    
C63   C75   A    
C78   O52   A    
C93   O19   A    
C94   O20   A    
C11   C40   A    
C18   C33   A    
C49   C163  A    
H55   N24   S    
H11   N2    S    
H56   N23   S    
C91   O47   A    
C84   C92   S    
C116  C151  A    
C81   C85   S    
O30   Zn6   S    
C47   C56   A    
C12   C116  A    
C48   C55   A    
C46   C125  T    
C95   C145  S    
C133  C162  A    
O23   Zn14  S    
O23   Zn2   S    
C26   C42   A    
C122  H80   S    
C1    C158  T    
C121  C156  A    
C18   C112  A    
C43   N1    S    
O20   Zn6   S    
O45   Zn4   S    
H2    N28   S    
O1    Zn4   S    
H58   N25   S    
C106  H63   S    
C127  H84   S    
C102  O29   A    
C12   C37   A    
C80   O3    A    
H33   N13   S    
O34   Zn15  S    
C98   O25   A    
C127  C168  A    
H27   N9    S    
C37   C168  A    
C119  H76   S    
C15   C34   A    
H4    N29   S    
C130  H87   S    
O36   Zn11  S    
C96   O33   A    
C107  H64   S    
C62   C76   A    
O23   Zn10  S    
C56   N5    S    
C91   O18   A    
C110  H68   S    
C25   C106  A    
C80   O50   A    
C45   C58   A    
C99   C150  S    
O12   Zn9   S    
H51   N21   S    
C89   O40   A    
H57   N24   S    
H21   N6    S    
O24   Zn4   S    
C131  H88   S    
H49   N20   S    
C101  O39   A    
C36   C167  A    
O40   Zn10  S    
C10   C39   A    
C88   O43   A    
C48   N28   S    
H36   N14   S    
C2    C158  S    
C78   C147  S    
C129  C166  A    
C119  C154  A    
C13   C92   T    
H10   N32   S    
C89   O16   A    
C7    C60   A    
O35   Zn1   S    
C106  C141  A    
O41   Zn11  S    
C134  C145  A    
C116  H73   S    
C88   O15   A    
C135  C160  A    
H6    N30   S    
C12   C65   A    
C101  C152  S    
C45   N23   S    
O1    Zn12  S    
O48   Zn13  S    
C98   O31   A    
H35   N13   S    
C22   C108  A    
C67   C71   A    
H53   N22   S    
C118  C153  A    
C47   C161  A    
C73   N21   S    
C133  H91   S    
O17   Zn16  S    
H19   N5    S    
C5    C40   A    
O15   Zn7   S    
C102  O36   A    
H60   N26   S    
C104  C154  S    
C34   C166  A    
C35   C46   S    
H50   N20   S    
C108  C143  A    
C16   C36   A    
C82   O51   A    
C49   C54   A    
C98   C149  S    
C99   O32   A    
O31   Zn15  S    
H7    N31   S    
H22   N7    S    
C11   C119  A    
H12   N1    S    
O16   Zn2   S    
C9    C42   A    
C35   C114  T    
C25   C77   A    
C78   O45   A    
H61   N26   S    
C115  H72   S    
C96   C155  S    
C80   C125  S    
C53   N2    S    
C32   C164  A    
O3    Zn2   S    
C65   C73   A    
C26   C157  A    
C52   C166  A    
C53   C167  A    
C69   N17   S    
C3    C38   A    
C6    C41   A    
H37   N14   S    
C57   C136  T    
C51   N31   S    
C93   C143  S    
C8    C61   A    
C109  H66   S    
C87   O14   A    
H46   N18   S    
C17   C70   A    
O42   Zn1   S    
C139  H96   S    
C19   C72   A    
H44   N18   S    
C22   C75   A    
H3    N29   S    
C100  C151  S    
O1    Zn1   S    
H78   N27   S    
C9    C62   A    
C132  C148  A    
C113  C149  A    
C82   C114  S    
C11   C64   A    
C21   C74   A    
C97   O24   A    
C52   N32   S    
C112  C148  A    
C13   C24   S    
H52   N21   S    
O49   Zn3   S    
C90   O41   A    
O28   Zn8   S    
C83   O9    A    
C10   C118  A    
C27   C41   A    
C101  O28   A    
C64   N13   S    
C29   C39   A    
C33   C34   A    
C14   C66   A    
C59   N7    S    
C60   N8    S    
C107  C142  A    
C76   N25   S    
C21   C107  A    
C68   C147  T    
C43   C60   A    
O12   Zn13  S    
C135  H93   S    
H16   N4    S    
H47   N19   S    
C120  H77   S    
C6    C122  A    
H23   N12   S    
C118  H75   S    
C8    C120  A    
H39   N15   S    
H40   N16   S    
C108  H65   S    
C44   N12   S    
C16   C69   A    
H30   N10   S    
C25   C27   A    
H41   N16   S    
H5    N30   S    
C4    C39   A    
C86   O8    A    
C104  O37   A    
C138  C157  A    
C115  C150  A    
H38   N15   S    
C117  C152  A    
C137  C143  A    
C87   O42   A    
O34   Zn16  S    
O47   Zn12  S    
C113  H71   S    
C129  H86   S    
H17   N4    S    
C134  H92   S    
H25   N8    S    
C95   O21   A    
C67   N16   S    
C124  C153  A    
C104  O30   A    
H28   N9    S    
H89   N28   S    
C20   C31   A    
O29   Zn5   S    
