data_mof_unit_40539.cif
_audit_creation_date              2012-10-26T21:00:42-0400
_audit_creation_method            fapswitch 2.2
_symmetry_space_group_name_H-M    P1
_symmetry_Int_Tables_number       1
_space_group_crystal_system       triclinic
_cell_length_a                    10.832902
_cell_length_b                    9.491336
_cell_length_c                    10.796019
_cell_angle_alpha                 90.000028
_cell_angle_beta                  89.999249
_cell_angle_gamma                 89.999893
_cell_volume                      1110.03277617

loop_
_atom_site_label
_atom_site_type_symbol
_atom_type_description
_atom_site_fract_x
_atom_site_fract_y
_atom_site_fract_z
_atom_type_partial_charge
Br1   Br    Br    0.710512 0.767892 0.220371 -0.508869
Br2   Br    Br    0.289494 0.767899 0.779630 -0.508866
C1    C     C_R   0.261978 0.499972 0.499852 0.565968
C2    C     C_R   0.488183 0.500581 0.737805 0.577421
C3    C     C_R   0.574488 0.760158 0.105856 0.178977
C4    C     C_R   0.425518 0.760161 0.894144 0.178977
C5    C     C_R   0.540435 0.887169 0.050072 -0.134720
C6    C     C_R   0.459574 0.887171 0.949930 -0.134721
C7    C     C_R   0.474117 0.631313 0.940164 0.014020
C8    C     C_R   0.525887 0.631312 0.059836 0.014020
C9    C     C_R   0.523505 0.502684 0.127050 0.017827
C10   C     C_R   0.476496 0.502685 0.872949 0.017827
C11   C     C_R   0.508198 0.375228 0.063441 -0.154296
C12   C     C_R   0.738022 0.499972 0.500148 0.565969
C13   C     C_R   0.491802 0.375228 0.936559 -0.154295
C14   C     C_R   0.063843 0.371989 0.499948 -0.128978
C15   C     C_R   0.936157 0.371989 0.500049 -0.128979
C16   C     C_R   0.871817 0.500027 0.500079 0.028514
C17   C     C_R   0.128183 0.500027 0.499919 0.028513
C18   C     C_R   0.936150 0.628089 0.500036 -0.105173
C19   C     C_R   0.063850 0.628089 0.499963 -0.105175
C20   C     C_R   0.427746 0.074494 0.418795 0.021438
C21   C     C_R   0.572253 0.074494 0.581205 0.021439
C22   C     C_R   0.427756 0.925473 0.418789 0.047052
C23   C     C_R   0.572244 0.925472 0.581211 0.047053
C24   C     C_R   0.511818 0.500581 0.262195 0.577422
Cu1   Cu    Cu3+1 0.500000 0.640660 0.500000 1.022740
Cu2   Cu    Cu3+1 0.500000 0.359340 0.500000 0.958494
H1    H     H_    0.369876 0.130816 0.353870 0.110065
H2    H     H_    0.111909 0.728182 0.499951 0.155015
H3    H     H_    0.369977 0.869110 0.353806 0.114811
H4    H     H_    0.630022 0.869110 0.646195 0.114811
H5    H     H_    0.630124 0.130815 0.646130 0.110065
H6    H     H_    0.509575 0.275013 0.111482 0.135558
H7    H     H_    0.490425 0.275014 0.888518 0.135559
H8    H     H_    0.575113 0.986215 0.085652 0.140843
H9    H     H_    0.424897 0.986218 0.914351 0.140842
H10   H     H_    0.111883 0.271885 0.499888 0.139265
H11   H     H_    0.888118 0.271886 0.500106 0.139265
H12   H     H_    0.888091 0.728183 0.500047 0.155016
N1    N     N_R   0.500000 0.852070 0.500000 -0.202154
N2    N     N_R   0.500000 0.147940 0.500000 -0.228254
O1    O     O_R   0.319640 0.618740 0.499990 -0.486014
O2    O     O_R   0.680360 0.618740 0.500010 -0.486014
O3    O     O_R   0.319620 0.381170 0.499990 -0.512750
O4    O     O_R   0.680380 0.381170 0.500010 -0.512750
O5    O     O_R   0.500000 0.618810 0.319650 -0.474829
O6    O     O_R   0.500000 0.618810 0.680350 -0.474828
O7    O     O_R   0.499970 0.381240 0.319640 -0.516560
O8    O     O_R   0.500030 0.381240 0.680360 -0.516560

loop_
_geom_bond_atom_site_label_1
_geom_bond_atom_site_label_2
_ccdc_geom_bond_type
Cu1   O6    S    
C14   H10   S    
C1    C17   S    
C20   H1    S    
C2    C10   S    
C19   H2    S    
Cu1   N1    S    
C10   C13   A    
Cu2   O4    S    
C23   H4    S    
C11   C13   A    
C15   C16   A    
C22   H3    S    
C11   H6    S    
C12   O4    A    
Br2   C4    S    
C22   N1    A    
C9    C11   A    
C1    O1    A    
C20   N2    A    
C21   N2    A    
C24   O5    A    
C4    C7    A    
C14   C17   A    
Br1   C3    S    
Cu2   N2    S    
C17   C19   A    
C16   C18   A    
C8    C9    A    
C21   C23   A    
C5    H8    S    
C15   H11   S    
C18   H12   S    
C7    C10   A    
C20   C22   A    
Cu2   O3    S    
C6    H9    S    
Cu1   O5    S    
Cu1   O1    S    
C5    C6    A    
C2    O6    A    
C18   C19   A    
C12   O2    A    
C23   N1    A    
C7    C8    A    
C24   O7    A    
C13   H7    S    
Cu1   Cu2   S    
C3    C5    A    
C12   C16   S    
C4    C6    A    
C9    C24   S    
C3    C8    A    
Cu2   O8    S    
Cu1   O2    S    
C1    O3    A    
C2    O8    A    
C14   C15   A    
C21   H5    S    
Cu2   O7    S    
