data_mof_unit_38944.cif
_audit_creation_date              2012-12-10T17:21:38-0500
_audit_creation_method            fapswitch 2.2
_symmetry_space_group_name_H-M    P1
_symmetry_Int_Tables_number       1
_space_group_crystal_system       triclinic
_cell_length_a                    10.790343
_cell_length_b                    10.816443
_cell_length_c                    9.657488
_cell_angle_alpha                 89.463526
_cell_angle_beta                  89.063201
_cell_angle_gamma                 93.667537
_cell_volume                      1124.6357159

loop_
_atom_site_label
_atom_site_type_symbol
_atom_type_description
_atom_site_fract_x
_atom_site_fract_y
_atom_site_fract_z
_atom_type_partial_charge
C1    C     C_R   0.507578 0.262848 0.502094 0.855398
C2    C     C_3   0.878080 0.495907 0.494461 -0.042823
C3    C     C_3   0.931698 0.606515 0.582331 -0.507307
C4    C     C_3   0.932486 0.517957 0.343472 0.182150
C5    C     C_R   0.523459 0.105682 0.772718 0.363223
C6    C     C_R   0.470216 0.041285 0.887485 -0.175611
C7    C     C_R   0.401338 0.929907 0.870365 -0.193240
C8    C     C_R   0.397966 0.874897 0.740917 -0.147420
C9    C     C_R   0.459983 0.933808 0.625638 0.060646
C10   C     C_R   0.502604 0.059221 0.636141 0.008205
C11   C     C_R   0.519505 0.128663 0.509409 -0.113314
C12   C     C_R   0.260751 0.504855 0.499730 0.873293
C13   C     C_R   0.528873 0.066265 0.383560 -0.141121
C14   C     C_R   0.517178 0.938498 0.380505 -0.183476
C15   C     C_R   0.483297 0.871008 0.500881 -0.071679
C16   C     C_R   0.664351 0.666966 0.139104 -0.101734
C17   C     C_R   0.744952 0.749335 0.065273 -0.169002
C18   C     C_R   0.745160 0.749685 0.922388 -0.182411
C19   C     C_R   0.665135 0.667324 0.852364 -0.113339
C20   C     C_R   0.581148 0.581970 0.923178 0.186970
C21   C     C_R   0.580374 0.582431 0.072269 0.155005
C22   C     C_R   0.425565 0.418843 0.077747 0.448320
C23   C     C_R   0.491565 0.736768 0.499854 0.763355
C24   C     C_R   0.419832 0.422474 0.930274 0.182004
C25   C     C_R   0.739800 0.498659 0.498521 0.761783
C26   C     C_3   0.067808 0.373332 0.543426 0.132546
C27   C     C_3   0.923807 0.373678 0.561528 -0.056335
C28   C     C_3   0.074036 0.605093 0.591196 -0.447086
C29   C     C_3   0.075954 0.529321 0.345202 0.197213
C30   C     C_3   0.122704 0.503797 0.495395 -0.066509
Cu1   Cu    Cu3+1 0.499990 0.499990 0.640660 0.959810
Cu2   Cu    Cu3+1 0.500010 0.500010 0.359340 1.041582
H1    H     H_    0.106143 0.351174 0.645019 0.122084
H2    H     H_    0.898451 0.606248 0.303530 0.157495
H3    H     H_    0.117580 0.697974 0.562605 0.231291
H4    H     H_    0.906628 0.695945 0.535787 0.191353
H5    H     H_    0.546390 0.116254 0.286745 0.194632
H6    H     H_    0.484165 0.076714 0.991007 0.191994
H7    H     H_    0.356978 0.882394 0.958956 0.188208
H8    H     H_    0.346046 0.786491 0.731887 0.166511
H9    H     H_    0.533635 0.892760 0.283201 0.167200
H10   H     H_    0.672227 0.672472 0.248398 0.181665
H11   H     H_    0.808112 0.813016 0.119623 0.172872
H12   H     H_    0.808253 0.813917 0.865015 0.159640
H13   H     H_    0.673160 0.674536 0.742811 0.188747
H14   H     H_    0.904852 0.381765 0.674891 0.182066
H15   H     H_    0.098990 0.588511 0.699820 0.183177
H16   H     H_    0.891681 0.602148 0.689314 0.211414
H17   H     H_    0.112823 0.461292 0.272297 0.232349
N1    N     N_R   0.501200 0.501210 0.147910 -0.235684
N2    N     N_R   0.501250 0.501290 0.852040 -0.214440
O1    O     O_R   0.499990 0.319640 0.618810 -0.565883
O2    O     O_R   0.500000 0.319660 0.381240 -0.510523
O3    O     O_R   0.317680 0.499970 0.618790 -0.624985
O4    O     O_R   0.317700 0.499990 0.381210 -0.498880
O5    O     O_R   0.500000 0.680340 0.618760 -0.619676
O6    O     O_R   0.500010 0.680360 0.381190 -0.596929
O7    O     O_R   0.682300 0.500010 0.618790 -0.576469
O8    O     O_R   0.682320 0.500030 0.381210 -0.570186
Cl1   Cl    Cl    0.640310 0.220698 0.813299 -0.640746
Cl2   Cl    Cl    0.335700 0.303101 0.171789 -0.557033
Cl3   Cl    Cl    0.120966 0.254651 0.430676 -0.573206
C31   C     C_3   0.318285 0.338454 0.866569 -0.327306
C32   C     C_3   0.189041 0.382026 0.901807 -0.760241
H18   H     H_    0.177364 0.471371 0.849898 0.234210
H19   H     H_    0.173482 0.397188 0.013582 0.301918
H20   H     H_    0.116323 0.311651 0.869248 0.245202
H21   H     H_    0.326460 0.328973 0.754724 0.252258
H22   H     H_    0.323956 0.242439 0.905863 0.219701
C33   C     C_3   0.851504 0.250626 0.520566 -0.263363
C34   C     C_3   0.879058 0.140753 0.614579 -0.743788
H23   H     H_    0.970217 0.104555 0.589016 0.283343
H24   H     H_    0.879116 0.167447 0.725183 0.279227
H25   H     H_    0.806899 0.064156 0.600424 0.236846
H26   H     H_    0.751072 0.262402 0.530461 0.195057
H27   H     H_    0.869740 0.225404 0.411752 0.285582
Cl4   Cl    Cl    0.133462 0.678305 0.277703 -0.646260
Cl5   Cl    Cl    0.880505 0.403206 0.219955 -0.589544

loop_
_geom_bond_atom_site_label_1
_geom_bond_atom_site_label_2
_ccdc_geom_bond_type
C28   H15   S    
C16   C21   A    
C19   C20   A    
C1    C11   S    
Cu1   O1    S    
C7    C8    A    
C29   H17   S    
C26   C27   S    
Cu1   O7    S    
C3    C28   S    
C20   N2    A    
C5    C6    A    
C3    H16   S    
C18   C19   A    
C1    O2    A    
C31   H22   S    
C28   H3    S    
C8    C9    A    
C6    H6    S    
C2    C27   S    
Cu1   O5    S    
C9    C10   A    
Cu2   O4    S    
C13   H5    S    
C4    C29   S    
C22   N1    A    
C24   N2    A    
C15   C23   S    
C13   C14   A    
Cu2   O6    S    
C21   N1    A    
C4    H2    S    
C32   H20   S    
C23   O5    A    
C34   H24   S    
C16   C17   A    
C32   H19   S    
C2    C4    S    
C17   H11   S    
C4    Cl5   S    
C29   C30   S    
C18   H12   S    
C26   H1    S    
Cu1   Cu2   S    
C17   C18   A    
Cu2   N1    S    
C33   C34   S    
C27   C33   S    
C14   H9    S    
C27   H14   S    
C26   C30   S    
C24   C31   S    
C33   H27   S    
C22   C24   A    
C25   O7    A    
C16   H10   S    
Cu2   O2    S    
C23   O6    A    
C31   H21   S    
C5    Cl1   S    
C12   C30   S    
Cu1   N2    S    
C34   H25   S    
C19   H13   S    
C6    C7    A    
C8    H8    S    
C32   H18   S    
C28   C30   S    
C2    C3    S    
C9    C15   A    
C5    C10   A    
C22   Cl2   S    
C11   C13   A    
C3    H4    S    
C2    C25   S    
Cu1   O3    S    
C26   Cl3   S    
C1    O1    A    
C12   O4    A    
C10   C11   A    
C31   C32   S    
C34   H23   S    
C29   Cl4   S    
C20   C21   A    
C33   H26   S    
C7    H7    S    
C14   C15   A    
C25   O8    A    
Cu2   O8    S    
C12   O3    A    
