data_mof_unit_26435.cif
_audit_creation_date              2012-12-10T19:33:10-0500
_audit_creation_method            fapswitch 2.2
_symmetry_space_group_name_H-M    P1
_symmetry_Int_Tables_number       1
_space_group_crystal_system       triclinic
_cell_length_a                    8.725663
_cell_length_b                    15.802188
_cell_length_c                    17.043336
_cell_angle_alpha                 95.80341
_cell_angle_beta                  90.953509
_cell_angle_gamma                 84.612983
_cell_volume                      2327.58166256

loop_
_atom_site_label
_atom_site_type_symbol
_atom_type_description
_atom_site_fract_x
_atom_site_fract_y
_atom_site_fract_z
_atom_type_partial_charge
C1    C     C_R   0.502050 0.489923 0.348446 0.883150
C2    C     C_R   0.503109 0.509785 0.651443 0.900178
C3    C     C_R   0.416150 0.758679 0.466927 0.108665
C4    C     C_R   0.594882 0.239645 0.524671 0.094598
C5    C     C_R   0.421800 0.847497 0.468327 -0.259517
C6    C     C_R   0.589051 0.150848 0.523400 -0.270023
C7    C     C_R   0.534874 0.888354 0.514242 0.386309
C8    C     C_R   0.464917 0.111551 0.485742 0.388524
C9    C     C_R   0.638546 0.837304 0.557414 -0.294187
C10   C     C_R   0.351236 0.164010 0.449983 -0.295752
C11   C     C_R   0.628609 0.748756 0.554478 0.082401
C12   C     C_R   0.361210 0.252555 0.452940 0.058724
C13   C     C_R   0.205453 0.521850 0.500875 0.859397
C14   C     C_R   0.794530 0.478141 0.498881 0.946504
C15   C     C_2   0.040611 0.533897 0.501309 -0.322116
C16   C     C_2   0.959348 0.466087 0.498299 -0.305601
C17   C     C_R   0.497704 0.485502 0.262009 -0.210933
C18   C     C_R   0.496951 0.515568 0.737594 -0.227937
C19   C     C_R   0.573026 0.542067 0.219688 0.328800
C20   C     C_R   0.583488 0.456620 0.781916 0.414173
C21   C     C_R   0.552584 0.538881 0.138086 -0.320280
C22   C     C_R   0.564353 0.463242 0.863465 -0.292524
C23   C     C_R   0.464745 0.478171 0.097475 0.216833
C24   C     C_R   0.462154 0.527727 0.901720 0.199670
C25   C     C_R   0.394683 0.420381 0.139171 0.464354
C26   C     C_R   0.377312 0.586441 0.857672 0.469120
C27   C     C_R   0.412338 0.423974 0.220841 -0.347657
C28   C     C_R   0.397789 0.581157 0.776277 -0.362569
Cu1   Cu    Cu3+1 0.492520 0.415770 0.496210 0.997423
Cu2   Cu    Cu3+1 0.507480 0.584230 0.503790 1.002921
H1    H     H_    0.985943 0.598854 0.504127 0.181140
H2    H     H_    0.013974 0.401125 0.495476 0.167414
H3    H     H_    0.632568 0.419432 0.897969 0.216571
H4    H     H_    0.611587 0.581007 0.105186 0.215267
H5    H     H_    0.356673 0.379132 0.252254 0.187859
H6    H     H_    0.332000 0.627066 0.742841 0.189339
H7    H     H_    0.690856 0.268883 0.553365 0.173886
H8    H     H_    0.329960 0.727885 0.431026 0.136290
H9    H     H_    0.681033 0.113790 0.551462 0.159482
H10   H     H_    0.338993 0.883271 0.433478 0.159882
H11   H     H_    0.727134 0.866061 0.593323 0.150094
H12   H     H_    0.254590 0.136386 0.419993 0.150479
H13   H     H_    0.709430 0.710376 0.588105 0.125480
H14   H     H_    0.272462 0.291831 0.424974 0.127570
N1    N     N_2   0.458801 0.468703 0.014171 -0.215793
N2    N     N_2   0.452330 0.538119 0.984886 -0.220735
N3    N     N_R   0.518730 0.710760 0.509500 -0.165001
N4    N     N_R   0.481270 0.289240 0.490500 -0.174802
N5    N     N_2   0.549902 0.978673 0.518548 -0.231369
N6    N     N_2   0.449829 0.021248 0.481512 -0.233589
O1    O     O_R   0.493000 0.421040 0.382520 -0.604594
O2    O     O_R   0.507000 0.578960 0.617480 -0.609671
O3    O     O_R   0.505640 0.563310 0.388930 -0.520267
O4    O     O_R   0.494360 0.436690 0.611070 -0.517283
O5    O     O_R   0.269980 0.445280 0.497530 -0.592661
O6    O     O_R   0.730020 0.554720 0.502470 -0.569415
O7    O     O_R   0.282610 0.587550 0.503940 -0.605474
O8    O     O_R   0.717390 0.412450 0.496060 -0.590684
S1    S     S_3+6 0.721661 0.376473 0.739541 -0.007569
O9    O     O_2   0.800744 0.407097 0.671517 -0.326257
O10   O     O_2   0.840415 0.352687 0.800433 -0.306854
O11   O     O_3   0.630778 0.290029 0.708013 -0.521961
H15   H     H_    0.713450 0.242623 0.700012 0.363453
S2    S     S_3+6 0.704943 0.611648 0.264371 0.015486
O12   O     O_2   0.804802 0.566475 0.322802 -0.279812
O13   O     O_2   0.806363 0.639773 0.203340 -0.298935
O14   O     O_3   0.607843 0.698401 0.311511 -0.490911
H16   H     H_    0.537186 0.721667 0.271229 0.337477
O15   O     O_3   0.316378 0.356368 0.100011 -0.589616
C29   C     C_3   0.167152 0.389921 0.078444 0.082991
H17   H     H_    0.133513 0.351848 0.023521 0.190609
H18   H     H_    0.161225 0.457688 0.064422 0.130890
C30   C     C_3   0.051463 0.380892 0.143031 -0.379803
H19   H     H_    0.059742 0.313448 0.157127 0.236494
H20   H     H_    0.078693 0.422045 0.197293 0.230844
C31   C     C_3   0.887192 0.406926 0.117029 -0.813681
H21   H     H_    0.875972 0.474618 0.103766 0.271365
H22   H     H_    0.806529 0.399762 0.165101 0.263910
H23   H     H_    0.855413 0.365648 0.063709 0.256426
O16   O     O_3   0.278234 0.651688 0.893983 -0.590878
C32   C     C_3   0.138614 0.619438 0.912776 0.084722
H24   H     H_    0.088026 0.661004 0.964122 0.184546
H25   H     H_    0.154749 0.553440 0.931408 0.135856
C33   C     C_3   0.024417 0.622834 0.843542 -0.382607
H26   H     H_    0.008361 0.688974 0.826022 0.234401
H27   H     H_    0.070584 0.579501 0.792253 0.228668
C34   C     C_3   0.868707 0.595615 0.865371 -0.831157
H28   H     H_    0.881854 0.528980 0.881625 0.273571
H29   H     H_    0.788952 0.598852 0.814096 0.260341
H30   H     H_    0.817864 0.638719 0.915681 0.255934

loop_
_geom_bond_atom_site_label_1
_geom_bond_atom_site_label_2
_ccdc_geom_bond_type
C14   O6    A    
C34   H28   S    
C23   N1    S    
C2    C18   S    
C30   H19   S    
C11   N3    A    
C31   H23   S    
C12   N4    A    
C32   H24   S    
N1    N2    D    
Cu1   Cu2   S    
C19   C21   A    
C24   C26   A    
C4    N4    A    
C10   H12   S    
Cu1   O4    S    
C15   C16   D    
Cu2   O7    S    
C1    O3    A    
C16   H2    S    
C3    H8    S    
C4    H7    S    
C33   C34   S    
C11   H13   S    
C29   H17   S    
C18   C20   A    
S1    O9    D    
C30   H20   S    
C1    C17   S    
C10   C12   A    
C32   H25   S    
C14   O8    A    
Cu2   O3    S    
S1    O10   D    
Cu1   N4    S    
O14   H16   S    
C17   C27   A    
S2    O14   S    
Cu2   N3    S    
C18   C28   A    
C31   H21   S    
C7    N5    S    
C4    C6    A    
C2    O4    A    
C5    C7    A    
C6    C8    A    
C21   H4    S    
Cu1   O5    S    
C27   H5    S    
Cu2   O6    S    
C26   O16   S    
S2    O13   D    
O11   H15   S    
C1    O1    A    
C13   C15   S    
C19   S2    S    
C29   C30   S    
C33   H26   S    
C20   S1    S    
C9    C11   A    
C2    O2    A    
C20   C22   A    
C34   H29   S    
C30   C31   S    
C22   C24   A    
C5    H10   S    
C25   O15   S    
C8    N6    S    
C32   C33   S    
Cu1   O1    S    
C7    C9    A    
C22   H3    S    
Cu2   O2    S    
S1    O11   S    
C26   C28   A    
C31   H22   S    
O16   C32   S    
C3    C5    A    
C15   H1    S    
C25   C27   A    
C9    H11   S    
C24   N2    S    
S2    O12   D    
C21   C23   A    
C12   H14   S    
C3    N3    A    
C17   C19   A    
C14   C16   S    
C23   C25   A    
O15   C29   S    
C13   O7    A    
Cu1   O8    S    
C28   H6    S    
C8    C10   A    
N5    N6    D    
C34   H30   S    
C6    H9    S    
C33   H27   S    
C29   H18   S    
C13   O5    A    
