data_mof_unit_35122.cif
_audit_creation_date              2013-03-05T15:40:55-0500
_audit_creation_method            fapswitch 2.2
_symmetry_space_group_name_H-M    P1
_symmetry_Int_Tables_number       1
_space_group_crystal_system       triclinic
_cell_length_a                    11.806685
_cell_length_b                    11.950772
_cell_length_c                    19.232488
_cell_angle_alpha                 89.866157
_cell_angle_beta                  90.00238
_cell_angle_gamma                 120.023935
_cell_volume                      2349.54458348

loop_
_atom_site_label
_atom_site_type_symbol
_atom_site_description
_atom_site_fract_x
_atom_site_fract_y
_atom_site_fract_z
_atom_type_partial_charge
O1    O     O_R   0.434830 0.101190 0.575190 -0.487170
O2    O     O_R   0.898810 0.333640 0.575190 -0.489544
O3    O     O_R   0.666360 0.565170 0.575190 -0.485040
O4    O     O_R   0.480130 0.360720 0.570290 -0.495982
O5    O     O_R   0.639280 0.119410 0.570290 -0.494475
O6    O     O_R   0.880590 0.519870 0.570290 -0.493461
C1    C     C_R   0.550852 0.476911 0.596574 0.545914
C2    C     C_R   0.522328 0.073618 0.596527 0.549058
C3    C     C_R   0.923508 0.447071 0.597054 0.545565
O7    O     O_R   0.439410 0.104260 0.424150 -0.445274
O8    O     O_R   0.895740 0.335150 0.424150 -0.443399
O9    O     O_R   0.664850 0.560590 0.424150 -0.443606
O10   O     O_R   0.484380 0.363570 0.430280 -0.487311
O11   O     O_R   0.636430 0.120810 0.430280 -0.485615
O12   O     O_R   0.879190 0.515620 0.430280 -0.487189
C4    C     C_R   0.547922 0.479261 0.406106 0.573689
C5    C     C_R   0.520417 0.068882 0.405930 0.578045
C6    C     C_R   0.930136 0.451409 0.405880 0.577105
Cr1   Cr    Cr6+3 0.468420 0.238090 0.499960 1.127231
Cr2   Cr    Cr6+3 0.761910 0.230330 0.499960 1.126459
Cr3   Cr    Cr6+3 0.769670 0.531580 0.499960 1.129798
O13   O     O_3   0.666667 0.333333 0.499980 -0.323744
C7    C     C_1   0.033850 0.514915 0.859172 0.006465
C8    C     C_1   0.452541 0.565798 0.847773 -0.005014
C9    C     C_1   0.434029 0.886673 0.847690 -0.009008
C10   C     C_1   0.995317 0.495652 0.726351 -0.023733
C11   C     C_1   0.483300 0.522548 0.718478 -0.016663
C12   C     C_1   0.476014 0.960313 0.718303 -0.016536
C13   C     C_1   0.013673 0.507109 0.798072 -0.030705
C14   C     C_1   0.463769 0.545690 0.787743 -0.024886
C15   C     C_1   0.453695 0.917809 0.787598 -0.026227
C16   C     C_1   0.971724 0.478865 0.665687 0.025300
C17   C     C_1   0.508501 0.502235 0.661054 0.025266
C18   C     C_1   0.496063 0.005824 0.660902 0.026110
C19   C     C_2   0.016505 0.509512 0.346961 -0.070839
C20   C     C_2   0.488071 0.513610 0.349860 -0.067478
C21   C     C_2   0.486286 0.975098 0.349844 -0.072385
C22   C     C_2   0.039109 0.513137 0.196676 -0.136651
C23   C     C_2   0.448213 0.562089 0.205648 -0.159092
C24   C     C_2   0.437645 0.892276 0.205367 -0.155529
C25   C     C_2   0.105953 0.479176 0.240868 -0.150507
C26   C     C_2   0.511923 0.656830 0.251932 -0.162570
C27   C     C_2   0.343867 0.845380 0.254147 -0.159563
C28   C     C_2   0.075970 0.453854 0.314871 0.171518
C29   C     C_2   0.540343 0.634763 0.323880 0.190413
C30   C     C_2   0.363987 0.902056 0.324446 0.192997
H1    H     H_    0.962740 0.532416 0.213233 0.101306
H2    H     H_    0.405238 0.460725 0.218594 0.130750
H3    H     H_    0.536063 0.970433 0.215526 0.126681
H4    H     H_    0.014081 0.590589 0.322847 0.119872
H5    H     H_    0.405169 0.432507 0.325506 0.119480
H6    H     H_    0.568358 0.973872 0.325327 0.114973
O14   O     O_R   0.548200 0.655360 0.951320 -0.483378
O15   O     O_R   0.344640 0.892840 0.951320 -0.468079
O16   O     O_R   0.107160 0.451800 0.951320 -0.505437
O17   O     O_R   0.505020 0.871000 0.955840 -0.486305
O18   O     O_R   0.129000 0.634020 0.955840 -0.518111
O19   O     O_R   0.365980 0.494980 0.955840 -0.463065
C31   C     C_R   0.408164 0.850817 0.919142 0.536925
C32   C     C_R   0.075027 0.527280 0.929127 0.548063
C33   C     C_R   0.441979 0.591281 0.919195 0.533750
O20   O     O_R   0.543640 0.655270 0.102360 -0.466149
O21   O     O_R   0.344730 0.888370 0.102360 -0.448431
O22   O     O_R   0.111630 0.456360 0.102360 -0.499689
O23   O     O_R   0.500790 0.870920 0.095850 -0.481068
O24   O     O_R   0.129080 0.629870 0.095850 -0.507140
O25   O     O_R   0.370130 0.499210 0.095850 -0.459941
C34   C     C_R   0.406403 0.845997 0.134623 0.535973
C35   C     C_R   0.074359 0.525740 0.123903 0.557526
C36   C     C_R   0.437956 0.593044 0.134005 0.535219
Cr4   Cr    Cr6+3 0.515700 0.760130 0.026360 1.053808
Cr5   Cr    Cr6+3 0.239870 0.755570 0.026360 1.042453
Cr6   Cr    Cr6+3 0.244430 0.484300 0.026360 1.050982
O26   O     O_3   0.333333 0.666667 0.026340 -0.337512
H7    H     H_    0.180848 0.460236 0.221144 0.166328
H8    H     H_    0.554870 0.756266 0.234586 0.159362
H9    H     H_    0.245714 0.770470 0.240091 0.152524
N1    N     N_R   0.109257 0.367976 0.350540 0.103119
O27   O     O_R   0.118825 0.279553 0.316004 -0.306455
O28   O     O_R   0.149770 0.390728 0.414661 -0.302167
N2    N     N_R   0.629483 0.745844 0.364208 0.103418
O29   O     O_R   0.604899 0.753718 0.429435 -0.300326
O30   O     O_R   0.723264 0.847130 0.333594 -0.303196
N3    N     N_R   0.250491 0.879180 0.363759 0.104866
O31   O     O_R   0.242800 0.852369 0.429835 -0.299310
O32   O     O_R   0.146855 0.864546 0.331704 -0.303355

loop_
_geom_bond_atom_site_label_1
_geom_bond_atom_site_label_2
_geom_bond_distance
_ccdc_geom_bond_type
C9    C15   1.199846 T    
O12   C6    1.278476 A    
O8    C6    1.285248 A    
C10   C16   1.193395 T    
C8    C33   1.426574 S    
O1    C2    1.297753 A    
Cr6   O26   1.887421 S    
O6    C3    1.310611 A    
N2    O29   1.301829 A    
O5    Cr2   1.937570 S    
C11   C17   1.200298 T    
C7    C13   1.193556 T    
N3    O32   1.301590 A    
O3    C1    1.303862 A    
N1    O28   1.301884 A    
O24   C35   1.203925 A    
O7    C5    1.273453 A    
C24   H3    1.084215 S    
O20   C36   1.244887 A    
C3    C16   1.413021 S    
O4    Cr1   1.950113 S    
O14   C33   1.257793 A    
C24   C27   1.340465 D    
O24   Cr5   1.943751 S    
O9    C4    1.276611 A    
O22   Cr6   2.044593 S    
O25   Cr6   1.938234 S    
C6    C19   1.447020 S    
O23   C34   1.246409 A    
O19   C33   1.260634 A    
C22   C35   1.446065 S    
C12   C18   1.199571 T    
Cr3   O13   2.051521 S    
C11   C14   1.403504 S    
C1    C17   1.425747 S    
O11   C5    1.277199 A    
O4    C1    1.312952 A    
N2    O30   1.301280 A    
C23   C26   1.338857 D    
O15   C31   1.255443 A    
C7    C32   1.413262 S    
O8    Cr2   2.050018 S    
O1    Cr1   2.065685 S    
O10   Cr1   1.946288 S    
O2    Cr2   2.059464 S    
O11   Cr2   1.942016 S    
Cr1   O13   2.026830 S    
N3    O31   1.301870 A    
C22   C25   1.352336 D    
Cr5   O26   1.876112 S    
C21   H6    1.084344 S    
N1    O27   1.301292 A    
O18   C32   1.219353 A    
C5    C21   1.461413 S    
O23   Cr4   1.952361 S    
O6    Cr3   1.935610 S    
O9    Cr3   2.050478 S    
C26   C29   1.477713 S    
C25   H7    1.085251 S    
O7    Cr1   2.064889 S    
O17   Cr4   1.941585 S    
C19   H4    1.086456 S    
C20   C29   1.352533 D    
C2    C18   1.424562 S    
O22   C35   1.191442 A    
C19   C28   1.336244 D    
C22   H1    1.084317 S    
C20   H5    1.081460 S    
C30   N3    1.440338 S    
Cr2   O13   2.040844 S    
C25   C28   1.460619 S    
O3    Cr3   2.057957 S    
O5    C2    1.305120 A    
O14   Cr4   2.070525 S    
O21   C34   1.240620 A    
C12   C15   1.402306 S    
C29   N2    1.441553 S    
Cr4   O26   1.864649 S    
C27   H9    1.086459 S    
C26   H8    1.084301 S    
O17   C31   1.260456 A    
O25   C36   1.241938 A    
C28   N1    1.441758 S    
C4    C20   1.458141 S    
C23   C36   1.446536 S    
O20   Cr4   2.054457 S    
O18   Cr5   1.941462 S    
C27   C30   1.478636 S    
C8    C14   1.200591 T    
O16   Cr6   2.057393 S    
O12   Cr3   1.937132 S    
O15   Cr5   2.064588 S    
O21   Cr5   2.057283 S    
C10   C13   1.392674 S    
C24   C34   1.446522 S    
O10   C4    1.284360 A    
C9    C31   1.425341 S    
C21   C30   1.351348 D    
O16   C32   1.216732 A    
O2    C3    1.306343 A    
O19   Cr6   1.931670 S    
C23   H2    1.081853 S    
