data_mof_unit_13543.cif
_audit_creation_date              2013-03-05T15:42:46-0500
_audit_creation_method            fapswitch 2.2
_symmetry_space_group_name_H-M    P1
_symmetry_Int_Tables_number       1
_space_group_crystal_system       triclinic
_cell_length_a                    9.69374
_cell_length_b                    10.929923
_cell_length_c                    13.421011
_cell_angle_alpha                 90.479383
_cell_angle_beta                  72.223353
_cell_angle_gamma                 90.382374
_cell_volume                      1354.02661817

loop_
_atom_site_label
_atom_site_type_symbol
_atom_site_description
_atom_site_fract_x
_atom_site_fract_y
_atom_site_fract_z
_atom_type_partial_charge
O1    O     O_R   0.382960 0.678040 0.499980 -0.581125
O2    O     O_R   0.617100 0.678080 0.500020 -0.528655
C1    C     C_R   0.499921 0.734675 0.500870 0.865889
O3    O     O_R   0.325800 0.499940 0.650950 -0.570029
O4    O     O_R   0.559930 0.499980 0.650990 -0.549106
C2    C     C_R   0.422038 0.494043 0.700207 0.797577
Cu1   Cu    Cu3+1 0.361370 0.499980 0.499980 0.986093
Cu2   Cu    Cu3+1 0.638630 0.500020 0.500020 1.035013
O5    O     O_R   0.382900 0.321920 0.499980 -0.559492
O6    O     O_R   0.617040 0.321960 0.500020 -0.588287
O7    O     O_R   0.440070 0.500020 0.349010 -0.588654
O8    O     O_R   0.674200 0.500060 0.349050 -0.544663
C3    C     C_R   0.500349 0.265307 0.498087 0.843696
C4    C     C_R   0.578645 0.497182 0.299366 0.791403
C5    C     C_R   0.781221 0.386677 0.025288 -0.176826
H1    H     H_    0.882364 0.342018 0.984996 0.211225
C6    C     C_R   0.625685 0.479488 0.184542 -0.116236
C7    C     C_R   0.237742 0.538159 0.869592 -0.145506
C8    C     C_R   0.197554 0.554025 0.977233 -0.110779
C9    C     C_R   0.294762 0.527790 0.031851 -0.146544
C10   C     C_R   0.434031 0.479799 0.979672 0.079927
C11   C     C_R   0.466641 0.449369 0.872223 0.042330
C12   C     C_R   0.541864 0.461123 0.030208 0.045067
C13   C     C_R   0.674603 0.403072 0.975333 0.016485
C14   C     C_R   0.696683 0.359847 0.872468 0.344015
C15   C     C_R   0.590821 0.379428 0.824050 -0.207814
C16   C     C_R   0.522246 0.500661 0.133415 -0.211985
C17   C     C_R   0.760230 0.426667 0.127956 -0.028359
C18   C     C_R   0.373681 0.489538 0.815485 -0.067959
H2    H     H_    0.425720 0.548406 0.176966 0.154758
H3    H     H_    0.163585 0.567209 0.828309 0.177945
H4    H     H_    0.256014 0.544087 0.114978 0.149800
H5    H     H_    0.092078 0.591265 0.018159 0.175593
H6    H     H_    0.608588 0.339998 0.747069 0.185144
C19   C     C_2   0.615638 0.067525 0.493294 -0.129665
C20   C     C_2   0.500264 0.133241 0.491393 -0.304249
H7    H     H_    0.713883 0.112677 0.497554 0.190682
H8    H     H_    0.403626 0.091405 0.481682 0.159442
C21   C     C_2   0.617522 0.933634 0.487196 -0.092252
C22   C     C_2   0.496134 0.866726 0.506200 -0.301339
H9    H     H_    0.722474 0.889498 0.468185 0.203186
H10   H     H_    0.389585 0.907591 0.528110 0.156973
C23   C     C_2   0.047811 0.551235 0.573009 -0.057013
N1    N     N_2   0.152660 0.501340 0.501130 -0.301842
H11   H     H_    0.071712 0.592725 0.639639 0.186502
H12   H     H_    0.132894 0.469952 0.434422 0.192875
C24   C     C_2   0.895294 0.562447 0.567360 0.416204
N2    N     N_2   0.846520 0.501370 0.501160 -0.327330
H13   H     H_    0.912990 0.437379 0.454007 0.176731
C25   C     C_2   0.881894 0.409599 0.171553 0.834723
O9    O     O_2   0.927891 0.496166 0.210469 -0.602969
O10   O     O_R   0.950232 0.295951 0.161716 -0.753725
H14   H     H_    0.034144 0.296212 0.191970 0.330803
N3    N     N_R   0.801798 0.644323 0.640807 0.155117
O11   O     O_R   0.791381 0.756568 0.612795 -0.356801
O12   O     O_R   0.768738 0.620295 0.740101 -0.359850
N4    N     N_R   0.828094 0.299677 0.813954 0.115177
O13   O     O_R   0.821568 0.200353 0.761422 -0.339405
O14   O     O_R   0.951360 0.357174 0.794729 -0.371913

loop_
_geom_bond_atom_site_label_1
_geom_bond_atom_site_label_2
_geom_bond_distance
_ccdc_geom_bond_type
O4    Cu2   1.934818 S    
C19   C21   1.464947 S    
C23   N1    1.288777 D    
Cu2   N2    2.019910 S    
C13   C14   1.408880 A    
C11   C18   1.419337 A    
C12   C16   1.404185 A    
C25   O10   1.397878 S    
C19   C20   1.340093 D    
O8    C4    1.296154 A    
Cu2   O8    1.948762 S    
C8    C9    1.391545 A    
C22   H10   1.082247 S    
C25   O9    1.222759 D    
C5    C17   1.396774 A    
Cu1   Cu2   2.687848 S    
C21   H9    1.085748 S    
C7    C18   1.401710 A    
O1    Cu1   1.956014 S    
C10   C11   1.416038 A    
O10   H14   1.013979 S    
C16   H2    1.075619 S    
Cu1   O7    1.934819 S    
C23   H11   1.085046 S    
C4    C6    1.478952 S    
N4    O13   1.301201 A    
C14   N4    1.436537 S    
O3    Cu1   1.948762 S    
C17   C25   1.481307 S    
C20   H8    1.082344 S    
N2    H13   1.026871 S    
C19   H7    1.086419 S    
N1    H12   1.026975 S    
C1    C22   1.444645 S    
O2    C1    1.293974 A    
C24   N3    1.429845 S    
C10   C12   1.425632 A    
C11   C15   1.407205 A    
O4    C2    1.299116 A    
O7    C4    1.305018 A    
N3    O12   1.300580 A    
N4    O14   1.301442 A    
C12   C13   1.423061 A    
C5    H1    1.081764 S    
C6    C16   1.398465 A    
C2    C18   1.474424 S    
C9    C10   1.419219 A    
C3    C20   1.445523 S    
O3    C2    1.299845 A    
C7    C8    1.386342 A    
C9    H4    1.076641 S    
C21   C22   1.338978 D    
Cu1   O5    1.958726 S    
O5    C3    1.292762 A    
N3    O11   1.299695 A    
C5    C13   1.406190 A    
C7    H3    1.083389 S    
C14   C15   1.390545 A    
Cu1   N1    2.018675 S    
C6    C17   1.417399 A    
C23   C24   1.509181 S    
C15   H6    1.080601 S    
Cu2   O6    1.956014 S    
O2    Cu2   1.958724 S    
C24   N2    1.304203 D    
C8    H5    1.082444 S    
O1    C1    1.291353 A    
O6    C3    1.293043 A    
