data_mof_unit_49932.cif
_audit_creation_date              2012-12-10T22:11:11-0500
_audit_creation_method            fapswitch 2.2
_symmetry_space_group_name_H-M    P1
_symmetry_Int_Tables_number       1
_space_group_crystal_system       triclinic
_cell_length_a                    11.714799
_cell_length_b                    12.453851
_cell_length_c                    22.809359
_cell_angle_alpha                 90.630986
_cell_angle_beta                  92.398216
_cell_angle_gamma                 92.301905
_cell_volume                      3321.89069925

loop_
_atom_site_label
_atom_site_type_symbol
_atom_type_description
_atom_site_fract_x
_atom_site_fract_y
_atom_site_fract_z
_atom_type_partial_charge
C1    C     C_R   0.659401 0.999589 0.580365 0.864716
C2    C     C_R   0.340599 0.000411 0.419635 0.864712
C3    C     C_R   0.889902 0.825207 0.101718 0.119539
C4    C     C_R   0.110098 0.174793 0.898282 0.119539
C5    C     C_R   0.085135 0.915089 0.160253 -0.124398
C6    C     C_R   0.914865 0.084911 0.839747 -0.124399
C7    C     C_R   0.094002 0.830404 0.119667 0.123187
C8    C     C_R   0.905998 0.169596 0.880333 0.123187
C9    C     C_R   0.911879 0.155919 0.160717 0.149691
C10   C     C_R   0.088121 0.844081 0.839283 0.149692
C11   C     C_R   0.892035 0.263727 0.155911 -0.075844
C12   C     C_R   0.107965 0.736273 0.844089 -0.075845
C13   C     C_R   0.129783 0.912308 0.295071 -0.140853
C14   C     C_R   0.870217 0.087692 0.704928 -0.140853
C15   C     C_R   0.230485 0.920561 0.331279 0.169602
C16   C     C_R   0.769515 0.079439 0.668721 0.169602
C17   C     C_R   0.772923 0.085505 0.275516 0.133718
C18   C     C_R   0.227077 0.914495 0.724484 0.133718
C19   C     C_R   0.728477 0.094323 0.331244 0.132259
C20   C     C_R   0.271523 0.905677 0.668756 0.132259
C21   C     C_3   0.966420 0.017109 0.236876 -0.050302
C22   C     C_3   0.033580 0.982891 0.763124 -0.050302
C23   C     C_R   0.655465 0.002609 0.420233 0.951681
C24   C     C_R   0.344535 0.997391 0.579767 0.951677
C25   C     C_R   0.053643 0.000080 0.291467 -0.053499
C26   C     C_R   0.946358 0.999920 0.708533 -0.053499
C27   C     C_R   0.240872 0.997341 0.376953 -0.195129
C28   C     C_R   0.759128 0.002659 0.623047 -0.195128
C29   C     C_R   0.843564 0.998508 0.262381 -0.110624
C30   C     C_R   0.156436 0.001492 0.737619 -0.110625
C31   C     C_R   0.727024 0.003827 0.368484 -0.171055
C32   C     C_R   0.272975 0.996173 0.631516 -0.171056
C33   C     C_R   0.988741 0.130262 0.207706 -0.001776
C34   C     C_R   0.011259 0.869738 0.792294 -0.001776
C35   C     C_R   0.992061 0.325746 0.147073 -0.191981
C36   C     C_R   0.007939 0.674254 0.852927 -0.191982
C37   C     C_R   0.975906 0.937586 0.183418 -0.045590
C38   C     C_R   0.024093 0.062414 0.816582 -0.045590
C39   C     C_R   0.993803 0.775325 0.098319 -0.141768
C40   C     C_R   0.006197 0.224675 0.901681 -0.141768
C41   C     C_R   0.994646 0.671244 0.068853 0.958527
C42   C     C_R   0.005354 0.328756 0.931147 0.958528
C43   C     C_R   0.998565 0.383579 0.091104 0.932868
C44   C     C_R   0.001435 0.616421 0.908896 0.932868
C45   C     C_R   0.058804 0.070955 0.342324 -0.085404
C46   C     C_R   0.941196 0.929045 0.657676 -0.085405
C47   C     C_R   0.150452 0.066217 0.384875 -0.109025
C48   C     C_R   0.849548 0.933783 0.615124 -0.109027
C49   C     C_R   0.818388 0.901054 0.292697 -0.114508
C50   C     C_R   0.181612 0.098946 0.707303 -0.114508
C51   C     C_R   0.774119 0.907221 0.348722 0.144089
C52   C     C_R   0.225881 0.092779 0.651277 0.144088
C53   C     C_R   0.085579 0.208435 0.217315 0.014323
C54   C     C_R   0.914421 0.791565 0.782685 0.014323
C55   C     C_R   0.090356 0.301654 0.181159 -0.089765
C56   C     C_R   0.909644 0.698346 0.818841 -0.089765
C57   C     C_R   0.877037 0.900832 0.146239 -0.030243
C58   C     C_R   0.122963 0.099168 0.853761 -0.030243
O1    O     O_R   0.621380 0.090460 0.561410 -0.578492
O2    O     O_R   0.378620 0.909540 0.438590 -0.578493
O3    O     O_R   0.617150 0.909540 0.438590 -0.589584
O4    O     O_R   0.382850 0.090460 0.561410 -0.589586
O5    O     O_R   0.619720 0.093230 0.440890 -0.585425
O6    O     O_R   0.380280 0.906770 0.559110 -0.585425
O7    O     O_R   0.618800 0.906770 0.559110 -0.606517
O8    O     O_R   0.381200 0.093230 0.440890 -0.606516
O9    O     O_R   0.087590 0.627480 0.058790 -0.597831
O10   O     O_R   0.912410 0.372520 0.941210 -0.597831
O11   O     O_R   0.905660 0.383870 0.059980 -0.616685
O12   O     O_R   0.094340 0.616130 0.940020 -0.616685
O13   O     O_R   0.092570 0.390420 0.063230 -0.596738
O14   O     O_R   0.907430 0.609580 0.936770 -0.596738
O15   O     O_R   0.900680 0.620930 0.055550 -0.617133
O16   O     O_R   0.099320 0.379070 0.944450 -0.617132
Zn1   Zn    Zn3+2 0.501730 0.123520 0.501540 1.119929
Zn2   Zn    Zn3+2 0.498270 0.876480 0.498460 1.119929
Zn3   Zn    Zn3+2 0.125690 0.504390 0.002180 1.096118
Zn4   Zn    Zn3+2 0.874310 0.495610 0.997820 1.096118
C59   C     C_2   0.152162 0.135361 0.438203 1.024766
O17   O     O_2   0.142972 0.093898 0.486138 -0.588560
O18   O     O_R   0.161484 0.247092 0.433015 -0.720503
H1    H     H_    0.157613 0.286139 0.471980 0.369133
C60   C     C_2   0.847838 0.864640 0.561797 1.024768
O19   O     O_2   0.857023 0.906103 0.513862 -0.588563
O20   O     O_R   0.838523 0.752908 0.566984 -0.720503
H2    H     H_    0.842393 0.713862 0.528020 0.369134
C61   C     C_2   0.797126 0.794661 0.261831 1.055558
O21   O     O_2   0.703199 0.748749 0.265047 -0.528941
O22   O     O_R   0.879821 0.745534 0.229897 -0.787157
H3    H     H_    0.851816 0.674020 0.211793 0.372887
C62   C     C_2   0.202874 0.205339 0.738168 1.055558
O23   O     O_2   0.296800 0.251251 0.734952 -0.528942
O24   O     O_R   0.120179 0.254466 0.770103 -0.787156
H4    H     H_    0.148184 0.325980 0.788207 0.372887
C63   C     C_2   0.179149 0.204701 0.263318 0.965015
O25   O     O_2   0.188131 0.275707 0.300929 -0.535221
O26   O     O_R   0.264194 0.130265 0.260359 -0.779150
H5    H     H_    0.327423 0.142767 0.291707 0.359575
C64   C     C_2   0.820851 0.795299 0.736682 0.965015
O27   O     O_2   0.811870 0.724293 0.699070 -0.535223
O28   O     O_R   0.735806 0.869735 0.739641 -0.779150
H6    H     H_    0.672577 0.857232 0.708293 0.359574
C65   C     C_2   0.759194 0.940598 0.146159 0.920014
O29   O     O_2   0.684856 0.890342 0.171486 -0.578561
O30   O     O_R   0.726591 0.017803 0.105410 -0.717309
H7    H     H_    0.640601 0.022822 0.100131 0.395564
C66   C     C_2   0.240806 0.059403 0.853841 0.920013
O31   O     O_2   0.315144 0.109659 0.828514 -0.578560
O32   O     O_R   0.273409 0.982197 0.894590 -0.717309
H8    H     H_    0.359399 0.977178 0.899868 0.395564
C67   C     C_2   0.189647 0.984626 0.169886 0.994936
O33   O     O_2   0.198676 0.069282 0.143663 -0.555042
O34   O     O_R   0.285601 0.944582 0.199338 -0.778380
H9    H     H_    0.356824 0.992770 0.196023 0.403707
C68   C     C_2   0.810353 0.015374 0.830113 0.994936
O35   O     O_2   0.801324 0.930718 0.856337 -0.555041
O36   O     O_R   0.714399 0.055417 0.800662 -0.778380
H10   H     H_    0.643176 0.007230 0.803976 0.403707
I1    I     I_    0.958940 0.107917 0.072691 -0.182284
I2    I     I_    0.041060 0.892083 0.927309 -0.182284
C69   C     C_2   0.086183 0.800014 0.286362 1.034538
O37   O     O_2   0.023259 0.761977 0.322711 -0.529622
O38   O     O_R   0.125927 0.731392 0.243513 -0.703858
H11   H     H_    0.191290 0.763863 0.221358 0.341825
C70   C     C_2   0.913817 0.199986 0.713638 1.034538
O39   O     O_2   0.976741 0.238023 0.677289 -0.529622
O40   O     O_R   0.874073 0.268608 0.756487 -0.703858
H12   H     H_    0.808709 0.236136 0.778642 0.341824
I3    I     I_    0.633397 0.124813 0.217865 -0.196312
I4    I     I_    0.366603 0.875187 0.782135 -0.196312
I5    I     I_    0.787153 0.763149 0.400110 -0.081046
I6    I     I_    0.212846 0.236851 0.599890 -0.081046
C71   C     C_2   0.194185 0.374728 0.179505 0.999441
O41   O     O_2   0.289643 0.338276 0.182137 -0.553367
O42   O     O_R   0.182024 0.485505 0.174010 -0.760930
H13   H     H_    0.258201 0.526884 0.172877 0.367798
C72   C     C_2   0.805815 0.625272 0.820495 0.999441
O43   O     O_2   0.710357 0.661724 0.817862 -0.553367
O44   O     O_R   0.817976 0.514495 0.825990 -0.760930
H14   H     H_    0.741799 0.473116 0.827123 0.367798
I7    I     I_    0.756867 0.800937 0.032326 -0.081721
I8    I     I_    0.243132 0.199062 0.967674 -0.081721
I9    I     I_    0.258158 0.801118 0.083326 -0.101284
I10   I     I_    0.741840 0.198883 0.916673 -0.101286
C73   C     C_2   0.777123 0.301622 0.138743 1.029623
O45   O     O_2   0.712635 0.247909 0.105441 -0.540592
O46   O     O_R   0.745705 0.402493 0.158406 -0.769467
H15   H     H_    0.666506 0.421097 0.143137 0.363122
C74   C     C_2   0.222877 0.698378 0.861257 1.029623
O47   O     O_2   0.287365 0.752091 0.894559 -0.540592
O48   O     O_R   0.254295 0.597507 0.841594 -0.769468
H16   H     H_    0.333494 0.578903 0.856863 0.363122
I11   I     I_    0.364095 0.810306 0.317348 -0.129721
I12   I     I_    0.635905 0.189694 0.682652 -0.129721
I13   I     I_    0.668061 0.251766 0.354157 -0.134283
I14   I     I_    0.331939 0.748234 0.645843 -0.134283
C75   C     C_2   0.973927 0.153892 0.353759 0.930720
O49   O     O_2   0.926763 0.153547 0.400639 -0.585130
O50   O     O_R   0.956780 0.238556 0.315252 -0.785753
H17   H     H_    0.911078 0.297679 0.332359 0.385905
C76   C     C_2   0.026073 0.846108 0.646241 0.930726
O51   O     O_2   0.073237 0.846453 0.599361 -0.585130
O52   O     O_R   0.043220 0.761444 0.684748 -0.785754
H18   H     H_    0.088922 0.702321 0.667641 0.385905

loop_
_geom_bond_atom_site_label_1
_geom_bond_atom_site_label_2
_ccdc_geom_bond_type
C16   C28   A    
C42   O10   A    
C61   O21   D    
C20   I14   S    
O24   H4    S    
C5    C37   A    
C53   C63   S    
C33   C53   A    
C19   I13   S    
C49   C61   S    
O30   H7    S    
O46   H15   S    
O9    Zn3   S    
C47   C59   S    
C19   C31   A    
C7    I9    S    
O26   H5    S    
O38   H11   S    
C39   C41   S    
C29   C49   A    
O20   H2    S    
C72   O44   S    
O28   H6    S    
O7    Zn2   S    
C60   O19   D    
C74   O48   S    
O50   H17   S    
C4    I8    S    
C2    O2    A    
C23   O5    A    
C21   C33   S    
C68   O35   D    
C22   C38   S    
C17   C29   A    
C58   C66   S    
C45   C47   A    
C32   C52   A    
O14   Zn4   S    
C65   O29   D    
C73   O46   S    
C38   C58   A    
C15   C27   A    
C75   O49   D    
C67   O34   S    
C4    C40   A    
C49   C51   A    
C46   C76   S    
C3    I7    S    
C1    C28   S    
C50   C52   A    
O15   Zn4   S    
C6    C38   A    
C44   O12   A    
C2    C27   S    
C18   C30   A    
C12   C36   A    
C35   C43   S    
C40   C42   S    
C30   C50   A    
C3    C39   A    
C43   O11   A    
O12   Zn3   S    
C9    C33   A    
C66   O32   S    
C13   C25   A    
O11   Zn4   S    
O1    Zn1   S    
C57   C65   S    
C76   O52   S    
C73   O45   D    
C46   C48   A    
C53   C55   A    
O3    Zn2   S    
O10   Zn4   S    
C22   C34   S    
C54   C56   A    
C42   O16   A    
C15   I11   S    
C35   C55   A    
C52   I6    S    
O42   H13   S    
C45   C75   S    
C41   O9    A    
O32   H8    S    
C62   O23   D    
C5    C7    A    
C51   I5    S    
C11   C73   S    
C6    C8    A    
C5    C67   S    
C68   O36   S    
C55   C71   S    
C21   C29   S    
O2    Zn2   S    
O18   H1    S    
C17   I3    S    
C24   O6    A    
C23   C31   S    
C24   C32   S    
C36   C56   A    
C62   O24   S    
C13   C69   S    
C1    O7    A    
C64   O27   D    
O48   H16   S    
O16   Zn3   S    
O6    Zn2   S    
C65   O30   S    
C14   C26   A    
C9    C11   A    
C69   O37   D    
C10   C12   A    
C24   O4    A    
C10   C34   A    
C3    C57   A    
C64   O28   S    
C34   C54   A    
C13   C15   A    
C16   I12   S    
C70   O39   D    
C9    I1    S    
C14   C16   A    
C54   C64   S    
C36   C44   S    
C66   O31   D    
O40   H12   S    
C25   C45   A    
O13   Zn3   S    
C59   O18   S    
O34   H9    S    
C20   C32   A    
C27   C47   A    
C21   C25   S    
C28   C48   A    
C43   O13   A    
C22   C30   S    
C67   O33   D    
C60   O20   S    
C12   C74   S    
C31   C51   A    
C2    O8    A    
O44   H14   S    
C63   O26   S    
C72   O43   D    
C14   C70   S    
C48   C60   S    
C1    O1    A    
C76   O51   D    
C74   O47   D    
C56   C72   S    
C71   O41   D    
O5    Zn1   S    
O8    Zn1   S    
C11   C35   A    
C17   C19   A    
C44   O14   A    
C18   C20   A    
O4    Zn1   S    
C6    C68   S    
C69   O38   S    
O52   H18   S    
C18   I4    S    
C26   C46   A    
C41   O15   A    
C59   O17   D    
C8    I10   S    
C50   C62   S    
C23   O3    A    
C21   C37   S    
C75   O50   S    
C22   C26   S    
C4    C58   A    
C63   O25   D    
C70   O40   S    
C71   O42   S    
C7    C39   A    
C61   O22   S    
C8    C40   A    
O22   H3    S    
O36   H10   S    
C10   I2    S    
C37   C57   A    
