data_mof_unit_37701.cif
_audit_creation_date              2012-12-10T19:43:23-0500
_audit_creation_method            fapswitch 2.2
_symmetry_space_group_name_H-M    P1
_symmetry_Int_Tables_number       1
_space_group_crystal_system       triclinic
_cell_length_a                    11.124843
_cell_length_b                    10.914032
_cell_length_c                    9.753241
_cell_angle_alpha                 89.912042
_cell_angle_beta                  92.204249
_cell_angle_gamma                 99.811196
_cell_volume                      1166.01015168

loop_
_atom_site_label
_atom_site_type_symbol
_atom_type_description
_atom_site_fract_x
_atom_site_fract_y
_atom_site_fract_z
_atom_type_partial_charge
C1    C     C_R   0.505331 0.263048 0.501311 0.821739
C2    C     C_R   0.085658 0.270754 0.999054 0.143953
C3    C     C_R   0.919508 0.430669 0.401634 0.323560
C4    C     C_R   0.872692 0.492186 0.509957 -0.236093
C5    C     C_R   0.956375 0.545205 0.618033 0.034242
C6    C     C_R   0.083083 0.560167 0.597520 0.124359
C7    C     C_R   0.128922 0.500161 0.489548 -0.163896
C8    C     C_R   0.046454 0.438543 0.387158 -0.023264
C9    C     C_R   0.952946 0.653229 0.847752 0.285111
C10   C     C_R   0.922852 0.648893 0.987365 0.020573
C11   C     C_R   0.861838 0.538578 0.041921 -0.317345
C12   C     C_R   0.262356 0.496838 0.496319 0.826564
C13   C     C_R   0.835329 0.429988 0.962626 0.418264
C14   C     C_R   0.871358 0.430780 0.826983 0.396711
C15   C     C_R   0.921043 0.544951 0.764471 -0.115634
C16   C     C_R   0.534556 0.111628 0.760692 0.376414
C17   C     C_R   0.486171 0.048058 0.878298 0.118696
C18   C     C_R   0.412912 0.931152 0.862994 0.168190
C19   C     C_R   0.410189 0.869100 0.738803 -0.259694
C20   C     C_R   0.462536 0.929502 0.622978 -0.043906
C21   C     C_R   0.502786 0.058656 0.629521 0.044277
C22   C     C_R   0.508603 0.127739 0.505154 -0.116184
C23   C     C_R   0.487270 0.734330 0.499395 0.813523
C24   C     C_R   0.495127 0.062778 0.380546 -0.324800
C25   C     C_R   0.476267 0.932776 0.376705 0.385445
C26   C     C_R   0.470930 0.865919 0.499404 -0.110877
C27   C     C_R   0.640795 0.708444 0.146932 0.192005
C28   C     C_R   0.674865 0.821564 0.077898 0.000347
C29   C     C_R   0.671741 0.821997 0.936013 0.331922
C30   C     C_R   0.637463 0.709626 0.864487 0.120147
C31   C     C_R   0.567900 0.601467 0.928029 0.055319
C32   C     C_R   0.568558 0.601238 0.077590 0.064687
C33   C     C_R   0.431216 0.408412 0.069831 0.222209
C34   C     C_R   0.738129 0.499301 0.503603 0.838697
C35   C     C_R   0.432452 0.409059 0.922897 -0.130958
C36   C     C_R   0.128882 0.398170 0.019739 -0.312579
C37   C     C_R   0.130285 0.452806 0.150052 0.218277
C38   C     C_R   0.085198 0.379664 0.262144 0.106626
C39   C     C_R   0.048763 0.250851 0.242937 -0.162694
C40   C     C_R   0.047370 0.195804 0.113186 0.502857
Cu1   Cu    Cu3+1 0.499990 0.499990 0.640660 0.970967
Cu2   Cu    Cu3+1 0.500010 0.500010 0.359340 0.987124
H1    H     H_    0.837840 0.536017 0.147976 0.229006
H2    H     H_    0.499009 0.112725 0.285111 0.175195
H3    H     H_    0.364150 0.774594 0.734314 0.198627
H4    H     H_    0.163926 0.455004 0.934683 0.141245
H5    H     H_    0.376873 0.334322 0.864823 0.128701
H6    H     H_    0.013529 0.193715 0.328250 0.167888
N1    N     N_R   0.501190 0.501210 0.147910 -0.177441
N2    N     N_R   0.501230 0.501290 0.852040 -0.175608
O1    O     O_R   0.499990 0.319640 0.618810 -0.560374
O2    O     O_R   0.500000 0.319660 0.381240 -0.603959
O3    O     O_R   0.319640 0.500000 0.618780 -0.574968
O4    O     O_R   0.319650 0.500020 0.381210 -0.559268
O5    O     O_R   0.500000 0.680340 0.618760 -0.583695
O6    O     O_R   0.500010 0.680360 0.381190 -0.510627
O7    O     O_R   0.680350 0.499980 0.618790 -0.533480
O8    O     O_R   0.680360 0.500000 0.381220 -0.552094
N3    N     N_3   0.088457 0.216369 0.865277 -0.563266
H7    H     H_    0.115354 0.285343 0.792788 0.215595
H8    H     H_    0.156175 0.160603 0.869172 0.193351
O9    O     O_3   0.780205 0.319527 0.018135 -0.681286
H9    H     H_    0.730245 0.339154 0.094412 0.341973
O10   O     O_3   0.858782 0.317407 0.760445 -0.623814
H10   H     H_    0.916751 0.322558 0.685591 0.312016
O11   O     O_3   0.625602 0.213806 0.772270 -0.629915
H11   H     H_    0.611298 0.262781 0.853006 0.350484
N4    N     N_3   0.516922 0.097288 0.012789 -0.621134
H12   H     H_    0.611236 0.106667 0.029687 0.273786
H13   H     H_    0.494768 0.185522 0.015022 0.183547
N5    N     N_3   0.346932 0.871740 0.974682 -0.558656
H14   H     H_    0.374688 0.785875 0.991502 0.224779
H15   H     H_    0.254333 0.853997 0.944798 0.206833
O12   O     O_3   0.456614 0.869230 0.254122 -0.717939
H16   H     H_    0.470325 0.929986 0.179531 0.368444
N6    N     N_3   0.352129 0.310729 0.136378 -0.552156
H17   H     H_    0.303537 0.250792 0.062970 0.177323
H18   H     H_    0.405627 0.253561 0.183833 0.238734
N7    N     N_3   0.702694 0.699669 0.276488 -0.495608
H19   H     H_    0.795355 0.702477 0.261281 0.221881
H20   H     H_    0.697663 0.775876 0.339395 0.209726
N8    N     N_3   0.734756 0.931721 0.150256 -0.584029
H21   H     H_    0.678515 0.956967 0.224201 0.241599
H22   H     H_    0.815356 0.915390 0.199684 0.265139
O13   O     O_3   0.722151 0.926030 0.862580 -0.720099
H23   H     H_    0.748185 0.998772 0.923374 0.391754
N9    N     N_3   0.692679 0.705595 0.735030 -0.469832
H24   H     H_    0.784965 0.724454 0.750681 0.254036
H25   H     H_    0.682185 0.784614 0.678019 0.250188
N10   N     N_3   0.178401 0.582296 0.167854 -0.539184
H26   H     H_    0.142782 0.630127 0.088136 0.203994
H27   H     H_    0.272011 0.594288 0.151907 0.252969
O14   O     O_3   0.006645 0.069386 0.102740 -0.749459
H28   H     H_    0.002376 0.043535 0.005290 0.342206
O15   O     O_3   0.842131 0.353398 0.312696 -0.736544
H29   H     H_    0.772136 0.310671 0.364282 0.330122
N11   N     N_3   0.169481 0.639904 0.684169 -0.579476
H30   H     H_    0.163422 0.732467 0.663422 0.273252
H31   H     H_    0.162973 0.616642 0.787555 0.220818
O16   O     O_3   0.998642 0.764450 0.785039 -0.752888
H32   H     H_    0.032122 0.828612 0.853984 0.324386
N12   N     N_3   0.949832 0.756429 0.074431 -0.591762
H33   H     H_    0.043938 0.787391 0.081060 0.236063
H34   H     H_    0.910549 0.826942 0.028404 0.258021

loop_
_geom_bond_atom_site_label_1
_geom_bond_atom_site_label_2
_ccdc_geom_bond_type
N9    H24   S    
C16   C21   A    
Cu1   Cu2   S    
C19   C20   A    
C40   O14   S    
C35   H5    S    
Cu2   O8    S    
N11   H30   S    
C7    C8    A    
O13   H23   S    
C29   C30   A    
C37   N10   S    
C5    C6    A    
C36   C37   A    
C37   C38   A    
N6    H18   S    
C18   C19   A    
C27   N7    S    
C30   C31   A    
C33   N1    A    
C25   O12   S    
C23   C26   S    
C23   O6    A    
Cu1   O5    S    
Cu2   O6    S    
C13   O9    S    
O15   H29   S    
N4    H12   S    
C34   O7    A    
C36   H4    S    
C9    C10   A    
C29   O13   S    
C12   O3    A    
O11   H11   S    
N3    H7    S    
C21   C22   A    
C8    C38   S    
N11   H31   S    
C7    C12   S    
C4    C34   S    
C11   H1    S    
N3    H8    S    
O12   H16   S    
C28   N8    S    
C6    N11   S    
C10   N12   S    
N6    H17   S    
C3    C8    A    
C39   C40   A    
N5    H15   S    
C2    N3    S    
C16   C17   A    
C25   C26   A    
O9    H9    S    
C33   N6    S    
N10   H27   S    
C31   C32   A    
C14   O10   S    
C35   N2    A    
C17   C18   A    
O14   H28   S    
C24   C25   A    
N12   H34   S    
C1    O1    A    
Cu1   O3    S    
C9    O16   S    
N8    H22   S    
N9    H25   S    
C24   H2    S    
C22   C24   A    
C16   O11   S    
C31   N2    A    
C3    C4    A    
Cu1   N2    S    
N7    H20   S    
C2    C36   A    
C18   N5    S    
C28   C29   A    
C17   N4    S    
C27   C32   A    
C4    C5    A    
C19   H3    S    
C23   O5    A    
C6    C7    A    
O10   H10   S    
C9    C15   A    
Cu1   O7    S    
N5    H14   S    
Cu2   O4    S    
C11   C13   A    
N10   H26   S    
C38   C39   A    
C20   C26   A    
O16   H32   S    
C33   C35   A    
N12   H33   S    
C1    O2    A    
C32   N1    A    
C5    C15   S    
C10   C11   A    
Cu2   N1    S    
N7    H19   S    
C2    C40   A    
C1    C22   S    
C20   C21   A    
N4    H13   S    
N8    H21   S    
C27   C28   A    
C34   O8    A    
C14   C15   A    
C3    O15   S    
C30   N9    S    
C13   C14   A    
Cu1   O1    S    
C12   O4    A    
Cu2   O2    S    
C39   H6    S    
