data_mof_unit_49620.cif
_audit_creation_date              2012-12-10T17:07:13-0500
_audit_creation_method            fapswitch 2.2
_symmetry_space_group_name_H-M    P1
_symmetry_Int_Tables_number       1
_space_group_crystal_system       triclinic
_cell_length_a                    10.08938
_cell_length_b                    10.64282
_cell_length_c                    13.590409
_cell_angle_alpha                 90.40917
_cell_angle_beta                  82.425353
_cell_angle_gamma                 87.033808
_cell_volume                      1444.51475661

loop_
_atom_site_label
_atom_site_type_symbol
_atom_type_description
_atom_site_fract_x
_atom_site_fract_y
_atom_site_fract_z
_atom_type_partial_charge
C1    C     C_R   0.494700 0.737914 0.509383 0.879065
C2    C     C_1   0.455161 0.513476 0.789708 -0.198830
C3    C     C_2   0.573022 0.070384 0.564557 -0.197460
C4    C     C_2   0.517454 0.130228 0.493298 -0.321338
C5    C     C_2   0.582155 0.933085 0.563815 0.200675
C6    C     C_2   0.477359 0.869852 0.539006 -0.257944
C7    C     C_2   0.086245 0.423354 0.447664 -0.086434
C8    C     C_2   0.939270 0.438213 0.434064 0.224937
C9    C     C_R   0.475315 0.502009 0.685716 0.884055
C10   C     C_R   0.504309 0.262742 0.496890 0.920435
C11   C     C_R   0.524537 0.498600 0.314362 0.889435
C12   C     C_1   0.542755 0.488925 0.210444 -0.177345
C13   C     C_2   0.538051 0.472058 0.020182 -0.223285
C14   C     C_2   0.436962 0.532350 0.982158 0.031127
C15   C     C_1   0.441991 0.523956 0.877621 -0.056388
C16   C     C_1   0.547620 0.479888 0.122909 0.004741
H1    H     H_    0.880987 0.518342 0.566875 0.190192
H2    H     H_    0.616043 0.417156 0.973151 0.154002
H3    H     H_    0.614249 0.121781 0.621932 0.156895
H4    H     H_    0.482091 0.082012 0.432011 0.142391
H5    H     H_    0.145506 0.344192 0.411512 0.148750
N1    N     N_2   0.147970 0.498670 0.498970 -0.040156
N2    N     N_2   0.852310 0.498640 0.498940 -0.216193
O1    O     O_R   0.386960 0.680940 0.500020 -0.621695
O2    O     O_R   0.613100 0.680900 0.499980 -0.575383
O3    O     O_R   0.370650 0.500000 0.640370 -0.604619
O4    O     O_R   0.596800 0.499960 0.640330 -0.620409
O5    O     O_R   0.386900 0.319100 0.500020 -0.599096
O6    O     O_R   0.613040 0.319060 0.499980 -0.636304
O7    O     O_R   0.403200 0.500040 0.359670 -0.613007
O8    O     O_R   0.629350 0.500000 0.359630 -0.601606
Zn1   Zn    Zn3+2 0.349000 0.500030 0.500020 0.936592
Zn2   Zn    Zn3+2 0.651000 0.499970 0.499980 0.935585
C17   C     C_R   0.328474 0.612097 0.041138 0.158766
C18   C     C_R   0.299700 0.735693 0.011354 -0.157112
C19   C     C_R   0.200149 0.812263 0.067315 -0.148208
C20   C     C_R   0.127932 0.766087 0.153077 -0.117422
C21   C     C_R   0.154080 0.642782 0.182463 -0.127397
C22   C     C_R   0.252946 0.565584 0.126382 -0.143154
H6    H     H_    0.355686 0.773437 0.945653 0.125048
H7    H     H_    0.179432 0.907680 0.044410 0.129228
H8    H     H_    0.051445 0.825720 0.196595 0.127004
H9    H     H_    0.097638 0.607120 0.248728 0.147236
H10   H     H_    0.270605 0.469711 0.149475 0.131031
N3    N     N_2   0.703749 0.868420 0.582993 -0.268188
H11   H     H_    0.694159 0.809401 0.643106 0.224273
C23   C     C_3   0.825756 0.935169 0.568556 -0.768286
H12   H     H_    0.912900 0.866829 0.562628 0.247835
H13   H     H_    0.829630 0.000186 0.632275 0.220959
H14   H     H_    0.832638 0.988332 0.498122 0.248852
C24   C     C_R   0.339262 0.931495 0.543879 0.128560
C25   C     C_R   0.272474 0.933969 0.459206 -0.139915
C26   C     C_R   0.154339 0.008442 0.458651 -0.167110
C27   C     C_R   0.101173 0.079766 0.542670 -0.115324
C28   C     C_R   0.162688 0.072610 0.628824 -0.115384
C29   C     C_R   0.280874 0.998359 0.629800 -0.135906
H15   H     H_    0.315571 0.883636 0.392063 0.130471
H16   H     H_    0.105436 0.012804 0.392410 0.126050
H17   H     H_    0.011659 0.139969 0.541247 0.127138
H18   H     H_    0.120238 0.126594 0.694260 0.122935
H19   H     H_    0.329848 0.996841 0.696095 0.116454
N4    N     N_2   0.083546 0.613274 0.526272 -0.260713
H20   H     H_    0.113505 0.683749 0.477954 0.240787
C30   C     C_3   0.090608 0.646731 0.628702 -0.689564
H21   H     H_    0.014208 0.722728 0.653467 0.201977
H22   H     H_    0.190381 0.680805 0.637447 0.261348
H23   H     H_    0.069996 0.564565 0.677326 0.226972
N5    N     N_2   0.892395 0.379364 0.351064 -0.267560
H24   H     H_    0.805446 0.333364 0.368474 0.271128
C31   C     C_3   0.986981 0.314126 0.276154 -0.873726
H25   H     H_    0.934905 0.288211 0.212465 0.252627
H26   H     H_    0.028782 0.226450 0.306860 0.228061
H27   H     H_    0.068648 0.375749 0.248219 0.248848

loop_
_geom_bond_atom_site_label_1
_geom_bond_atom_site_label_2
_ccdc_geom_bond_type
C14   C17   S    
N4    C30   S    
C28   C29   A    
O1    Zn1   S    
O3    Zn1   S    
C31   H25   S    
C29   H19   S    
C10   O5    A    
C6    C24   S    
N1    N4    S    
C7    N1    D    
C18   C19   A    
C14   C15   S    
O5    Zn1   S    
C26   H16   S    
C30   H21   S    
C3    C5    S    
C31   H27   S    
O8    Zn2   S    
C18   H6    S    
C11   O8    A    
C21   H9    S    
C23   H13   S    
C30   H22   S    
H1    N2    S    
C28   H18   S    
O4    Zn2   S    
O7    Zn1   S    
C2    C15   T    
C10   O6    A    
C9    O4    A    
C19   H7    S    
N4    H20   S    
N1    Zn1   S    
C13   H2    S    
C12   C16   T    
C19   C20   A    
C20   C21   A    
C9    O3    A    
C8    N5    S    
C23   H14   S    
C27   H17   S    
N3    C23   S    
C3    H3    S    
C5    C6    D    
N3    H11   S    
C25   H15   S    
C22   H10   S    
C4    C10   S    
C24   C25   A    
C4    H4    S    
C30   H23   S    
O6    Zn2   S    
C7    C8    S    
C8    N2    D    
C21   C22   A    
C25   C26   A    
C11   O7    A    
C1    O1    A    
N5    C31   S    
C17   C18   A    
C13   C16   S    
C7    H5    S    
C20   H8    S    
C27   C28   A    
C31   H26   S    
C1    C6    S    
C26   C27   A    
C13   C14   D    
C2    C9    S    
C5    N3    S    
C17   C22   A    
C1    O2    A    
C3    C4    D    
C23   H12   S    
C11   C12   S    
O2    Zn2   S    
N5    H24   S    
N2    Zn2   S    
C24   C29   A    
