data_mof_unit_11734.cif
_audit_creation_date              2012-10-26T19:40:06-0400
_audit_creation_method            fapswitch 2.2
_symmetry_space_group_name_H-M    P1
_symmetry_Int_Tables_number       1
_space_group_crystal_system       triclinic
_cell_length_a                    15.063958
_cell_length_b                    8.728314
_cell_length_c                    7.455337
_cell_angle_alpha                 103.040042
_cell_angle_beta                  94.4827
_cell_angle_gamma                 93.011936
_cell_volume                      949.561729552

loop_
_atom_site_label
_atom_site_type_symbol
_atom_type_description
_atom_site_fract_x
_atom_site_fract_y
_atom_site_fract_z
_atom_type_partial_charge
C1    C     C_R   0.497227 0.200043 0.453480 0.552116
C2    C     C_R   0.177958 0.444383 0.338531 -0.168643
C3    C     C_R   0.768012 0.500541 0.494906 0.011768
C4    C     C_R   0.231987 0.499459 0.505094 0.011768
C5    C     C_R   0.806771 0.445488 0.328879 0.374894
C6    C     C_R   0.193229 0.554512 0.671120 0.374894
C7    C     C_R   0.899510 0.444679 0.330086 0.028729
C8    C     C_R   0.100489 0.555321 0.669914 0.028729
C9    C     C_R   0.953434 0.500256 0.498614 0.014441
C10   C     C_R   0.046566 0.499744 0.501386 0.014441
C11   C     C_R   0.914370 0.556236 0.664488 -0.007869
C12   C     C_R   0.502773 0.799957 0.546520 0.552116
C13   C     C_R   0.085630 0.443764 0.335512 -0.007869
C14   C     C_R   0.939384 0.388644 0.166228 -0.101208
C15   C     C_R   0.060616 0.611356 0.833772 -0.101208
C16   C     C_R   0.031869 0.388119 0.169066 -0.137887
C17   C     C_R   0.968131 0.611881 0.830934 -0.137887
C18   C     C_2   0.495634 0.032807 0.427097 0.352665
C19   C     C_2   0.504366 0.967193 0.572903 0.352665
C20   C     C_R   0.328749 0.499947 0.502058 0.537480
C21   C     C_R   0.671251 0.500053 0.497942 0.537480
C22   C     C_R   0.822042 0.555617 0.661469 -0.168643
Cu1   Cu    Cu3+1 0.510010 0.517380 0.684380 1.311983
Cu2   Cu    Cu3+1 0.489990 0.482620 0.315620 1.311983
F1    F     F_    0.754695 0.389864 0.167295 -0.594726
F2    F     F_    0.245305 0.610136 0.832704 -0.594726
F3    F     F_    0.484891 0.945707 0.249297 -0.557703
F4    F     F_    0.515109 0.054293 0.750703 -0.557703
F5    F     F_    0.413171 0.357958 0.925196 -0.484393
F6    F     F_    0.586828 0.642042 0.074803 -0.484393
H1    H     H_    0.899330 0.345482 0.035545 0.185363
H2    H     H_    0.100670 0.654518 0.964454 0.185363
H3    H     H_    0.061379 0.344560 0.040948 0.138273
H4    H     H_    0.938621 0.655440 0.959052 0.138273
H5    H     H_    0.792278 0.598988 0.789464 0.183117
H6    H     H_    0.207722 0.401012 0.210536 0.183117
N1    N     N_2   0.474890 0.456420 0.038520 0.220296
N2    N     N_2   0.525110 0.543580 0.961480 0.220296
O1    O     O_R   0.506510 0.286130 0.619770 -0.462440
O2    O     O_R   0.493490 0.713870 0.380230 -0.462440
O3    O     O_R   0.489600 0.256770 0.308360 -0.450699
O4    O     O_R   0.510400 0.743230 0.691640 -0.450699
O5    O     O_R   0.378710 0.514640 0.655720 -0.420574
O6    O     O_R   0.621290 0.485360 0.344280 -0.420574
O7    O     O_R   0.361800 0.485290 0.344300 -0.524983
O8    O     O_R   0.638200 0.514710 0.655700 -0.524983

loop_
_geom_bond_atom_site_label_1
_geom_bond_atom_site_label_2
_ccdc_geom_bond_type
C12   O2    A    
C2    C4    A    
Cu1   Cu2   S    
C8    C10   A    
C15   C17   A    
N1    N2    D    
C22   H5    S    
C16   H3    S    
C21   O6    A    
C9    C10   A    
C11   C22   A    
C20   O7    A    
C14   H1    S    
C12   O4    A    
Cu2   N1    S    
C15   H2    S    
Cu1   O8    S    
C19   F4    S    
C9    C11   A    
C1    C18   S    
C6    F2    S    
Cu1   O4    S    
Cu2   O3    S    
C5    F1    S    
Cu2   O7    S    
C12   C19   S    
C1    O3    A    
Cu2   O2    S    
C21   O8    A    
C8    C15   A    
C14   C16   A    
Cu2   O6    S    
Cu1   O1    S    
C3    C21   S    
C17   H4    S    
C1    O1    A    
C2    H6    S    
Cu1   N2    S    
C7    C9    A    
C20   O5    A    
Cu1   O5    S    
F6    N2    S    
C4    C6    A    
C18   C19   D    
C13   C16   A    
F5    N1    S    
C5    C7    A    
C2    C13   A    
C11   C17   A    
C3    C22   A    
C6    C8    A    
C7    C14   A    
C18   F3    S    
C3    C5    A    
C10   C13   A    
C4    C20   S    
