data_mof_unit_42211.cif
_audit_creation_date              2012-12-11T17:33:21-0500
_audit_creation_method            fapswitch 2.2
_symmetry_space_group_name_H-M    P1
_symmetry_Int_Tables_number       1
_space_group_crystal_system       triclinic
_cell_length_a                    6.9311
_cell_length_b                    21.781806
_cell_length_c                    22.161846
_cell_angle_alpha                 107.559492
_cell_angle_beta                  89.265294
_cell_angle_gamma                 89.917107
_cell_volume                      3189.60268973

loop_
_atom_site_label
_atom_site_type_symbol
_atom_type_description
_atom_site_fract_x
_atom_site_fract_y
_atom_site_fract_z
_atom_type_partial_charge
O1    O     O_R   0.505730 0.449200 0.552060 -0.533994
O2    O     O_R   0.171560 0.427840 0.423150 -0.540786
O3    O     O_R   0.005630 0.550800 0.447940 -0.538154
C1    C     C_R   0.342240 0.410135 0.398621 0.726786
O4    O     O_R   0.175730 0.441570 0.550050 -0.542733
O5    O     O_R   0.009820 0.564620 0.575740 -0.539859
C2    C     C_R   0.344213 0.427914 0.568306 0.701516
O6    O     O_R   0.501530 0.435380 0.424260 -0.542995
O7    O     O_3   0.340640 0.540360 0.508280 -0.361657
V1    V     V_3+5 0.064080 0.492510 0.498460 1.395403
O8    O     O_R   0.680360 0.572160 0.576850 -0.513309
C3    C     C_R   0.846257 0.589223 0.602223 0.728902
O9    O     O_R   0.676190 0.558430 0.449950 -0.546513
C4    C     C_R   0.845530 0.571430 0.431152 0.705056
V2    V     V_3+5 0.564610 0.507490 0.501540 1.417749
O10   O     O_3   0.837920 0.459640 0.491720 -0.371584
C5    C     C_R   0.092573 0.817694 0.165706 -0.128082
H1    H     H_    0.223494 0.797860 0.178713 0.113965
C6    C     C_R   0.105111 0.857845 0.126781 -0.183161
H2    H     H_    0.246157 0.867969 0.110595 0.125131
C7    C     C_R   0.937577 0.884618 0.109196 -0.052340
C8    C     C_R   0.757436 0.869913 0.131586 -0.178226
H3    H     H_    0.625339 0.889629 0.119313 0.120386
C9    C     C_R   0.745295 0.829766 0.170449 -0.141396
H4    H     H_    0.605093 0.819425 0.187161 0.106951
C10   C     C_R   0.912675 0.803537 0.187839 0.126745
C11   C     C_1   0.899947 0.762879 0.228932 -0.056477
C12   C     C_1   0.890150 0.729296 0.263672 0.006867
C13   C     C_R   0.041702 0.684411 0.342227 0.440153
C14   C     C_R   0.030203 0.644287 0.381998 -0.283016
H5    H     H_    0.155899 0.637513 0.407771 0.122890
C15   C     C_R   0.857190 0.612930 0.388648 -0.096532
C16   C     C_R   0.697020 0.620315 0.353143 -0.173998
H6    H     H_    0.562354 0.596380 0.356636 0.133610
C17   C     C_R   0.709802 0.657520 0.311593 -0.210741
H7    H     H_    0.585160 0.661490 0.283983 0.163047
C18   C     C_R   0.880915 0.689666 0.305930 0.049259
C19   C     C_R   0.841385 0.642329 0.663463 -0.098194
C20   C     C_R   0.950227 0.851928 0.841229 -0.167301
C21   C     C_R   0.134465 0.783674 0.750813 -0.183410
C22   C     C_R   0.119449 0.838345 0.803443 -0.218759
C23   C     C_R   0.794391 0.808322 0.825455 0.347010
C24   C     C_R   0.809718 0.752842 0.771643 0.033709
C25   C     C_R   0.980971 0.740505 0.734355 0.100064
C26   C     C_R   0.995480 0.685761 0.680603 -0.289968
C27   C     C_R   0.673321 0.653287 0.702923 0.281236
C28   C     C_R   0.657733 0.708845 0.755108 -0.250104
H8    H     H_    0.124511 0.678042 0.651038 0.139735
H9    H     H_    0.266991 0.775133 0.722972 0.135888
H10   H     H_    0.526179 0.716674 0.783372 0.153413
H11   H     H_    0.242108 0.870368 0.814626 0.174212
C29   C     C_R   0.361064 0.357387 0.337570 -0.185248
C30   C     C_R   0.434590 0.142268 0.162269 -0.043535
C31   C     C_R   0.313295 0.177449 0.271172 -0.136436
C32   C     C_R   0.349374 0.128519 0.214434 -0.188535
C33   C     C_R   0.480540 0.206474 0.167409 -0.192461
C34   C     C_R   0.439791 0.256480 0.223975 0.040962
C35   C     C_R   0.357403 0.242126 0.276929 0.119680
C36   C     C_R   0.319435 0.292521 0.334051 0.183558
C37   C     C_R   0.439055 0.370888 0.283496 0.248970
C38   C     C_R   0.477454 0.320673 0.227783 -0.195806
H12   H     H_    0.247612 0.164354 0.310105 0.156458
H13   H     H_    0.538178 0.332141 0.187177 0.144697
H14   H     H_    0.309357 0.079539 0.211065 0.111546
H15   H     H_    0.541629 0.217690 0.126721 0.102102
C39   C     C_R   0.578284 0.151071 0.804246 0.330056
C40   C     C_R   0.589054 0.112397 0.845049 -0.238009
H16   H     H_    0.710025 0.079668 0.840527 0.120371
C41   C     C_R   0.442761 0.114322 0.890195 -0.089946
C42   C     C_R   0.285379 0.156233 0.894567 -0.165611
H17   H     H_    0.170729 0.158855 0.928947 0.131138
C43   C     C_R   0.275124 0.195812 0.855248 -0.211541
H18   H     H_    0.153006 0.228135 0.860244 0.129669
C44   C     C_R   0.419018 0.193231 0.809438 0.086330
C45   C     C_1   0.399043 0.232902 0.767411 -0.015759
C46   C     C_1   0.385424 0.266111 0.732404 -0.066881
C47   C     C_R   0.542184 0.331169 0.671710 -0.131661
H19   H     H_    0.681532 0.320745 0.688056 0.099863
C48   C     C_R   0.532484 0.370221 0.631787 -0.176353
H20   H     H_    0.665502 0.389028 0.618458 0.120119
C49   C     C_R   0.353650 0.385173 0.609846 -0.069589
C50   C     C_R   0.184917 0.359527 0.628870 -0.171231
H21   H     H_    0.044776 0.369860 0.613086 0.118896
C51   C     C_R   0.195063 0.320358 0.668837 -0.135064
H22   H     H_    0.063335 0.301376 0.682917 0.101418
C52   C     C_R   0.373754 0.306078 0.690589 0.130327
O11   O     O_R   0.294110 0.064720 0.075690 -0.535097
O12   O     O_R   0.619980 0.058360 0.949870 -0.539989
O13   O     O_R   0.785810 0.935300 0.924300 -0.511420
C53   C     C_R   0.451624 0.071728 0.931520 0.708740
O14   O     O_R   0.624080 0.072230 0.076800 -0.536422
O15   O     O_R   0.789930 0.949270 0.052130 -0.540566
C54   C     C_R   0.453341 0.090285 0.101085 0.691357
O16   O     O_R   0.289980 0.050750 0.947860 -0.536723
O17   O     O_3   0.454970 0.959660 0.991750 -0.366656
V3    V     V_3+5 0.731560 0.007480 0.001530 1.427768
O18   O     O_R   0.119360 0.941610 0.050140 -0.545351
C55   C     C_R   0.949881 0.927856 0.068265 0.677261
O19   O     O_R   0.115260 0.927740 0.923220 -0.548814
C56   C     C_R   0.948446 0.908860 0.899214 0.720528
V4    V     V_3+5 0.231020 0.992470 0.998490 1.403482
O20   O     O_3   0.957740 0.040330 0.008250 -0.365600
N1    N     N_2   0.518178 0.608524 0.690800 -0.503170
H23   H     H_    0.385076 0.629024 0.706062 0.246864
C57   C     C_3   0.553019 0.552130 0.710760 -0.518965
H24   H     H_    0.427417 0.519366 0.698452 0.187439
H25   H     H_    0.572726 0.566293 0.762846 0.181297
H26   H     H_    0.683099 0.525648 0.686495 0.184330
O21   O     O_3   0.624727 0.820810 0.860835 -0.570938
C58   C     C_3   0.633153 0.790835 0.909155 0.081252
H27   H     H_    0.726394 0.819370 0.948041 0.117371
H28   H     H_    0.691184 0.740651 0.891370 0.100875
C59   C     C_3   0.429161 0.787831 0.935217 -0.276847
H29   H     H_    0.367021 0.837098 0.952857 0.222385
H30   H     H_    0.336187 0.758809 0.896598 0.184886
C60   C     C_3   0.428465 0.757772 0.989113 -0.864116
H31   H     H_    0.486776 0.707891 0.972333 0.236433
H32   H     H_    0.278315 0.756160 0.006641 0.234248
H33   H     H_    0.517040 0.786872 0.028843 0.233684
N2    N     N_2   0.243834 0.277417 0.387982 -0.533305
H34   H     H_    0.138337 0.308648 0.412757 0.266028
C61   C     C_3   0.389192 0.264283 0.428774 -0.557389
H35   H     H_    0.476166 0.308074 0.450265 0.187784
H36   H     H_    0.485944 0.224554 0.401619 0.208928
H37   H     H_    0.318195 0.249492 0.467359 0.202975
N3    N     N_2   0.480542 0.435007 0.283852 -0.521314
H38   H     H_    0.547561 0.463027 0.323900 0.257894
C62   C     C_3   0.320766 0.467783 0.265352 -0.541865
H39   H     H_    0.368612 0.515635 0.262951 0.199496
H40   H     H_    0.200596 0.474938 0.300552 0.188696
H41   H     H_    0.268845 0.439543 0.217870 0.210118
N4    N     N_2   0.721403 0.143940 0.755714 -0.519474
H42   H     H_    0.799856 0.101585 0.744308 0.254258
C63   C     C_3   0.836334 0.200077 0.757698 -0.541386
H43   H     H_    0.992041 0.187897 0.756711 0.192498
H44   H     H_    0.805759 0.240968 0.800990 0.188103
H45   H     H_    0.805911 0.215363 0.715322 0.206823
O22   O     O_3   0.211082 0.715253 0.333992 -0.580254
C64   C     C_3   0.297209 0.747187 0.392513 0.051294
H46   H     H_    0.387979 0.712526 0.407638 0.134955
H47   H     H_    0.187647 0.769217 0.430250 0.111034
C65   C     C_3   0.425538 0.801067 0.383931 -0.270258
H48   H     H_    0.522716 0.781908 0.342208 0.204448
H49   H     H_    0.333494 0.839221 0.375102 0.190870
C66   C     C_3   0.547914 0.830398 0.442216 -0.836964
H50   H     H_    0.454014 0.850344 0.484656 0.231371
H51   H     H_    0.636852 0.869921 0.434777 0.233386
H52   H     H_    0.645963 0.793357 0.450372 0.232844

loop_
_geom_bond_atom_site_label_1
_geom_bond_atom_site_label_2
_ccdc_geom_bond_type
C14   C15   A    
O12   V3    S    
C36   N2    S    
V3    O20   S    
C31   C32   A    
O17   V3    S    
C1    O6    A    
C62   H39   S    
C63   H45   S    
C49   C50   A    
C34   C35   A    
O15   C55   A    
C20   C22   A    
C47   H19   S    
C33   C34   A    
C13   O22   S    
C57   H25   S    
C10   C11   S    
V4    O20   S    
C1    C29   S    
C5    C10   A    
C6    C7    A    
C23   O21   S    
C51   C52   A    
C66   H50   S    
C14   H5    S    
C64   C65   S    
C30   C33   A    
V2    O10   S    
C39   C44   A    
O18   C55   A    
O15   V3    S    
C60   H31   S    
C5    H1    S    
C38   H13   S    
C58   H27   S    
C19   C26   A    
C29   C37   A    
C16   C17   A    
O14   V3    S    
O11   V4    S    
O8    V2    S    
C17   H7    S    
O16   V4    S    
N4    H42   S    
C42   H17   S    
O1    V2    S    
C20   C23   A    
O7    V1    S    
O13   V3    S    
C59   C60   S    
C30   C32   A    
C39   C40   A    
O9    C4    A    
C65   C66   S    
C66   H51   S    
N2    C61   S    
C53   O16   A    
C28   H10   S    
C39   N4    S    
C47   C48   A    
C57   H26   S    
C44   C45   S    
O13   C56   A    
C30   C54   S    
C40   H16   S    
C9    H4    S    
C43   C44   A    
C4    C15   S    
C48   C49   A    
C63   H44   S    
C31   H12   S    
C35   C36   A    
C37   C38   A    
C40   C41   A    
O2    C1    A    
C45   C46   T    
C13   C14   A    
C29   C36   A    
O14   C54   A    
C33   H15   S    
O19   C56   A    
C64   H46   S    
C32   H14   S    
C16   H6    S    
N1    C57   S    
C51   H22   S    
C58   C59   S    
O3    C4    A    
C21   C22   A    
C2    C49   S    
O12   C53   A    
C47   C52   A    
O6    V2    S    
C50   C51   A    
O9    V2    S    
C24   C25   A    
C8    C9    A    
C23   C24   A    
C61   H36   S    
C41   C53   S    
O2    V1    S    
C62   H41   S    
C46   C52   S    
C11   C12   T    
C66   H52   S    
N2    H34   S    
C17   C18   A    
O4    C2    A    
C59   H29   S    
C31   C35   A    
C26   H8    S    
C27   C28   A    
N3    C62   S    
O19   V4    S    
O1    C2    A    
C27   N1    S    
C25   C26   A    
C9    C10   A    
C43   H18   S    
C62   H40   S    
O5    V1    S    
O8    C3    A    
C34   C38   A    
C63   H43   S    
C57   H24   S    
C60   H33   S    
C15   C16   A    
C6    H2    S    
C37   N3    S    
O7    V2    S    
O4    V1    S    
O3    V1    S    
V1    O10   S    
O21   C58   S    
O5    C3    A    
C7    C55   S    
C64   H47   S    
C20   C56   S    
C12   C18   S    
C61   H37   S    
N3    H38   S    
O11   C54   A    
C5    C6    A    
C60   H32   S    
C65   H49   S    
C3    C19   S    
C41   C42   A    
C58   H28   S    
C19   C27   A    
O22   C64   S    
C48   H20   S    
O17   V4    S    
C21   C25   A    
N4    C63   S    
C50   H21   S    
C13   C18   A    
N1    H23   S    
C65   H48   S    
C8    H3    S    
C42   C43   A    
C61   H35   S    
C7    C8    A    
C24   C28   A    
C22   H11   S    
O18   V4    S    
C21   H9    S    
C59   H30   S    
