data_mof_unit_29864.cif
_audit_creation_date              2012-12-10T18:00:47-0500
_audit_creation_method            fapswitch 2.2
_symmetry_space_group_name_H-M    P1
_symmetry_Int_Tables_number       1
_space_group_crystal_system       triclinic
_cell_length_a                    15.860165
_cell_length_b                    11.003605
_cell_length_c                    9.479743
_cell_angle_alpha                 90.171845
_cell_angle_beta                  89.914783
_cell_angle_gamma                 89.901446
_cell_volume                      1654.38345118

loop_
_atom_site_label
_atom_site_type_symbol
_atom_type_description
_atom_site_fract_x
_atom_site_fract_y
_atom_site_fract_z
_atom_type_partial_charge
C1    C     C_R   0.505813 0.262166 0.497818 0.798193
C2    C     C_R   0.497144 0.738515 0.498618 0.798162
C3    C     C_R   0.502435 0.935585 0.357561 0.042525
C4    C     C_R   0.525690 0.061834 0.614044 0.055371
C5    C     C_R   0.496699 0.873368 0.491167 -0.142926
C6    C     C_R   0.514259 0.128268 0.488734 -0.142236
C7    C     C_R   0.433610 0.547663 0.074731 -0.046420
C8    C     C_R   0.566717 0.453425 0.925166 -0.055260
C9    C     C_R   0.433535 0.547281 0.925779 -0.054549
C10   C     C_R   0.566713 0.453264 0.074116 -0.045004
C11   C     C_R   0.339689 0.499663 0.500096 0.821764
C12   C     C_R   0.660290 0.500139 0.499957 0.810556
C13   C     C_3   0.971576 0.391420 0.540675 0.541140
C14   C     C_3   0.028229 0.605317 0.461409 0.541972
C15   C     C_3   0.027592 0.411725 0.409672 -0.307086
C16   C     C_3   0.972259 0.584989 0.592387 -0.307746
C17   C     C_1   0.250013 0.498272 0.500515 -0.190260
C18   C     C_1   0.749925 0.500334 0.499936 -0.192069
C19   C     C_3   0.027495 0.473703 0.633370 -0.299663
C20   C     C_3   0.972379 0.523031 0.368693 -0.300187
C21   C     C_3   0.082817 0.496155 0.501598 0.074474
C22   C     C_3   0.917059 0.500620 0.500418 0.075312
C23   C     C_1   0.174473 0.497019 0.501079 -0.001028
C24   C     C_1   0.825444 0.500547 0.500165 -0.003722
C25   C     C_R   0.507886 0.064409 0.356590 0.040201
C26   C     C_R   0.496970 0.941822 0.618161 0.047379
Cu1   Cu    Cu3+1 0.500000 0.500020 0.640660 0.933350
Cu2   Cu    Cu3+1 0.500000 0.499980 0.359340 0.925235
H1    H     H_    0.051498 0.340529 0.336608 0.145259
H2    H     H_    0.948353 0.656191 0.665447 0.146038
H3    H     H_    0.948594 0.544712 0.261595 0.147428
H4    H     H_    0.051266 0.451956 0.740456 0.148149
H5    H     H_    0.380628 0.586576 0.130796 0.128489
H6    H     H_    0.619914 0.415862 0.868813 0.140711
H7    H     H_    0.380319 0.584961 0.869900 0.143555
H8    H     H_    0.619830 0.414749 0.129652 0.123528
N1    N     N_R   0.500020 0.500030 0.852070 -0.156313
N2    N     N_R   0.499980 0.499970 0.147930 -0.148112
O1    O     O_R   0.500000 0.319660 0.618740 -0.576046
O2    O     O_R   0.500000 0.680340 0.381260 -0.589375
O3    O     O_R   0.499990 0.319630 0.381170 -0.590297
O4    O     O_R   0.500010 0.680370 0.618830 -0.580450
O5    O     O_R   0.379080 0.500000 0.618760 -0.582454
O6    O     O_R   0.620920 0.500000 0.381240 -0.588860
O7    O     O_R   0.379080 0.499970 0.381190 -0.581946
O8    O     O_R   0.620920 0.500030 0.618810 -0.579208
O9    O     O_3   0.934665 0.280736 0.582882 -0.583702
C27   C     C_3   0.998464 0.194071 0.607704 0.062353
H9    H     H_    0.043296 0.226339 0.689916 0.139178
H10   H     H_    0.033619 0.173504 0.508798 0.139974
C28   C     C_3   0.958286 0.076989 0.659642 -0.807683
H11   H     H_    0.912403 0.042793 0.580577 0.248174
H12   H     H_    0.007737 0.006928 0.676258 0.205139
H13   H     H_    0.925041 0.093506 0.761087 0.246486
O10   O     O_3   0.064895 0.716249 0.419537 -0.576811
C29   C     C_3   0.000847 0.802236 0.393295 0.065598
H14   H     H_    0.964443 0.822035 0.491162 0.137753
H15   H     H_    0.957164 0.769732 0.309498 0.136715
C30   C     C_3   0.040904 0.919987 0.343246 -0.800483
H16   H     H_    0.076283 0.903894 0.243710 0.249096
H17   H     H_    0.991170 0.989104 0.323919 0.201677
H18   H     H_    0.084936 0.955105 0.424673 0.245597
C31   C     C_3   0.505771 0.130197 0.213006 -0.342996
C32   C     C_3   0.413480 0.156360 0.171301 -0.321069
C33   C     C_3   0.405423 0.206907 0.022700 -0.851071
H19   H     H_    0.443847 0.289598 0.010960 0.275316
H20   H     H_    0.426354 0.138824 0.944432 0.237765
H21   H     H_    0.338536 0.230073 0.001029 0.240826
H22   H     H_    0.375865 0.071389 0.177186 0.199485
H23   H     H_    0.384634 0.222015 0.246312 0.240468
H24   H     H_    0.546946 0.210627 0.207161 0.204862
H25   H     H_    0.539234 0.080311 0.128500 0.168649
C34   C     C_3   0.457723 0.896193 0.755589 -0.403294
C35   C     C_3   0.363638 0.866731 0.737519 -0.315533
C36   C     C_3   0.319471 0.855249 0.880238 -0.879743
H26   H     H_    0.352966 0.789314 0.948574 0.241113
H27   H     H_    0.317771 0.944828 0.934544 0.255534
H28   H     H_    0.253703 0.823685 0.864351 0.249588
H29   H     H_    0.332187 0.940339 0.676918 0.217134
H30   H     H_    0.355861 0.780367 0.678177 0.223790
H31   H     H_    0.492349 0.818047 0.799735 0.224460
H32   H     H_    0.461569 0.966715 0.838432 0.187654
C37   C     C_3   0.505888 0.868100 0.214414 -0.341680
C38   C     C_3   0.597923 0.833024 0.180107 -0.316899
C39   C     C_3   0.608783 0.788505 0.029069 -0.858710
H33   H     H_    0.561669 0.717755 0.003796 0.272331
H34   H     H_    0.601709 0.865732 0.955520 0.231829
H35   H     H_    0.672884 0.749548 0.015046 0.242267
H36   H     H_    0.639507 0.913256 0.195317 0.198927
H37   H     H_    0.620518 0.761260 0.252816 0.241752
H38   H     H_    0.460913 0.792155 0.205417 0.204008
H39   H     H_    0.478180 0.919214 0.126024 0.176212
C40   C     C_3   0.578331 0.110586 0.736924 -0.418451
C41   C     C_3   0.665778 0.153700 0.687629 -0.314993
C42   C     C_3   0.725572 0.172345 0.811930 -0.851669
H40   H     H_    0.740183 0.083754 0.862283 0.245989
H41   H     H_    0.785308 0.213377 0.773927 0.276082
H42   H     H_    0.697002 0.233707 0.891874 0.236969
H43   H     H_    0.694060 0.085062 0.615248 0.217393
H44   H     H_    0.660092 0.240716 0.629560 0.220011
H45   H     H_    0.545033 0.183781 0.794972 0.219535
H46   H     H_    0.589805 0.037576 0.814854 0.189522

loop_
_geom_bond_atom_site_label_1
_geom_bond_atom_site_label_2
_ccdc_geom_bond_type
O10   C29   S    
C40   C41   S    
C34   C35   S    
C42   H40   S    
C42   H42   S    
C39   H33   S    
C37   H39   S    
C17   C23   T    
C18   C24   T    
C14   C21   S    
C4    C40   S    
C19   C21   S    
Cu1   N1    S    
C6    C25   A    
Cu2   O2    S    
C16   H2    S    
Cu2   O3    S    
C26   C34   S    
C29   H14   S    
C25   C31   S    
C27   C28   S    
O9    C27   S    
Cu1   O1    S    
C33   H20   S    
C11   O5    A    
C32   H23   S    
C27   H10   S    
C14   O10   S    
C30   H16   S    
C35   H30   S    
C7    H5    S    
C38   H37   S    
C19   H4    S    
C34   H31   S    
C15   H1    S    
C39   H34   S    
C15   C20   S    
Cu2   O7    S    
C30   H17   S    
C35   C36   S    
C13   C19   S    
C28   H11   S    
C14   C20   S    
C3    C25   A    
C38   C39   S    
C4    C6    A    
C40   H45   S    
C13   O9    S    
Cu2   O6    S    
C1    C6    S    
C28   H12   S    
C12   O8    A    
C36   H26   S    
C2    O2    A    
C37   C38   S    
C41   H44   S    
C33   H21   S    
C9    N1    A    
C8    H6    S    
C32   H22   S    
C36   H27   S    
Cu1   O8    S    
C1    O3    A    
C27   H9    S    
C20   C22   S    
C35   H29   S    
C13   C15   S    
C3    C37   S    
C14   C16   S    
C11   O7    A    
C2    C5    S    
C38   H36   S    
C34   H32   S    
C39   H35   S    
C7    C9    A    
C11   C17   S    
C30   H18   S    
C16   C22   S    
C31   H24   S    
C31   C32   S    
C3    C5    A    
C40   H46   S    
C4    C26   A    
C42   H41   S    
C37   H38   S    
C29   C30   S    
C10   N2    A    
C28   H13   S    
C32   C33   S    
C21   C23   S    
C12   O6    A    
Cu1   O4    S    
C41   H43   S    
C2    O4    A    
C16   C19   S    
C7    N2    A    
C29   H15   S    
C13   C22   S    
C22   C24   S    
C41   C42   S    
C36   H28   S    
C1    O1    A    
C5    C26   A    
Cu1   O5    S    
C15   C21   S    
C31   H25   S    
C8    C10   A    
C33   H19   S    
C8    N1    A    
C12   C18   S    
Cu1   Cu2   S    
C9    H7    S    
C10   H8    S    
Cu2   N2    S    
C20   H3    S    
