data_mof_unit_51337.cif
_audit_creation_date              2012-12-11T14:17:35-0500
_audit_creation_method            fapswitch 2.2
_symmetry_space_group_name_H-M    P1
_symmetry_Int_Tables_number       1
_space_group_crystal_system       triclinic
_cell_length_a                    6.945414
_cell_length_b                    13.628058
_cell_length_c                    20.413884
_cell_angle_alpha                 102.163976
_cell_angle_beta                  89.892146
_cell_angle_gamma                 90.708906
_cell_volume                      1888.69893792

loop_
_atom_site_label
_atom_site_type_symbol
_atom_type_description
_atom_site_fract_x
_atom_site_fract_y
_atom_site_fract_z
_atom_type_partial_charge
O1    O     O_R   0.506860 0.599390 0.449240 -0.538439
O2    O     O_R   0.180220 0.594600 0.586780 -0.541638
O3    O     O_R   0.004500 0.400610 0.550760 -0.540595
C1    C     C_R   0.349052 0.616175 0.613425 0.747501
O4    O     O_R   0.177490 0.611290 0.451970 -0.540219
O5    O     O_R   0.001750 0.417420 0.414990 -0.540875
C2    C     C_R   0.347027 0.637875 0.435188 0.700623
O6    O     O_R   0.509610 0.582580 0.585010 -0.538413
O7    O     O_3   0.337420 0.436370 0.488020 -0.376236
V1    V     V_3+5 0.064680 0.511800 0.502220 1.439573
O8    O     O_R   0.671710 0.405400 0.413220 -0.548088
C3    C     C_R   0.839803 0.384101 0.386521 0.737475
O9    O     O_R   0.674440 0.388710 0.548030 -0.542794
C4    C     C_R   0.842352 0.362058 0.564816 0.690886
V2    V     V_3+5 0.564010 0.488200 0.497780 1.428968
O10   O     O_3   0.841140 0.563630 0.511980 -0.365928
C5    C     C_R   0.826355 0.110165 0.611272 -0.150218
H1    H     H_    0.818581 0.161723 0.519079 0.104215
H2    H     H_    0.813449 0.032648 0.584915 0.129923
C6    C     C_R   0.847358 0.284429 0.604444 -0.030106
C7    C     C_R   0.878036 0.315166 0.927937 -0.129406
C8    C     C_R   0.880792 0.390885 0.891912 -0.102550
C9    C     C_R   0.872291 0.367541 0.822161 -0.159367
C10   C     C_R   0.860290 0.266477 0.786205 0.078159
C11   C     C_R   0.855322 0.189305 0.823639 0.053273
C12   C     C_R   0.852945 0.239711 0.714612 0.066487
C13   C     C_R   0.837349 0.136435 0.681907 0.085864
C14   C     C_R   0.832193 0.061614 0.720268 -0.053434
C15   C     C_R   0.842007 0.088297 0.789842 -0.234158
C16   C     C_R   0.859711 0.312362 0.674183 -0.202915
C17   C     C_R   0.829873 0.183589 0.573144 -0.176030
C18   C     C_R   0.865063 0.214741 0.894615 -0.075273
H3    H     H_    0.872121 0.391624 0.695021 0.091626
H4    H     H_    0.886430 0.334898 0.982142 0.126108
H5    H     H_    0.875135 0.430742 0.798243 0.106816
H6    H     H_    0.890445 0.468551 0.918264 0.123211
H7    H     H_    0.838217 0.028656 0.817580 0.118792
C19   C     C_2   0.005398 0.289138 0.284876 -0.132779
C20   C     C_2   0.842234 0.315752 0.319727 -0.309423
H8    H     H_    0.142558 0.317955 0.306758 0.133906
H9    H     H_    0.703594 0.287432 0.299507 0.126648
C21   C     C_2   0.013725 0.221046 0.217253 -0.125464
C22   C     C_2   0.858550 0.183427 0.180316 -0.300875
H10   H     H_    0.156587 0.202025 0.197176 0.134698
H11   H     H_    0.714392 0.201701 0.198781 0.126732
C23   C     C_2   0.204731 0.791301 0.782176 -0.125821
C24   C     C_2   0.363722 0.815956 0.819823 -0.307533
H12   H     H_    0.067117 0.821684 0.801499 0.139124
H13   H     H_    0.502145 0.785937 0.801785 0.135072
C25   C     C_2   0.202971 0.722647 0.714725 -0.115788
C26   C     C_2   0.361084 0.684731 0.680071 -0.302667
H14   H     H_    0.061712 0.703360 0.692698 0.155676
H15   H     H_    0.504221 0.703649 0.700031 0.144472
C27   C     C_R   0.399965 0.887648 0.387008 -0.159433
H16   H     H_    0.397095 0.837575 0.479847 0.115519
H17   H     H_    0.422494 0.012405 0.303763 0.121675
H18   H     H_    0.420995 0.965522 0.411898 0.114406
C28   C     C_R   0.358641 0.714550 0.394964 -0.034365
C29   C     C_R   0.328862 0.685004 0.071120 -0.212580
C30   C     C_R   0.314580 0.608694 0.106762 0.023340
C31   C     C_R   0.324825 0.631343 0.176708 -0.199167
C32   C     C_R   0.349981 0.731633 0.212806 0.066032
C33   C     C_R   0.365430 0.809100 0.175697 0.067410
C34   C     C_R   0.360513 0.757655 0.284384 0.081147
C35   C     C_R   0.387491 0.860032 0.316861 0.140453
C36   C     C_R   0.402193 0.934278 0.279288 -0.203346
C37   C     C_R   0.391099 0.909459 0.209916 -0.191055
C38   C     C_R   0.345556 0.685828 0.325169 -0.214155
C39   C     C_R   0.386214 0.815211 0.425798 -0.167082
C40   C     C_R   0.354374 0.784653 0.104833 -0.084370
H19   H     H_    0.324578 0.606901 0.304638 0.095267
H20   H     H_    0.320101 0.666897 0.016834 0.106689
H21   H     H_    0.312856 0.568847 0.201213 0.112193
H22   H     H_    0.403222 0.970058 0.183276 0.116456
O11   O     O_R   0.203230 0.917310 0.915020 -0.540646
O12   O     O_R   0.535500 0.888690 0.048040 -0.542133
O13   O     O_R   0.711080 0.082610 0.085000 -0.544645
C41   C     C_R   0.366004 0.862124 0.064863 0.691937
O14   O     O_R   0.532630 0.905370 0.913230 -0.548410
O15   O     O_R   0.708190 0.099410 0.949230 -0.537793
C42   C     C_R   0.364420 0.884331 0.886474 0.741383
O16   O     O_R   0.206120 0.900510 0.050790 -0.540476
O17   O     O_3   0.375360 0.063570 0.011990 -0.367501
V3    V     V_3+5 0.648170 0.988200 0.997780 1.426467
O18   O     O_R   0.038240 0.111390 0.951940 -0.536071
C43   C     C_R   0.870312 0.137703 0.934981 0.695251
O19   O     O_R   0.041120 0.094710 0.086750 -0.540650
C44   C     C_R   0.872486 0.115773 0.113507 0.747154
V4    V     V_3+5 0.148810 0.011930 0.002180 1.445163
O20   O     O_3   0.871750 0.936430 0.988010 -0.375788
C45   C     C_1   0.816300 0.955862 0.689740 0.285065
N1    N     N_1   0.803442 0.871276 0.665431 -0.385958
C46   C     C_1   0.289097 0.506140 0.071259 0.281871
N2    N     N_1   0.268738 0.423785 0.042751 -0.368053

loop_
_geom_bond_atom_site_label_1
_geom_bond_atom_site_label_2
_ccdc_geom_bond_type
O19   C44   A    
C46   N2    T    
C40   C41   S    
O15   V3    S    
O12   V3    S    
C24   H13   S    
C27   C35   A    
C6    C16   A    
O18   C43   A    
C12   C13   A    
O16   V4    S    
V3    O20   S    
C22   C44   S    
C34   C38   A    
C14   C15   A    
O12   C41   A    
C19   C21   S    
O5    C3    A    
O14   V3    S    
V2    O10   S    
C32   C34   A    
O8    V2    S    
O13   C44   A    
C25   H14   S    
C9    C10   A    
O1    V2    S    
O7    V1    S    
C2    C28   S    
C1    O6    A    
C29   H20   S    
C30   C46   S    
C11   C18   A    
C36   C37   A    
C29   C30   A    
O9    C4    A    
C21   H10   S    
C23   H12   S    
C11   C15   A    
O17   V4    S    
C7    C18   A    
C33   C37   A    
C1    C26   S    
C5    C13   A    
C4    C6    S    
C10   C11   A    
C20   H9    S    
C45   N1    T    
O4    C2    A    
O18   V4    S    
O11   C42   A    
C7    H4    S    
O13   V3    S    
C31   H21   S    
C30   C31   A    
C26   H15   S    
O2    C1    A    
C32   C33   A    
C41   O16   A    
O17   V3    S    
C33   C40   A    
C18   C43   S    
C25   C26   D    
C37   H22   S    
C22   H11   S    
H16   C39   S    
O3    C4    A    
C28   C38   A    
C12   C16   A    
O6    V2    S    
C9    H5    S    
O19   V4    S    
C5    C17   A    
C21   C22   D    
O2    V1    S    
O14   C42   A    
C23   C24   D    
C16   H3    S    
O1    C2    A    
C10   C12   A    
O5    V1    S    
O8    C3    A    
C28   C39   A    
C8    H6    S    
C23   C25   S    
O15   C43   A    
C34   C35   A    
C3    C20   S    
O9    V2    S    
O7    V2    S    
O4    V1    S    
O3    V1    S    
V1    O10   S    
C19   H8    S    
C19   C20   D    
C27   C39   A    
C38   H19   S    
H17   C36   S    
C5    H2    S    
C14   C45   S    
C24   C42   S    
C31   C32   A    
O11   V4    S    
C29   C40   A    
C35   C36   A    
C15   H7    S    
C13   C14   A    
C8    C9    A    
H1    C17   S    
V4    O20   S    
C7    C8    A    
C6    C17   A    
C27   H18   S    
