data_mof_unit_14634.cif
_audit_creation_date              2012-12-11T14:24:58-0500
_audit_creation_method            fapswitch 2.2
_symmetry_space_group_name_H-M    P1
_symmetry_Int_Tables_number       1
_space_group_crystal_system       triclinic
_cell_length_a                    19.294719
_cell_length_b                    10.940274
_cell_length_c                    18.81416
_cell_angle_alpha                 89.508177
_cell_angle_beta                  90.454612
_cell_angle_gamma                 89.732463
_cell_volume                      3971.15596945

loop_
_atom_site_label
_atom_site_type_symbol
_atom_type_description
_atom_site_fract_x
_atom_site_fract_y
_atom_site_fract_z
_atom_type_partial_charge
Br1   Br    Br    0.625268 0.037089 0.608617 -0.514002
Br2   Br    Br    0.377658 0.796208 0.418067 -0.567942
Br3   Br    Br    0.123274 0.548542 0.622433 -0.503098
Br4   Br    Br    0.882733 0.313516 0.412948 -0.560033
C1    C     C_R   0.728446 0.372063 0.144414 0.535485
C2    C     C_R   0.241456 0.895128 0.068422 -0.002089
C3    C     C_R   0.625384 0.408068 0.469714 -0.074733
C4    C     C_R   0.921883 0.091501 0.532634 -0.103539
C5    C     C_R   0.076907 0.945863 0.520311 -0.116390
C6    C     C_R   0.422739 0.584147 0.536707 -0.099473
C7    C     C_R   0.579524 0.441535 0.522957 -0.116939
C8    C     C_R   0.929749 0.045869 0.464602 -0.091505
C9    C     C_R   0.091466 0.045585 0.562084 -0.102971
C10   C     C_R   0.428166 0.537108 0.468745 -0.096159
C11   C     C_R   0.593413 0.542951 0.563889 -0.102783
C12   C     C_R   0.875290 0.982946 0.433053 -0.061847
C13   C     C_R   0.251072 0.409905 0.926958 -0.007168
C14   C     C_R   0.153350 0.107858 0.552218 -0.092474
C15   C     C_R   0.370276 0.484092 0.437063 -0.053509
C16   C     C_R   0.653689 0.608742 0.551829 -0.092024
C17   C     C_R   0.747328 0.947058 0.434545 -0.029107
C18   C     C_R   0.269087 0.011800 0.559996 -0.036940
C19   C     C_R   0.239643 0.478201 0.439629 -0.028053
C20   C     C_R   0.769782 0.514458 0.559561 -0.038595
C21   C     C_R   0.727943 0.373257 0.356284 0.565764
C22   C     C_R   0.268206 0.389046 0.650202 0.556350
C23   C     C_R   0.227317 0.871656 0.356810 0.559811
C24   C     C_R   0.741458 0.395136 0.068425 -0.001767
C25   C     C_R   0.769293 0.886029 0.648327 0.555896
C26   C     C_R   0.531588 0.153465 0.352539 0.533813
C27   C     C_R   0.435511 0.150055 0.639407 0.555670
C28   C     C_R   0.032689 0.653210 0.353102 0.527537
C29   C     C_R   0.935709 0.650041 0.639390 0.555520
C30   C     C_R   0.741020 0.975378 0.358636 0.535929
C31   C     C_R   0.272281 0.027372 0.637216 0.550348
C32   C     C_R   0.232157 0.509690 0.364279 0.553949
C33   C     C_R   0.772398 0.527800 0.637219 0.550222
C34   C     C_3   0.526617 0.227397 0.964958 -0.110739
C35   C     C_R   0.698542 0.849275 0.966757 0.018729
C36   C     C_3   0.483449 0.278996 0.027138 -0.122771
C37   C     C_3   0.026622 0.727396 0.964956 -0.110228
C38   C     C_3   0.983453 0.778995 0.027136 -0.123118
C39   C     C_3   0.546073 0.114259 0.010593 -0.105244
C40   C     C_3   0.418652 0.210329 0.999076 -0.138894
C41   C     C_3   0.046078 0.614258 0.010592 -0.105141
C42   C     C_3   0.918656 0.710327 0.999074 -0.139271
C43   C     C_3   0.502442 0.165299 0.071858 0.047796
C44   C     C_3   0.462454 0.158665 0.938241 0.045513
C45   C     C_3   0.002446 0.665298 0.071857 0.047103
C46   C     C_R   0.301480 0.852192 0.032608 0.018074
C47   C     C_3   0.962459 0.658663 0.938239 0.045418
C48   C     C_R   0.198529 0.349314 0.966744 0.018864
C49   C     C_R   0.801483 0.352202 0.032612 0.018100
C50   C     C_R   0.703046 0.848286 0.042239 0.015852
C51   C     C_R   0.300367 0.847676 0.957225 0.029392
C52   C     C_R   0.203034 0.348317 0.042226 0.015188
C53   C     C_R   0.269769 0.375237 0.853907 0.542802
C54   C     C_R   0.800371 0.347685 0.957229 0.029327
C55   C     C_R   0.801292 0.985744 0.035681 -0.156291
C56   C     C_R   0.186020 0.939933 0.955082 -0.154472
C57   C     C_R   0.301278 0.485778 0.035671 -0.156775
C58   C     C_R   0.686023 0.439937 0.955085 -0.154634
C59   C     C_R   0.800393 0.979653 0.962965 -0.161525
C60   C     C_R   0.183557 0.932856 0.027918 -0.144599
C61   C     C_R   0.300380 0.479688 0.962955 -0.161234
C62   C     C_R   0.683559 0.432861 0.027919 -0.144428
C63   C     C_R   0.642289 0.788067 0.934467 -0.079526
C64   C     C_R   0.228445 0.872059 0.144413 0.537277
C65   C     C_R   0.362149 0.811825 0.068676 -0.103085
C66   C     C_R   0.142277 0.288112 0.934449 -0.079274
C67   C     C_R   0.862150 0.311832 0.068681 -0.103001
C68   C     C_R   0.098599 0.214275 0.974456 -0.137152
C69   C     C_R   0.915071 0.252985 0.032271 -0.146347
C70   C     C_R   0.598606 0.714247 0.974480 -0.137030
C71   C     C_R   0.415072 0.752988 0.032264 -0.146285
C72   C     C_R   0.607568 0.703976 0.047538 -0.127902
C73   C     C_R   0.409190 0.734795 0.959481 -0.153581
C74   C     C_R   0.107560 0.203993 0.047515 -0.127965
C75   C     C_R   0.769772 0.875227 0.853911 0.542762
C76   C     C_R   0.909189 0.234790 0.959488 -0.153595
C77   C     C_R   0.659203 0.770192 0.081378 -0.078433
C78   C     C_R   0.352998 0.782852 0.921989 -0.089924
C79   C     C_R   0.159190 0.270215 0.081359 -0.078425
C80   C     C_R   0.853001 0.282856 0.921995 -0.090004
C81   C     C_R   0.532037 0.156255 0.144447 0.550902
C82   C     C_R   0.439146 0.151108 0.863140 0.570435
C83   C     C_R   0.032038 0.656255 0.144447 0.552198
C84   C     C_R   0.939149 0.651108 0.863140 0.570795
C85   C     C_R   0.751806 0.924546 0.076322 -0.009198
C86   C     C_3   0.438333 0.097087 0.045069 -0.120354
C87   C     C_R   0.246031 0.906934 0.919312 -0.002048
C88   C     C_R   0.251795 0.424572 0.076312 -0.010359
C89   C     C_R   0.746034 0.406940 0.919315 -0.002390
C90   C     C_R   0.450916 0.139382 0.562651 0.014741
C91   C     C_R   0.494387 0.141181 0.420273 0.013368
C92   C     C_R   0.952158 0.639015 0.562991 0.015801
C93   C     C_R   0.997267 0.640390 0.421444 0.012546
C94   C     C_R   0.475918 0.026908 0.531446 0.074164
C95   C     C_R   0.495021 0.026812 0.459270 0.060981
C96   C     C_R   0.979055 0.527096 0.532725 0.072954
C97   C     C_3   0.481709 0.045722 0.983303 -0.097379
C98   C     C_R   0.000249 0.526770 0.461262 0.059723
C99   C     C_R   0.464858 0.243460 0.450016 -0.177022
C100  C     C_R   0.439869 0.240976 0.519225 -0.184573
C101  C     C_R   0.966097 0.741820 0.450289 -0.177086
C102  C     C_R   0.940692 0.739743 0.519181 -0.183528
C103  C     C_R   0.486116 0.913573 0.569445 -0.028311
C104  C     C_R   0.517466 0.911208 0.430626 -0.047272
C105  C     C_R   0.988788 0.414436 0.571307 -0.028248
C106  C     C_R   0.027422 0.412176 0.434700 -0.045602
C107  C     C_R   0.034761 0.327699 0.549761 -0.101974
C108  C     C_3   0.938338 0.597085 0.045067 -0.120434
C109  C     C_R   0.050559 0.320402 0.479486 -0.126894
C110  C     C_R   0.528827 0.823949 0.544684 -0.096552
C111  C     C_R   0.540834 0.816764 0.473605 -0.120011
C112  C     C_R   0.754779 0.949559 0.581158 0.031283
C113  C     C_R   0.243873 0.914143 0.426972 0.019844
C114  C     C_R   0.252026 0.459509 0.585411 0.025029
C115  C     C_R   0.745057 0.417331 0.426086 0.020982
C116  C     C_R   0.810485 0.994103 0.541206 0.016471
C117  C     C_R   0.190258 0.962442 0.467625 0.012639
C118  C     C_R   0.307324 0.504387 0.545134 0.014977
C119  C     C_3   0.981714 0.545721 0.983302 -0.097183
C120  C     C_R   0.691305 0.463699 0.467418 0.011700
C121  C     C_R   0.811777 0.968146 0.468977 0.017088
C122  C     C_R   0.207665 0.041657 0.521943 0.012694
C123  C     C_R   0.305998 0.482974 0.472706 0.023401
C124  C     C_R   0.708416 0.544000 0.521353 0.009948
C125  C     C_R   0.686471 0.956033 0.476106 -0.134336
C126  C     C_R   0.318427 0.936890 0.527734 -0.128017
C127  C     C_R   0.180931 0.492829 0.483515 -0.138373
C128  C     C_R   0.820180 0.442968 0.526296 -0.128642
C129  C     C_R   0.741999 0.969475 0.148875 0.533261
C130  C     C_R   0.751082 0.909873 0.926969 -0.007954
C131  C     C_R   0.257627 0.965866 0.849981 0.553357
C132  C     C_R   0.241996 0.469481 0.148872 0.539469
C133  C     C_R   0.757628 0.465869 0.849982 0.552631
C134  C     C_R   0.690461 0.954208 0.550541 0.104407
C135  C     C_R   0.308747 0.897109 0.458792 0.134234
C136  C     C_R   0.186712 0.476523 0.557607 0.116086
C137  C     C_R   0.810839 0.404543 0.456830 0.137543
C138  C     C_R   0.863005 0.066479 0.570993 -0.062142
C139  C     C_R   0.123502 0.910080 0.468400 -0.077728
C140  C     C_R   0.362799 0.569390 0.574874 -0.056714
Cr1   Cr    Cr6+3 0.772820 0.169820 0.252640 1.053131
Cr2   Cr    Cr6+3 0.383280 0.011130 0.749340 0.995810
Cr3   Cr    Cr6+3 0.116720 0.511130 0.250660 1.005815
Cr4   Cr    Cr6+3 0.883280 0.511130 0.749340 0.997234
Cr5   Cr    Cr6+3 0.227180 0.169820 0.747360 1.006472
Cr6   Cr    Cr6+3 0.272820 0.669820 0.252640 1.046635
Cr7   Cr    Cr6+3 0.727180 0.669820 0.747360 1.005538
Cr8   Cr    Cr6+3 0.615040 0.323610 0.249150 1.007647
Cr9   Cr    Cr6+3 0.384960 0.323610 0.750850 1.008053
Cr10  Cr    Cr6+3 0.115040 0.823610 0.249150 1.003157
Cr11  Cr    Cr6+3 0.884960 0.823610 0.750850 1.010450
Cr12  Cr    Cr6+3 0.616720 0.011130 0.250660 1.004681
H1    H     H_    0.598958 0.074560 0.016151 0.131342
H2    H     H_    0.514157 0.884136 0.375823 0.187018
H3    H     H_    0.962117 0.383627 0.618091 0.144399
H4    H     H_    0.029377 0.382496 0.380470 0.189135
H5    H     H_    0.050734 0.260377 0.587795 0.099048
H6    H     H_    0.076601 0.240903 0.458530 0.127041
H7    H     H_    0.546453 0.755833 0.581437 0.098803
H8    H     H_    0.564196 0.735789 0.451179 0.126780
H9    H     H_    0.638756 0.983148 0.451033 0.167018
H10   H     H_    0.360223 0.898824 0.558055 0.149344
H11   H     H_    0.134644 0.531951 0.461109 0.142659
H12   H     H_    0.365507 0.248114 0.993005 0.124282
H13   H     H_    0.862759 0.406880 0.556076 0.145541
H14   H     H_    0.858487 0.104550 0.623733 0.141664
H15   H     H_    0.111208 0.831300 0.436728 0.143878
H16   H     H_    0.360454 0.606297 0.628075 0.138699
H17   H     H_    0.613637 0.328531 0.438366 0.149413
H18   H     H_    0.961180 0.144353 0.556924 0.107474
H19   H     H_    0.030555 0.896977 0.530008 0.141910
H20   H     H_    0.464685 0.628718 0.561482 0.101910
H21   H     H_    0.534700 0.389026 0.534443 0.144520
H22   H     H_    0.976831 0.062755 0.435301 0.133848
H23   H     H_    0.098963 0.574560 0.016150 0.131254
H24   H     H_    0.057213 0.068369 0.605085 0.106633
H25   H     H_    0.476068 0.545353 0.439637 0.128420
H26   H     H_    0.560702 0.564428 0.608381 0.107733
H27   H     H_    0.883126 0.948542 0.379992 0.134389
H28   H     H_    0.163928 0.186570 0.584540 0.158641
H29   H     H_    0.376872 0.445338 0.384951 0.146012
H30   H     H_    0.663719 0.687878 0.583985 0.159503
H31   H     H_    0.562765 0.279901 0.930925 0.126071
H32   H     H_    0.484032 0.374763 0.046184 0.109244
H33   H     H_    0.062769 0.779898 0.930922 0.126695
H34   H     H_    0.865511 0.748108 0.993004 0.124169
H35   H     H_    0.984035 0.874762 0.046183 0.109167
H36   H     H_    0.401917 0.047365 0.079981 0.118956
H37   H     H_    0.482753 0.950427 0.963999 0.150768
H38   H     H_    0.901921 0.547365 0.079980 0.119138
H39   H     H_    0.982758 0.450425 0.963998 0.150832
H40   H     H_    0.840549 0.042307 0.059922 0.161823
H41   H     H_    0.141473 0.977307 0.926915 0.139450
H42   H     H_    0.340535 0.542340 0.059913 0.161749
H43   H     H_    0.641474 0.477306 0.926916 0.139284
H44   H     H_    0.629925 0.797761 0.878711 0.150013
H45   H     H_    0.466102 0.326898 0.419886 0.114768
H46   H     H_    0.370723 0.827204 0.124591 0.142053
H47   H     H_    0.129914 0.297819 0.878693 0.150630
H48   H     H_    0.870724 0.327212 0.124597 0.142866
H49   H     H_    0.841592 0.025369 0.934972 0.154836
H50   H     H_    0.134719 0.956025 0.052254 0.145389
H51   H     H_    0.341581 0.525401 0.934962 0.154862
H52   H     H_    0.634720 0.456024 0.052255 0.145429
H53   H     H_    0.059133 0.161599 0.948171 0.095146
H54   H     H_    0.959881 0.219066 0.061072 0.115859
H55   H     H_    0.559136 0.661575 0.948200 0.095016
H56   H     H_    0.417788 0.322565 0.541694 0.141209
H57   H     H_    0.459884 0.719076 0.061064 0.115664
H58   H     H_    0.074710 0.143828 0.078151 0.099323
H59   H     H_    0.947682 0.182858 0.931443 0.102361
H60   H     H_    0.574714 0.643823 0.078179 0.099010
H61   H     H_    0.447687 0.682874 0.931434 0.102175
H62   H     H_    0.665882 0.756103 0.137966 0.132925
H63   H     H_    0.349627 0.763575 0.865792 0.136296
H64   H     H_    0.165867 0.256118 0.137947 0.134741
H65   H     H_    0.849630 0.263579 0.865798 0.136364
H66   H     H_    0.966979 0.824983 0.419960 0.116624
H67   H     H_    0.917911 0.821291 0.541002 0.138524
H68   H     H_    0.462722 0.883957 0.618214 0.146976
O1    O     O_R   0.788190 0.043000 0.172520 -0.523923
O2    O     O_R   0.454170 0.051610 0.669840 -0.511649
O3    O     O_R   0.045830 0.551610 0.330160 -0.546663
O4    O     O_R   0.954170 0.551610 0.669840 -0.509044
O5    O     O_R   0.681920 0.959720 0.327070 -0.518085
O6    O     O_R   0.318080 0.959720 0.672930 -0.529296
O7    O     O_R   0.181920 0.459720 0.327070 -0.515330
O8    O     O_R   0.818080 0.459720 0.672930 -0.528206
O9    O     O_3   0.668190 0.168190 0.250820 -0.260552
O10   O     O_3   0.331810 0.168190 0.749180 -0.315416
O11   O     O_3   0.168190 0.668190 0.250820 -0.274029
O12   O     O_R   0.211810 0.043000 0.827480 -0.511614
O13   O     O_3   0.831810 0.668190 0.749180 -0.316877
O14   O     O_R   0.766240 0.292300 0.176860 -0.507005
O15   O     O_R   0.233760 0.292300 0.823140 -0.505466
O16   O     O_R   0.266240 0.792300 0.176860 -0.506565
O17   O     O_R   0.733760 0.792300 0.823140 -0.505224
O18   O     O_R   0.670310 0.409160 0.168720 -0.528977
O19   O     O_R   0.329690 0.409160 0.831280 -0.533135
O20   O     O_R   0.170310 0.909160 0.168720 -0.527052
O21   O     O_R   0.829690 0.909160 0.831280 -0.532402
O22   O     O_R   0.556160 0.251900 0.173380 -0.506765
O23   O     O_R   0.288190 0.543000 0.172520 -0.520411
O24   O     O_R   0.443840 0.251900 0.826620 -0.488561
O25   O     O_R   0.056160 0.751900 0.173380 -0.505484
O26   O     O_R   0.943840 0.751900 0.826620 -0.487633
O27   O     O_R   0.545410 0.050140 0.168240 -0.514600
O28   O     O_R   0.454590 0.050140 0.831760 -0.505571
O29   O     O_R   0.045410 0.550140 0.168240 -0.512655
O30   O     O_R   0.954590 0.550140 0.831760 -0.503874
O31   O     O_R   0.681530 0.958350 0.176970 -0.510331
O32   O     O_R   0.318470 0.958350 0.823030 -0.522583
O33   O     O_R   0.181530 0.458350 0.176970 -0.507321
O34   O     O_R   0.711810 0.543000 0.827480 -0.512091
O35   O     O_R   0.818470 0.458350 0.823030 -0.522672
O36   O     O_R   0.788610 0.044480 0.334450 -0.495653
O37   O     O_R   0.211390 0.044480 0.665550 -0.496076
O38   O     O_R   0.288610 0.544480 0.334450 -0.500519
O39   O     O_R   0.711390 0.544480 0.665550 -0.496967
O40   O     O_R   0.766630 0.293670 0.326970 -0.440518
O41   O     O_R   0.233370 0.293670 0.673030 -0.518450
O42   O     O_R   0.266630 0.793670 0.326970 -0.451082
O43   O     O_R   0.733370 0.793670 0.673030 -0.516865
O44   O     O_R   0.670730 0.410640 0.330640 -0.539347
O45   O     O_R   0.556550 0.253260 0.323480 -0.514188
O46   O     O_R   0.329270 0.410640 0.669360 -0.549577
O47   O     O_R   0.170730 0.910640 0.330640 -0.536974
O48   O     O_R   0.829270 0.910640 0.669360 -0.549551
O49   O     O_R   0.443450 0.253260 0.676520 -0.471404
O50   O     O_R   0.056550 0.753260 0.323480 -0.518239
O51   O     O_R   0.943450 0.753260 0.676520 -0.468920
O52   O     O_R   0.545830 0.051610 0.330160 -0.547733

loop_
_geom_bond_atom_site_label_1
_geom_bond_atom_site_label_2
_ccdc_geom_bond_type
C33   O8    A    
C8    H22   S    
C11   H26   S    
C28   O50   A    
Cr4   O30   S    
Cr1   O9    S    
C36   C43   S    
C47   C119  S    
C37   C38   S    
C45   C83   S    
C23   O47   A    
Cr9   O46   S    
Cr4   O4    S    
Cr5   O41   S    
C3    C120  A    
C76   C80   A    
C29   O4    A    
C119  H39   S    
C129  O31   A    
C39   C97   S    
Cr11  O48   S    
C5    C139  A    
Cr12  O27   S    
C106  H4    S    
C86   C97   S    
C88   C132  S    
C115  C120  A    
C41   C119  S    
C3    C7    A    
C18   C31   S    
C70   C72   A    
C9    C14   A    
Br2   C135  S    
C43   C81   S    
C104  C111  A    
C84   O26   A    
C54   C89   A    
C129  O1    A    
C58   H43   S    
C16   C124  A    
C72   C77   A    
C42   C108  S    
C80   H65   S    
C105  C107  A    
C9    H24   S    
C38   C42   S    
C91   C95   A    
C18   C122  A    
C23   O42   A    
C104  H2    S    
C90   C94   A    
C34   H31   S    
C19   C32   S    
Cr9   O24   S    
C21   C115  S    
C35   C130  A    
C111  H8    S    
C28   C93   S    
C114  C118  A    
C2    C60   A    
C118  C123  A    
Cr10  O50   S    
C113  C117  A    
C5    C9    A    
C127  C136  A    
C109  H6    S    
C22   O46   A    
C5    H19   S    
Cr3   O7    S    
C74   C79   A    
C55   C85   A    
C125  C134  A    
C8    C12   A    
C20   C128  A    
C91   C99   A    
C127  H11   S    
C107  H5    S    
Cr10  O11   S    
C51   C87   A    
Cr8   O9    S    
C29   O51   A    
C27   O2    A    
Cr4   O8    S    
C17   C121  A    
C14   H28   S    
C131  O32   A    
C12   C121  A    
Cr6   O42   S    
C36   C40   S    
Cr8   O22   S    
C93   C98   A    
Cr12  O31   S    
Cr7   O39   S    
C138  H14   S    
C22   O41   A    
C93   C101  A    
C126  H10   S    
C2    C64   S    
C48   C66   A    
C90   C100  A    
C96   C105  A    
C18   C126  A    
Cr1   O36   S    
C82   O28   A    
C74   H58   S    
C113  C135  A    
C26   O45   A    
C7    C11   A    
C29   C92   S    
C42   H34   S    
C114  C136  A    
C126  C135  A    
Cr12  O5    S    
C13   C48   A    
Cr5   O37   S    
Cr11  O26   S    
C97   H37   S    
C110  C111  A    
C76   H59   S    
C112  C134  A    
Cr11  O21   S    
C117  C122  A    
C6    H20   S    
C67   H48   S    
Cr7   O13   S    
Cr10  O20   S    
C12   H27   S    
Cr5   O12   S    
C85   C129  S    
C1    O14   A    
C58   C62   A    
C19   C127  A    
Cr4   O13   S    
Br1   C134  S    
C59   C130  A    
C69   H54   S    
C116  C138  A    
C108  C119  S    
Cr11  O51   S    
C63   H44   S    
C6    C10   A    
Br4   C137  S    
C67   C69   A    
C21   O40   A    
C40   H12   S    
C116  C121  A    
Cr6   O23   S    
C84   O30   A    
C17   C30   S    
Cr2   O2    S    
C133  O34   A    
Cr1   O1    S    
C42   C47   S    
C71   H57   S    
Cr8   O44   S    
C94   C103  A    
C112  C116  A    
C132  O23   A    
Cr2   O28   S    
C11   C16   A    
C32   O38   A    
Cr3   O33   S    
C49   C67   A    
C24   C62   A    
C33   O39   A    
C103  C110  A    
Cr8   O18   S    
C26   C91   S    
C95   C104  A    
C54   C80   A    
Cr7   O17   S    
C1    C24   S    
C62   H52   S    
C72   H60   S    
C68   H53   S    
C28   O3    A    
C41   C45   S    
Cr12  O9    S    
C4    C8    A    
C46   C51   A    
C108  H38   S    
Cr1   O14   S    
C34   C39   S    
Cr1   O40   S    
C96   C98   A    
C20   C33   S    
C30   O36   A    
C107  C109  A    
C63   C70   A    
C6    C140  A    
C2    C46   A    
C51   C78   A    
C71   C73   A    
C106  C109  A    
C17   C125  A    
C53   O15   A    
C133  O35   A    
C56   H41   S    
C50   C85   A    
C117  C139  A    
C7    H21   S    
C82   O24   A    
Cr7   O43   S    
C13   C61   A    
C25   C112  S    
Cr6   O38   S    
C81   O27   A    
Cr6   O16   S    
C45   C108  S    
C64   O16   A    
C81   O22   A    
C1    O18   A    
C43   C86   S    
C44   C82   S    
C98   C106  A    
C30   O5    A    
C128  H13   S    
C100  H56   S    
Cr4   O35   S    
C65   H46   S    
Cr10  O47   S    
C27   O49   A    
C78   H63   S    
C75   O21   A    
C99   C100  A    
C21   O44   A    
C40   C86   S    
C48   C52   A    
C52   C79   A    
C19   C123  A    
C103  H68   S    
Cr2   O6    S    
C56   C87   A    
C128  C137  A    
C66   H47   S    
C83   O25   A    
C75   C130  S    
C92   C102  A    
C86   H36   S    
Cr3   O3    S    
Cr8   O45   S    
Cr2   O32   S    
C25   O48   A    
C34   C44   S    
C10   C15   A    
C46   C65   A    
C102  H67   S    
C22   C114  S    
C39   H1    S    
C25   O43   A    
C57   H42   S    
C38   H35   S    
C66   C68   A    
C49   C54   A    
C57   C88   A    
C37   H33   S    
C61   H51   S    
Cr10  O25   S    
C125  H9    S    
C55   H40   S    
C27   C90   S    
C35   C63   A    
C101  C102  A    
C140  H16   S    
C55   C59   A    
Cr5   O10   S    
C120  C124  A    
C70   H55   S    
C56   C60   A    
C31   O6    A    
Cr2   O10   S    
C31   O37   A    
Cr9   O19   S    
C139  H15   S    
C99   H45   S    
C53   O19   A    
C40   C44   S    
C118  C140  A    
C15   H29   S    
C34   C36   S    
C79   H64   S    
C73   H61   S    
C110  H7    S    
C47   C84   S    
C60   H50   S    
C73   C78   A    
C64   O20   A    
C32   O7    A    
C115  C137  A    
C44   C97   S    
C3    H17   S    
C15   C123  A    
C10   H25   S    
Cr5   O15   S    
C69   C76   A    
Cr3   O29   S    
Cr9   O10   S    
C65   C71   A    
C4    H18   S    
C75   O17   A    
C92   C96   A    
C36   H32   S    
Cr12  O52   S    
C89   C133  S    
C41   H23   S    
C38   C45   S    
C16   H30   S    
C35   C50   A    
C105  H3    S    
C57   C61   A    
C83   O29   A    
C87   C131  S    
Cr11  O13   S    
C94   C95   A    
C59   H49   S    
C58   C89   A    
C68   C74   A    
C132  O33   A    
C20   C124  A    
C37   C41   S    
C131  O12   A    
C4    C138  A    
Br3   C136  S    
C23   C113  S    
C77   H62   S    
Cr9   O49   S    
C13   C53   S    
C52   C88   A    
C39   C43   S    
C37   C47   S    
C50   C77   A    
C14   C122  A    
C26   O52   A    
C101  H66   S    
Cr7   O34   S    
C24   C49   A    
Cr6   O11   S    
Cr3   O11   S    
