data_mof_unit_12605.cif
_audit_creation_date              2012-12-10T19:44:33-0500
_audit_creation_method            fapswitch 2.2
_symmetry_space_group_name_H-M    P1
_symmetry_Int_Tables_number       1
_space_group_crystal_system       triclinic
_cell_length_a                    8.65708
_cell_length_b                    15.072928
_cell_length_c                    14.220911
_cell_angle_alpha                 89.284765
_cell_angle_beta                  99.501607
_cell_angle_gamma                 91.826957
_cell_volume                      1829.21459884

loop_
_atom_site_label
_atom_site_type_symbol
_atom_type_description
_atom_site_fract_x
_atom_site_fract_y
_atom_site_fract_z
_atom_type_partial_charge
C1    C     C_R   0.515654 0.328868 0.502156 0.967404
C2    C     C_R   0.489278 0.671903 0.498188 0.957928
C3    C     C_R   0.376341 0.465839 0.091150 0.265058
C4    C     C_R   0.540352 0.577020 0.898307 0.301012
C5    C     C_R   0.378156 0.462255 0.191066 0.517525
C6    C     C_R   0.550731 0.573954 0.800500 0.530600
C7    C     C_R   0.625450 0.536663 0.219171 -0.152559
C8    C     C_R   0.465177 0.423745 0.793245 -0.221138
C9    C     C_R   0.634687 0.536556 0.121738 0.122222
C10   C     C_R   0.479741 0.419503 0.893639 0.129023
C11   C     C_R   0.509826 0.499648 0.054727 -0.030356
C12   C     C_R   0.514103 0.497931 0.948515 -0.079310
C13   C     C_R   0.200802 0.499668 0.474762 0.954754
C14   C     C_R   0.799179 0.500163 0.525231 0.925447
C15   C     C_2   0.035271 0.499308 0.461500 -0.343014
C16   C     C_2   0.964668 0.500187 0.538474 -0.384814
C17   C     C_R   0.463249 0.099053 0.577481 0.392618
C18   C     C_R   0.472553 0.909243 0.413735 0.385089
C19   C     C_R   0.505362 0.187617 0.587361 0.349061
C20   C     C_R   0.481983 0.817216 0.411457 0.328988
C21   C     C_R   0.540731 0.234223 0.507541 -0.419364
C22   C     C_R   0.472748 0.767660 0.495079 -0.392659
C23   C     C_R   0.603681 0.188300 0.437973 0.030525
C24   C     C_R   0.457014 0.812190 0.578420 0.091639
C25   C     C_R   0.610420 0.096091 0.445157 0.458408
C26   C     C_R   0.505849 0.900091 0.587264 0.425035
C27   C     C_R   0.523953 0.049820 0.508297 -0.228432
C28   C     C_R   0.502002 0.952343 0.503331 -0.233491
H1    H     H_    0.971968 0.498305 0.388775 0.200104
H2    H     H_    0.027976 0.501109 0.611201 0.182725
H3    H     H_    0.720926 0.565383 0.269227 0.183783
H4    H     H_    0.432508 0.364390 0.752111 0.247082
N1    N     N_R   0.500000 0.499980 0.252470 -0.155530
N2    N     N_R   0.500000 0.500020 0.747530 -0.182899
O1    O     O_R   0.500010 0.369070 0.579480 -0.595356
O2    O     O_R   0.499990 0.630930 0.420520 -0.591598
O3    O     O_R   0.500010 0.369060 0.420520 -0.595914
O4    O     O_R   0.499990 0.630940 0.579480 -0.563153
O5    O     O_R   0.271750 0.500000 0.560890 -0.612365
O6    O     O_R   0.728250 0.500000 0.439110 -0.617190
O7    O     O_R   0.271750 0.499990 0.401930 -0.565203
O8    O     O_R   0.728250 0.500010 0.598070 -0.659662
Zn1   Zn    Zn3+2 0.500000 0.500010 0.606140 0.970773
Zn2   Zn    Zn3+2 0.500000 0.499990 0.393860 1.004997
O9    O     O_3   0.379056 0.061858 0.643184 -0.503187
C29   C     C_3   0.222716 0.046839 0.598952 0.143568
H5    H     H_    0.215677 0.996385 0.542064 0.123206
H6    H     H_    0.169840 0.109432 0.568094 0.109260
C30   C     C_3   0.128279 0.011351 0.673046 -0.778966
H7    H     H_    0.187352 0.954273 0.712063 0.293974
H8    H     H_    0.010877 0.988453 0.637164 0.158575
H9    H     H_    0.115570 0.064200 0.724715 0.249484
O10   O     O_3   0.455722 0.955274 0.328055 -0.521200
C31   C     C_3   0.301545 0.985286 0.305945 0.116520
H10   H     H_    0.273088 0.028427 0.363290 0.112241
H11   H     H_    0.216590 0.927846 0.294419 0.150805
C32   C     C_3   0.285815 0.040176 0.214616 -0.754561
H12   H     H_    0.313718 0.999462 0.155394 0.263185
H13   H     H_    0.163988 0.063231 0.195582 0.199421
H14   H     H_    0.367400 0.098975 0.224794 0.269975
O11   O     O_3   0.537607 0.223085 0.678167 -0.550067
C33   C     C_3   0.703256 0.225335 0.705757 0.129922
H15   H     H_    0.754769 0.160628 0.692434 0.114185
H16   H     H_    0.758113 0.278499 0.666033 0.143997
C34   C     C_3   0.748502 0.243991 0.811489 -0.778306
H17   H     H_    0.689040 0.194956 0.853286 0.283938
H18   H     H_    0.877155 0.238453 0.832899 0.207966
H19   H     H_    0.717044 0.312274 0.827071 0.257127
O12   O     O_3   0.490179 0.776802 0.325764 -0.553694
C35   C     C_3   0.648159 0.779007 0.311042 0.155916
H20   H     H_    0.704489 0.716547 0.338375 0.143191
H21   H     H_    0.720243 0.835420 0.346778 0.127163
C36   C     C_3   0.652226 0.786799 0.205004 -0.763559
H22   H     H_    0.601989 0.850806 0.177613 0.266193
H23   H     H_    0.775100 0.784822 0.192090 0.222220
H24   H     H_    0.583036 0.731132 0.166602 0.268504
I1    I     I_    0.716348 0.253049 0.331978 -0.360121
I2    I     I_    0.316746 0.761354 0.677693 -0.366121
O13   O     O_3   0.693758 0.052847 0.385557 -0.514808
C37   C     C_3   0.832281 0.020416 0.439166 0.141798
H25   H     H_    0.806007 0.960022 0.480011 0.107690
H26   H     H_    0.894254 0.071274 0.489232 0.109662
C38   C     C_3   0.941036 0.995579 0.370859 -0.849866
H27   H     H_    0.991343 0.056761 0.341959 0.251942
H28   H     H_    0.876511 0.956478 0.310426 0.275427
H29   H     H_    0.036386 0.954805 0.408838 0.173814
O14   O     O_3   0.548119 0.933272 0.678336 -0.514022
C39   C     C_3   0.712420 0.944881 0.698208 0.130375
H30   H     H_    0.751726 0.999727 0.654072 0.105057
H31   H     H_    0.772107 0.882846 0.685004 0.120040
C40   C     C_3   0.760763 0.969529 0.802481 -0.771653
H32   H     H_    0.723415 0.915936 0.848884 0.259541
H33   H     H_    0.890046 0.979146 0.819191 0.202033
H34   H     H_    0.705016 0.032028 0.817254 0.272753
O15   O     O_3   0.249874 0.427011 0.031979 -0.583879
C41   C     C_3   0.157656 0.492368 0.980454 0.151816
H35   H     H_    0.214879 0.521105 0.922357 0.112444
H36   H     H_    0.134894 0.547001 0.027528 0.160934
C42   C     C_3   0.003079 0.448691 0.934580 -0.749445
H37   H     H_    0.945456 0.414147 0.989583 0.285470
H38   H     H_    0.923845 0.499609 0.898954 0.197775
H39   H     H_    0.024114 0.399600 0.880826 0.244410
O16   O     O_3   0.561483 0.658122 0.943711 -0.562360
C43   C     C_3   0.413674 0.693791 0.947747 0.124297
H40   H     H_    0.372229 0.670381 0.013973 0.127363
H41   H     H_    0.322551 0.675490 0.885334 0.129212
C44   C     C_3   0.430139 0.794574 0.949788 -0.716444
H42   H     H_    0.468715 0.819659 0.883453 0.289367
H43   H     H_    0.518507 0.816268 0.011216 0.245914
H44   H     H_    0.315837 0.823515 0.955799 0.203959
O17   O     O_3   0.252028 0.425186 0.227184 -0.569411
C45   C     C_3   0.258305 0.331655 0.224825 0.152099
H45   H     H_    0.378078 0.307754 0.251402 0.164030
H46   H     H_    0.219484 0.306982 0.151139 0.198544
C46   C     C_3   0.148216 0.291424 0.287820 -0.775851
H47   H     H_    0.027096 0.312733 0.261638 0.285614
H48   H     H_    0.150595 0.217858 0.285939 0.199790
H49   H     H_    0.184445 0.313559 0.362604 0.250696
O18   O     O_3   0.606926 0.648466 0.758306 -0.548688
C47   C     C_3   0.767469 0.639831 0.752447 0.181593
H50   H     H_    0.785963 0.662180 0.680331 0.164960
H51   H     H_    0.809741 0.570689 0.761768 0.106373
C48   C     C_3   0.868383 0.699977 0.824629 -0.856423
H52   H     H_    0.857619 0.678458 0.897962 0.296038
H53   H     H_    0.993139 0.696746 0.815703 0.210474
H54   H     H_    0.830806 0.769518 0.813989 0.272235
I3    I     I_    0.846499 0.591593 0.089196 -0.438381
I4    I     I_    0.457115 0.291366 0.955829 -0.332857

loop_
_geom_bond_atom_site_label_1
_geom_bond_atom_site_label_2
_ccdc_geom_bond_type
O14   C39   S    
C4    O16   S    
C1    C21   S    
C44   H43   S    
C36   H22   S    
C48   H53   S    
O15   C41   S    
C45   H46   S    
C48   H52   S    
O9    C29   S    
C29   C30   S    
C9    I3    S    
C44   H44   S    
C19   C21   A    
C24   C26   A    
C32   H13   S    
C34   H18   S    
C16   H2    S    
C15   C16   D    
C41   C42   S    
C2    O2    A    
C43   H40   S    
C33   H16   S    
C18   O10   S    
C31   H10   S    
C38   H27   S    
C26   O14   S    
C30   H8    S    
C41   H36   S    
C2    C22   S    
C44   H42   S    
C35   H20   S    
C4    C12   A    
O1    Zn1   S    
C18   C20   A    
C33   C34   S    
C47   C48   S    
C1    O3    A    
C14   O8    A    
C39   H30   S    
C30   H9    S    
C36   H23   S    
O12   C35   S    
C37   C38   S    
C10   I4    S    
C13   O7    A    
C45   H45   S    
C47   H51   S    
C15   H1    S    
C29   H6    S    
C17   O9    S    
C31   H11   S    
C7    H3    S    
C7    N1    A    
C17   C27   A    
C34   H19   S    
C18   C28   A    
C4    C6    A    
C40   H32   S    
C48   H54   S    
O5    Zn1   S    
C5    O17   S    
C46   H48   S    
O10   C31   S    
C6    N2    A    
C5    N1    A    
C8    H4    S    
C33   H15   S    
C40   H33   S    
C2    O4    A    
C42   H37   S    
C39   C40   S    
O6    Zn2   S    
O18   C47   S    
C46   H49   S    
C41   H35   S    
C38   H29   S    
C35   C36   S    
C8    N2    A    
C23   I1    S    
C9    C11   A    
C43   C44   S    
C10   C12   A    
C37   H26   S    
C42   H38   S    
C20   C22   A    
C34   H17   S    
C13   C15   S    
O7    Zn2   S    
C14   C16   S    
C20   O12   S    
O2    Zn2   S    
O8    Zn1   S    
C6    O18   S    
C27   C28   S    
C47   H50   S    
C1    O1    A    
C24   I2    S    
C7    C9    A    
C29   H5    S    
O17   C45   S    
C38   H28   S    
C25   O13   S    
N1    Zn2   S    
N2    Zn1   S    
C39   H31   S    
C37   H25   S    
C3    C5    A    
C3    O15   S    
C11   C12   S    
C43   H41   S    
C25   C27   A    
C26   C28   A    
O3    Zn2   S    
C21   C23   A    
O4    Zn1   S    
C40   H34   S    
C32   H12   S    
C19   O11   S    
C17   C19   A    
C22   C24   A    
C23   C25   A    
O11   C33   S    
C13   O5    A    
C3    C11   A    
C14   O6    A    
O13   C37   S    
C32   H14   S    
C42   H39   S    
C36   H24   S    
C8    C10   A    
C30   H7    S    
O16   C43   S    
C35   H21   S    
C45   C46   S    
C46   H47   S    
C31   C32   S    
