data_mof_unit_47076.cif
_audit_creation_date              2012-12-10T17:48:46-0500
_audit_creation_method            fapswitch 2.2
_symmetry_space_group_name_H-M    P1
_symmetry_Int_Tables_number       1
_space_group_crystal_system       triclinic
_cell_length_a                    15.726784
_cell_length_b                    10.704776
_cell_length_c                    9.947655
_cell_angle_alpha                 88.875375
_cell_angle_beta                  89.789708
_cell_angle_gamma                 92.802152
_cell_volume                      1672.3620002

loop_
_atom_site_label
_atom_site_type_symbol
_atom_type_description
_atom_site_fract_x
_atom_site_fract_y
_atom_site_fract_z
_atom_type_partial_charge
C1    C     C_R   0.498786 0.258528 0.501783 0.884549
C2    C     C_R   0.495058 0.019861 0.869401 0.207695
C3    C     C_R   0.547077 0.918831 0.864213 -0.122180
C4    C     C_R   0.338487 0.499561 0.500271 0.892450
C5    C     C_R   0.572245 0.876938 0.739789 -0.141150
C6    C     C_R   0.543206 0.934113 0.621143 0.002343
C7    C     C_R   0.511004 0.053068 0.626850 0.072130
C8    C     C_R   0.507641 0.123984 0.504909 -0.195616
C9    C     C_R   0.526696 0.067856 0.382649 -0.265882
C10   C     C_R   0.537046 0.940869 0.378183 0.652826
C11   C     C_R   0.537510 0.871684 0.498403 -0.273171
C12   C     C_3   0.948518 0.440596 0.632823 -0.436763
C13   C     C_R   0.372722 0.360357 0.143421 -0.190332
C14   C     C_R   0.304271 0.303547 0.076068 -0.219173
C15   C     C_R   0.303345 0.304920 0.936831 0.693251
C16   C     C_R   0.514543 0.738465 0.498868 0.910881
C17   C     C_R   0.370663 0.363764 0.865237 -0.246969
C18   C     C_R   0.435697 0.434480 0.929885 -0.017337
C19   C     C_R   0.436305 0.433382 0.074095 0.151610
C20   C     C_R   0.562621 0.560211 0.070006 -0.159030
C21   C     C_R   0.563568 0.558094 0.927425 0.637120
C22   C     C_R   0.661554 0.500165 0.499728 0.888000
C23   C     C_3   0.917340 0.497473 0.498565 0.203660
C24   C     C_3   0.046793 0.441349 0.633548 0.479699
C25   C     C_3   0.046293 0.416282 0.380977 0.033270
C26   C     C_3   0.947978 0.418379 0.380766 -0.405860
C27   C     C_1   0.750505 0.499244 0.499242 -0.134978
C28   C     C_3   0.082636 0.496833 0.498247 0.131405
C29   C     C_3   0.955621 0.632844 0.481486 -0.392692
C30   C     C_3   0.053693 0.632687 0.482457 -0.481525
C31   C     C_1   0.825859 0.498318 0.498893 -0.049336
C32   C     C_1   0.174174 0.497400 0.499877 0.011997
C33   C     C_1   0.249549 0.498349 0.500584 -0.102746
C34   C     C_R   0.480171 0.090494 0.752668 -0.154883
F1    F     F_    0.545575 0.886081 0.257259 -0.651108
F2    F     F_    0.073019 0.320675 0.654821 -0.617272
F3    F     F_    0.240703 0.240014 0.870884 -0.607863
F4    F     F_    0.631440 0.611706 0.860905 -0.684218
H1    H     H_    0.921304 0.343178 0.646536 0.221845
H2    H     H_    0.376628 0.338761 0.248235 0.219792
H3    H     H_    0.255141 0.250315 0.131986 0.200778
H4    H     H_    0.372870 0.344818 0.760806 0.207753
H5    H     H_    0.064612 0.317916 0.396402 0.188791
H6    H     H_    0.920203 0.320917 0.390443 0.177164
H7    H     H_    0.925085 0.457867 0.283967 0.210870
H8    H     H_    0.078586 0.690194 0.567072 0.188758
H9    H     H_    0.079611 0.677369 0.388100 0.238768
H10   H     H_    0.933437 0.691814 0.564361 0.193412
H11   H     H_    0.071227 0.499176 0.718245 0.114666
H12   H     H_    0.926112 0.495548 0.718819 0.165422
H13   H     H_    0.934007 0.675072 0.385095 0.206446
H14   H     H_    0.530953 0.121359 0.289443 0.216149
H15   H     H_    0.438739 0.166280 0.760278 0.165622
H16   H     H_    0.562609 0.867349 0.954875 0.206436
H17   H     H_    0.610309 0.796136 0.734989 0.225932
H18   H     H_    0.613955 0.609298 0.122250 0.186398
I1    I     I_    0.431374 0.053144 0.049117 -0.331783
I2    I     I_    0.097861 0.472235 0.185784 -0.359108
N1    N     N_R   0.499210 0.498800 0.142780 -0.135909
N2    N     N_R   0.499180 0.498720 0.857170 -0.147443
O1    O     O_R   0.500000 0.316780 0.614690 -0.641071
O2    O     O_R   0.499990 0.316750 0.385360 -0.634857
O3    O     O_R   0.377150 0.500020 0.614720 -0.626028
O4    O     O_R   0.377140 0.499990 0.385380 -0.622528
O5    O     O_R   0.500010 0.683250 0.614640 -0.606733
O6    O     O_R   0.500000 0.683220 0.385310 -0.540994
O7    O     O_R   0.622860 0.500010 0.614620 -0.554304
O8    O     O_R   0.622850 0.499980 0.385280 -0.624800
Zn1   Zn    Zn3+2 0.500010 0.500020 0.653130 0.997983
Zn2   Zn    Zn3+2 0.499990 0.499980 0.346870 0.989768

loop_
_geom_bond_atom_site_label_1
_geom_bond_atom_site_label_2
_ccdc_geom_bond_type
C12   H12   S    
C6    C7    A    
O4    Zn2   S    
C1    C8    S    
C9    C10   A    
C4    O4    A    
C12   C23   S    
C20   H18   S    
C32   C33   T    
C2    C34   A    
C12   H1    S    
C28   C30   S    
C2    C3    A    
C2    I1    S    
C26   H6    S    
C7    C8    A    
O6    Zn2   S    
C13   C14   A    
C1    O2    A    
C20   N1    A    
O7    Zn1   S    
C4    O3    A    
C22   O8    A    
C25   I2    S    
C24   F2    S    
C9    H14   S    
N2    Zn1   S    
C21   N2    A    
C14   H3    S    
O5    Zn1   S    
C23   C29   S    
C18   N2    A    
C25   H5    S    
C7    C34   A    
C30   H8    S    
C17   C18   A    
C3    C5    A    
C22   C27   S    
C6    C11   A    
C5    C6    A    
C3    H16   S    
C22   O7    A    
C11   C16   S    
C16   O6    A    
C10   C11   A    
C13   C19   A    
N1    Zn2   S    
C29   C30   S    
C10   F1    S    
O3    Zn1   S    
C30   H9    S    
C28   C32   S    
C20   C21   A    
O2    Zn2   S    
C34   H15   S    
O8    Zn2   S    
C18   C19   A    
C29   H13   S    
C23   C26   S    
O1    Zn1   S    
C24   H11   S    
C15   C17   A    
C4    C33   S    
C12   C24   S    
C17   H4    S    
C15   F3    S    
C13   H2    S    
C16   O5    A    
C29   H10   S    
C26   H7    S    
C19   N1    A    
C25   C26   S    
C14   C15   A    
C27   C31   T    
C5    H17   S    
C21   F4    S    
C24   C28   S    
C23   C31   S    
C8    C9    A    
C25   C28   S    
C1    O1    A    
