data_mof_unit_9679.cif
_audit_creation_date              2012-12-10T18:09:57-0500
_audit_creation_method            fapswitch 2.2
_symmetry_space_group_name_H-M    P1
_symmetry_Int_Tables_number       1
_space_group_crystal_system       triclinic
_cell_length_a                    10.636077
_cell_length_b                    12.680174
_cell_length_c                    13.118756
_cell_angle_alpha                 81.965086
_cell_angle_beta                  91.746469
_cell_angle_gamma                 102.457014
_cell_volume                      1710.67864878

loop_
_atom_site_label
_atom_site_type_symbol
_atom_type_description
_atom_site_fract_x
_atom_site_fract_y
_atom_site_fract_z
_atom_type_partial_charge
C1    C     C_R   0.471339 0.439353 0.690344 0.883818
C2    C     C_R   0.438943 0.452677 0.970773 0.076951
C3    C     C_R   0.420880 0.479189 0.864434 0.011845
C4    C     C_R   0.741782 0.500286 0.500468 0.830466
C5    C     C_R   0.458181 0.536971 0.032938 0.106370
C6    C     C_R   0.433370 0.640444 0.993651 0.169718
C7    C     C_R   0.394931 0.660006 0.891568 -0.243114
C8    C     C_R   0.389072 0.580553 0.827502 -0.158179
C9    C     C_R   0.503048 0.520870 0.133173 -0.252862
C10   C     C_R   0.477443 0.699417 0.161459 -0.205979
C11   C     C_R   0.431932 0.402092 0.798756 -0.185724
C12   C     C_3   0.121289 0.498047 0.500385 0.111266
C13   C     C_R   0.329249 0.088417 0.340361 -0.253427
C14   C     C_R   0.667420 0.801485 0.619043 0.010494
C15   C     C_R   0.722651 0.909434 0.627571 -0.236526
C16   C     C_R   0.513244 0.561040 0.308696 0.857445
C17   C     C_R   0.668058 0.991202 0.574294 -0.109507
C18   C     C_R   0.552589 0.964842 0.518123 0.040754
C19   C     C_R   0.510921 0.855012 0.501440 0.228037
C20   C     C_R   0.482289 0.043100 0.471929 -0.012474
C21   C     C_R   0.391949 0.012915 0.394002 0.128082
C22   C     C_R   0.362708 0.906527 0.370693 -0.286868
C23   C     C_3   0.091636 0.587746 0.415824 -0.429690
C24   C     C_R   0.418709 0.827960 0.426033 -0.217351
C25   C     C_R   0.493490 0.148473 0.501402 0.011494
C26   C     C_R   0.352144 0.194220 0.364486 0.111592
C27   C     C_R   0.258218 0.499172 0.499850 0.816204
C28   C     C_3   0.899098 0.386552 0.479041 -0.347945
C29   C     C_3   0.041629 0.385762 0.479031 -0.385621
C30   C     C_3   0.947566 0.588572 0.416678 -0.481678
C31   C     C_3   0.938293 0.522021 0.608343 0.280402
C32   C     C_3   0.878682 0.499354 0.501643 0.110028
C33   C     C_2   0.282932 0.271824 0.303573 0.357399
C34   C     C_3   0.082796 0.520557 0.607194 -0.352975
C35   C     C_2   0.553418 0.175521 0.600022 0.482865
C36   C     C_R   0.444677 0.721625 0.058057 -0.192368
C37   C     C_R   0.504273 0.597590 0.199157 -0.059347
C38   C     C_R   0.412779 0.290907 0.840303 0.462980
C39   C     C_R   0.412826 0.262217 0.947295 -0.235092
C40   C     C_R   0.432370 0.342340 0.011524 -0.201740
H1    H     H_    0.857636 0.369125 0.402609 0.176153
H2    H     H_    0.400056 0.177646 0.981153 0.149161
H3    H     H_    0.849702 0.319836 0.537998 0.194313
H4    H     H_    0.354400 0.597956 0.749951 0.174626
H5    H     H_    0.293487 0.883117 0.311119 0.152324
H6    H     H_    0.261790 0.064295 0.279825 0.189757
H7    H     H_    0.711255 0.737234 0.657485 0.139742
H8    H     H_    0.719798 0.074211 0.575327 0.128498
H9    H     H_    0.809222 0.929760 0.672697 0.156522
H10   H     H_    0.391808 0.747517 0.405561 0.207339
H11   H     H_    0.061158 0.319900 0.539032 0.195779
H12   H     H_    0.139580 0.600632 0.624635 0.136403
H13   H     H_    0.068061 0.367280 0.402973 0.180657
H14   H     H_    0.904922 0.573880 0.340017 0.186523
H15   H     H_    0.119332 0.572712 0.338818 0.176184
H16   H     H_    0.928966 0.604720 0.622997 0.085590
H17   H     H_    0.105658 0.457221 0.668415 0.194860
H18   H     H_    0.371008 0.138820 0.818007 0.349610
H19   H     H_    0.282030 0.349846 0.325220 0.141702
H20   H     H_    0.618015 0.252645 0.605116 0.114056
H21   H     H_    0.798568 0.466385 0.706986 0.323460
H22   H     H_    0.935317 0.670431 0.430504 0.188129
H23   H     H_    0.148049 0.669372 0.429208 0.188253
H24   H     H_    0.477740 0.759973 0.212103 0.160124
H25   H     H_    0.370894 0.737102 0.860857 0.156890
H26   H     H_    0.424021 0.800490 0.029394 0.144328
H27   H     H_    0.535297 0.447249 0.162284 0.153821
H28   H     H_    0.432958 0.314786 0.093125 0.181645
N1    N     N_R   0.433240 0.222190 0.444680 -0.179339
N2    N     N_R   0.566070 0.776970 0.554790 -0.134376
O1    O     O_R   0.468120 0.366740 0.627160 -0.561179
O2    O     O_2   0.222737 0.248285 0.226171 -0.606849
O3    O     O_2   0.531772 0.109563 0.677968 -0.561035
O4    O     O_3   0.876790 0.442949 0.687613 -0.767730
O5    O     O_R   0.510770 0.544830 0.662520 -0.632225
O6    O     O_R   0.663880 0.410950 0.482330 -0.652157
O7    O     O_R   0.706530 0.589040 0.517700 -0.632167
O8    O     O_R   0.489230 0.455170 0.337480 -0.645352
O9    O     O_R   0.531880 0.633260 0.372840 -0.624935
O10   O     O_R   0.293470 0.410960 0.482300 -0.648847
O11   O     O_R   0.336120 0.589050 0.517670 -0.649271
O12   O     O_3   0.389111 0.211793 0.775975 -0.714421
Zn1   Zn    Zn3+2 0.471520 0.381090 0.476390 0.931589
Zn2   Zn    Zn3+2 0.528480 0.618910 0.523610 0.912105

loop_
_geom_bond_atom_site_label_1
_geom_bond_atom_site_label_2
_ccdc_geom_bond_type
C12   C29   S    
C1    C11   S    
C17   H8    S    
C7    C8    A    
C30   H14   S    
C12   C23   S    
C1    O1    A    
C10   C37   A    
C28   C29   S    
H18   O12   S    
C5    C6    A    
C36   H26   S    
O5    Zn2   S    
C20   C25   A    
C28   H1    S    
C18   C19   A    
C33   O2    D    
O8    Zn1   S    
C34   H17   S    
C31   H16   S    
N2    Zn2   S    
C18   C20   A    
C16   C37   S    
C23   H23   S    
C33   H19   S    
C21   C22   A    
C38   O12   S    
C14   N2    A    
O10   Zn1   S    
O6    Zn1   S    
C39   H2    S    
O1    Zn1   S    
C24   H10   S    
C12   C27   S    
C1    O5    A    
C23   C30   S    
C27   O11   A    
C27   O10   A    
C39   C40   A    
C31   O4    S    
O7    Zn2   S    
C35   H20   S    
C11   C38   A    
C9    H27   S    
C5    C9    A    
O9    Zn2   S    
N1    Zn1   S    
C7    H25   S    
C26   C33   S    
C31   C32   S    
C28   C32   S    
C9    C37   A    
C17   C18   A    
C31   C34   S    
C13   C21   A    
C4    C32   S    
C6    C7    A    
C25   C35   S    
C3    C8    A    
C30   H22   S    
C22   C24   A    
C13   C26   A    
C2    C5    A    
C25   N1    A    
C12   C34   S    
O11   Zn2   S    
C29   H11   S    
C13   H6    S    
C15   C17   A    
C35   O3    D    
C10   H24   S    
C8    H4    S    
C23   H15   S    
C14   H7    S    
H21   O4    S    
C28   H3    S    
C34   H12   S    
C16   O9    A    
C2    C3    A    
C4    O7    A    
C30   C32   S    
C38   C39   A    
C29   H13   S    
C6    C36   A    
C19   C24   A    
C16   O8    A    
C15   H9    S    
C4    O6    A    
C3    C11   A    
C2    C40   A    
C22   H5    S    
C20   C21   A    
C40   H28   S    
C26   N1    A    
C14   C15   A    
C19   N2    A    
C10   C36   A    
