data_mof_unit_23796.cif
_audit_creation_date              2012-12-11T15:48:57-0500
_audit_creation_method            fapswitch 2.2
_symmetry_space_group_name_H-M    P1
_symmetry_Int_Tables_number       1
_space_group_crystal_system       triclinic
_cell_length_a                    10.961056
_cell_length_b                    10.96616
_cell_length_c                    18.800551
_cell_angle_alpha                 90.526152
_cell_angle_beta                  90.102738
_cell_angle_gamma                 60.160899
_cell_volume                      1960.15086887

loop_
_atom_site_label
_atom_site_type_symbol
_atom_type_description
_atom_site_fract_x
_atom_site_fract_y
_atom_site_fract_z
_atom_type_partial_charge
C1    C     C_R   0.238729 0.645940 0.610173 0.542158
C2    C     C_R   0.582188 0.134432 0.708573 -0.182228
C3    C     C_R   0.579074 0.138317 0.781778 -0.163697
C4    C     C_R   0.652767 0.621077 0.601616 0.542929
C5    C     C_3   0.931863 0.101116 0.786204 -0.278400
C6    C     C_3   0.927234 0.108698 0.705663 -0.284707
C7    C     C_R   0.674967 0.163299 0.671671 0.013817
C8    C     C_R   0.178910 0.668626 0.834513 0.051239
C9    C     C_R   0.155471 0.574901 0.793855 0.013941
C10   C     C_R   0.164028 0.572153 0.720124 -0.006666
C11   C     C_R   0.204237 0.768248 0.724911 -0.176831
C12   C     C_3   0.696164 0.532524 0.799408 -0.118999
C13   C     C_R   0.206224 0.764033 0.798744 -0.155330
C14   C     C_3   0.230888 0.418459 0.797479 -0.279097
C15   C     C_3   0.238905 0.415991 0.716956 -0.270444
C16   C     C_R   0.630201 0.225650 0.601747 0.538882
C17   C     C_R   0.191718 0.666638 0.684189 0.014261
C18   C     C_R   0.651865 0.658406 0.165154 0.019195
C19   C     C_R   0.747875 0.536543 0.201685 0.031655
C20   C     C_R   0.743680 0.530433 0.274335 0.037390
C21   C     C_R   0.530984 0.753530 0.277929 -0.162905
C22   C     C_R   0.534376 0.760600 0.203150 -0.171243
C23   C     C_3   0.696729 0.671430 0.813358 0.046078
C24   C     C_3   0.906101 0.455353 0.202338 -0.266471
C25   C     C_3   0.899395 0.451578 0.282379 -0.280901
C26   C     C_R   0.643363 0.642340 0.314474 0.018663
C27   C     C_R   0.634074 0.190598 0.168479 0.021712
C28   C     C_R   0.220571 0.649100 0.402057 0.555093
C29   C     C_R   0.516732 0.207936 0.206541 0.020604
C30   C     C_R   0.513680 0.219401 0.279306 0.033041
C31   C     C_R   0.729466 0.225968 0.277560 -0.154593
C32   C     C_R   0.731173 0.217882 0.203368 -0.154617
C33   C     C_3   0.448644 0.118749 0.208864 -0.270660
C34   C     C_3   0.668265 0.645975 0.677306 0.043043
C35   C     C_3   0.444832 0.132888 0.288940 -0.280279
C36   C     C_R   0.626496 0.213845 0.316326 0.021375
C37   C     C_R   0.117751 0.690622 0.188651 0.025014
C38   C     C_R   0.069939 0.810728 0.231556 0.045537
C39   C     C_R   0.082726 0.802189 0.303915 0.014564
C40   C     C_R   0.639269 0.619802 0.390527 0.547042
C41   C     C_R   0.173648 0.551475 0.294508 -0.164675
C42   C     C_R   0.160769 0.561190 0.220742 -0.179131
C43   C     C_3   0.102107 0.927744 0.227582 -0.263935
C44   C     C_3   0.111973 0.922074 0.307681 -0.273986
C45   C     C_3   0.802975 0.653590 0.690041 -0.255390
C46   C     C_R   0.147587 0.670568 0.335718 0.017675
C47   C     C_R   0.702310 0.099144 0.895106 0.554754
C48   C     C_R   0.722429 0.687193 0.888853 0.554634
C49   C     C_R   0.118797 0.705659 0.905874 0.554642
C50   C     C_R   0.672537 0.111726 0.102337 0.552737
C51   C     C_R   0.695005 0.688477 0.096877 0.550199
C52   C     C_R   0.612009 0.238210 0.392249 0.547593
C53   C     C_R   0.089143 0.712085 0.113872 0.550950
C54   C     C_3   0.557192 0.797938 0.786243 -0.235831
C55   C     C_3   0.541329 0.783246 0.706080 -0.240281
C56   C     C_3   0.676608 0.519704 0.719119 -0.209781
C57   C     C_3   0.820286 0.667108 0.770308 -0.235797
C58   C     C_1   0.588033 0.522201 0.841468 0.177315
C59   C     C_R   0.683014 0.148761 0.821683 0.036846
C60   C     C_R   0.776252 0.177092 0.784841 0.005294
C61   C     C_R   0.770520 0.186804 0.710856 0.012157
Cr1   Cr    Cr6+3 0.392960 0.397920 0.502240 1.004142
Cr2   Cr    Cr6+3 0.398340 0.708480 0.501250 1.000863
Cr3   Cr    Cr6+3 0.708670 0.393570 0.496460 1.005475
Cr4   Cr    Cr6+3 0.937650 0.938540 0.007610 1.011575
Cr5   Cr    Cr6+3 0.625330 0.937370 0.994520 1.007991
Cr6   Cr    Cr6+3 0.937940 0.625230 0.001190 1.009776
H1    H     H_    0.557599 0.897272 0.796141 0.136972
H2    H     H_    0.967185 0.005257 0.678603 0.145544
H3    H     H_    0.218692 0.848553 0.699964 0.130069
H4    H     H_    0.465450 0.805234 0.815246 0.127888
H5    H     H_    0.219103 0.842724 0.827716 0.129731
H6    H     H_    0.162762 0.378345 0.818291 0.129873
H7    H     H_    0.334430 0.376145 0.824135 0.166192
H8    H     H_    0.347038 0.373005 0.696251 0.182073
H9    H     H_    0.175003 0.375184 0.691024 0.123887
H10   H     H_    0.444637 0.837238 0.307012 0.120651
H11   H     H_    0.451907 0.850585 0.176113 0.116187
H12   H     H_    0.769348 0.421586 0.699787 0.137193
H13   H     H_    0.953552 0.518058 0.184165 0.177297
H14   H     H_    0.949588 0.349934 0.176853 0.123307
H15   H     H_    0.940865 0.343953 0.303390 0.130433
H16   H     H_    0.443181 0.780880 0.696587 0.144012
H17   H     H_    0.939090 0.515069 0.309816 0.145332
H18   H     H_    0.810812 0.236323 0.304484 0.129299
H19   H     H_    0.815764 0.218472 0.174178 0.119701
H20   H     H_    0.521382 0.010056 0.190514 0.168585
H21   H     H_    0.342575 0.170844 0.184141 0.129038
H22   H     H_    0.336464 0.194722 0.310741 0.132594
H23   H     H_    0.920022 0.574346 0.787076 0.141690
H24   H     H_    0.513695 0.032202 0.316478 0.139713
H25   H     H_    0.218530 0.448352 0.317923 0.142799
H26   H     H_    0.190249 0.467557 0.189033 0.123090
H27   H     H_    0.012934 0.026125 0.207663 0.141721
H28   H     H_    0.532868 0.875789 0.677756 0.115259
H29   H     H_    0.204372 0.895401 0.200940 0.138361
H30   H     H_    0.218625 0.893622 0.326192 0.162051
H31   H     H_    0.025489 0.016110 0.334403 0.128741
H32   H     H_    0.828066 0.763040 0.781277 0.126790
H33   H     H_    0.796607 0.745542 0.661991 0.120333
H34   H     H_    0.896556 0.557427 0.668909 0.132290
H35   H     H_    0.799570 0.442554 0.815428 0.113900
H36   H     H_    0.581380 0.510620 0.708022 0.130853
H37   H     H_    0.502910 0.120501 0.681086 0.128411
H38   H     H_    0.498193 0.123981 0.806556 0.135289
H39   H     H_    0.972623 0.994140 0.807199 0.168479
H40   H     H_    0.974158 0.164349 0.811506 0.126903
H41   H     H_    0.968951 0.174866 0.684160 0.130916
N1    N     N_1   0.504199 0.513274 0.874751 -0.318289
O1    O     O_R   0.507380 0.255700 0.581440 -0.534892
O2    O     O_R   0.837170 0.593410 0.915250 -0.529635
O3    O     O_R   0.065200 0.635530 0.931570 -0.501008
O4    O     O_R   0.280320 0.527350 0.578930 -0.503456
O5    O     O_R   0.068260 0.828890 0.091840 -0.518731
O6    O     O_R   0.798870 0.057410 0.079340 -0.506519
O7    O     O_R   0.584930 0.080350 0.076780 -0.522005
O8    O     O_R   0.626960 0.809650 0.067060 -0.505558
O9    O     O_R   0.816040 0.596610 0.076510 -0.524209
O10   O     O_R   0.045610 0.638500 0.081060 -0.513320
O11   O     O_3   0.833640 0.833710 0.001100 -0.253427
O12   O     O_R   0.524480 0.695810 0.424040 -0.508147
O13   O     O_R   0.260510 0.739590 0.584590 -0.534077
O14   O     O_R   0.532300 0.695080 0.573820 -0.509267
O15   O     O_R   0.744840 0.503500 0.576370 -0.529208
O16   O     O_R   0.699120 0.276560 0.571960 -0.500732
O17   O     O_R   0.498940 0.256500 0.419860 -0.519831
O18   O     O_R   0.272500 0.528080 0.429150 -0.510755
O19   O     O_R   0.252060 0.740380 0.423010 -0.525285
O20   O     O_R   0.736390 0.504290 0.414790 -0.519750
O21   O     O_R   0.691300 0.277290 0.422170 -0.511793
O22   O     O_3   0.499990 0.499990 0.499980 -0.249805
O23   O     O_R   0.089400 0.825690 0.930570 -0.531344
O24   O     O_R   0.818460 0.054440 0.929850 -0.502888
O25   O     O_R   0.606060 0.077150 0.915510 -0.534279
O26   O     O_R   0.646550 0.806680 0.917570 -0.510224

loop_
_geom_bond_atom_site_label_1
_geom_bond_atom_site_label_2
_ccdc_geom_bond_type
C6    H2    S    
C15   H8    S    
C21   C26   A    
C34   C56   S    
C8    C13   A    
C31   H18   S    
C27   C29   A    
C42   H26   S    
C41   C42   A    
C48   O26   A    
C2    C7    A    
C9    C14   S    
C51   O9    A    
C11   H3    S    
C16   O1    A    
C3    H38   S    
Cr6   O11   S    
C40   O12   A    
C12   C23   S    
C45   C57   S    
C29   C30   A    
C56   H12   S    
Cr5   O7    S    
C30   C35   S    
C14   H7    S    
C6    C61   S    
C33   H21   S    
C18   C19   A    
C10   C15   S    
C31   C36   A    
C5    H40   S    
C5    C6    S    
C54   H1    S    
C20   C25   S    
C10   C17   A    
C58   N1    T    
C29   C33   S    
C43   H27   S    
C4    O15   A    
C50   O6    A    
Cr4   O5    S    
C37   C42   A    
C1    O13   A    
C7    C61   A    
C51   O8    A    
Cr5   O25   S    
C44   H31   S    
C24   H13   S    
C54   H4    S    
C19   C20   A    
C8    C9    A    
Cr5   O8    S    
C25   H17   S    
C41   C46   A    
Cr3   O22   S    
Cr2   O22   S    
C16   O16   A    
Cr2   O19   S    
C36   C52   S    
C27   C50   S    
C12   C58   S    
C15   H9    S    
C34   C55   S    
Cr5   O11   S    
C21   C22   A    
C47   O24   A    
Cr4   O6    S    
C1    O4    A    
Cr2   O12   S    
C18   C51   S    
C5    H39   S    
C49   O23   A    
C4    C34   S    
C57   H23   S    
C14   H6    S    
C24   C25   S    
C22   H11   S    
Cr1   O4    S    
C55   H28   S    
Cr1   O17   S    
C52   O17   A    
Cr3   O15   S    
C4    O14   A    
C60   C61   A    
C43   C44   S    
C12   H35   S    
C37   C38   A    
C44   H30   S    
Cr6   O3    S    
C31   C32   A    
Cr1   O1    S    
C24   H14   S    
C2    H37   S    
C32   H19   S    
C48   O2    A    
C53   O10   A    
C43   H29   S    
C34   C45   S    
C12   C56   S    
C45   H34   S    
C39   C46   A    
C35   H22   S    
Cr6   O2    S    
C7    C16   S    
Cr3   O21   S    
C49   O3    A    
C47   O25   A    
C25   H15   S    
C55   H16   S    
Cr4   O23   S    
C53   O5    A    
C23   C54   S    
C9    C10   A    
C23   C57   S    
C3    C59   A    
C54   C55   S    
C11   C17   A    
C23   C48   S    
C5    C60   S    
C27   C32   A    
C18   C22   A    
Cr1   O22   S    
C56   H36   S    
C45   H33   S    
Cr2   O14   S    
C28   O18   A    
C39   C44   S    
C13   H5    S    
C40   O20   A    
C1    C17   S    
C30   C36   A    
C28   C46   S    
C52   O21   A    
C2    C3    A    
C33   H20   S    
C37   C53   S    
C38   C43   S    
Cr2   O13   S    
C11   C13   A    
C26   C40   S    
C38   C39   A    
C20   C26   A    
C33   C35   S    
Cr4   O11   S    
C19   C24   S    
C50   O7    A    
Cr6   O9    S    
C47   C59   S    
Cr5   O26   S    
Cr1   O18   S    
C59   C60   A    
C41   H25   S    
Cr3   O20   S    
Cr3   O16   S    
C21   H10   S    
C6    H41   S    
C14   C15   S    
Cr6   O10   S    
C8    C49   S    
Cr4   O24   S    
C28   O19   A    
C35   H24   S    
C57   H32   S    
