data_mof_unit_50850.cif
_audit_creation_date              2012-12-10T17:15:11-0500
_audit_creation_method            fapswitch 2.2
_symmetry_space_group_name_H-M    P1
_symmetry_Int_Tables_number       1
_space_group_crystal_system       triclinic
_cell_length_a                    10.176601
_cell_length_b                    10.822837
_cell_length_c                    12.829947
_cell_angle_alpha                 91.451032
_cell_angle_beta                  91.614665
_cell_angle_gamma                 96.240878
_cell_volume                      1403.58120559

loop_
_atom_site_label
_atom_site_type_symbol
_atom_type_description
_atom_site_fract_x
_atom_site_fract_y
_atom_site_fract_z
_atom_type_partial_charge
C1    C     C_R   0.443400 0.267396 0.492591 0.885706
C2    C     C_R   0.560528 0.351635 0.041566 -0.235285
C3    C     C_R   0.428096 0.628773 0.851648 -0.039471
C4    C     C_R   0.571964 0.371243 0.148352 -0.039542
C5    C     C_R   0.499354 0.421081 0.870081 -0.070781
C6    C     C_R   0.500584 0.578891 0.129925 -0.070762
C7    C     C_R   0.514668 0.442361 0.977753 0.099679
C8    C     C_R   0.485283 0.557610 0.022254 0.099663
C9    C     C_2   0.408536 0.134349 0.481001 -0.167305
C10   C     C_2   0.591449 0.865668 0.518914 -0.167313
C11   C     C_2   0.498743 0.063919 0.517189 -0.176968
C12   C     C_R   0.556599 0.732607 0.507394 0.885749
C13   C     C_2   0.501161 0.936062 0.482804 -0.176874
C14   C     C_1   0.476646 0.697522 0.177912 0.159768
C15   C     C_1   0.523251 0.302445 0.822091 0.159717
C16   C     C_1   0.610111 0.271639 0.211991 0.166774
C17   C     C_1   0.390141 0.728438 0.787996 0.166695
C18   C     C_R   0.715045 0.916550 0.577256 0.124655
C19   C     C_R   0.747549 0.869669 0.674758 -0.102935
C20   C     C_R   0.863389 0.918125 0.729367 -0.139404
C21   C     C_R   0.947381 0.013690 0.687322 -0.106844
C22   C     C_R   0.915945 0.060530 0.590385 -0.141939
C23   C     C_2   0.070818 0.490227 0.508926 -0.041140
C24   C     C_R   0.801282 0.011346 0.534903 -0.162770
C25   C     C_R   0.285070 0.083547 0.422441 0.124712
C26   C     C_R   0.198629 0.988788 0.464628 -0.162923
C27   C     C_R   0.084083 0.939703 0.408940 -0.141925
C28   C     C_R   0.052970 0.986606 0.311960 -0.106766
C29   C     C_R   0.137164 0.082139 0.270079 -0.139359
C30   C     C_R   0.252881 0.130498 0.324897 -0.102862
C31   C     C_1   0.892002 0.596583 0.414727 0.264070
C32   C     C_1   0.107990 0.403363 0.585230 0.264004
C33   C     C_2   0.929179 0.509749 0.491054 -0.041154
C34   C     C_R   0.474835 0.505160 0.697762 0.883080
C35   C     C_R   0.525163 0.494829 0.302238 0.883014
C36   C     C_R   0.538899 0.483600 0.191990 -0.128294
C37   C     C_R   0.461099 0.516391 0.808012 -0.128295
C38   C     C_R   0.439471 0.648356 0.958433 -0.235264
H1    H     H_    0.414995 0.736169 0.990747 0.160877
H2    H     H_    0.981252 0.133807 0.557304 0.157434
H3    H     H_    0.779322 0.047474 0.459138 0.160997
H4    H     H_    0.220336 0.952615 0.540419 0.160884
H5    H     H_    0.018623 0.866453 0.441891 0.157477
H6    H     H_    0.963498 0.949151 0.269443 0.145850
H7    H     H_    0.113000 0.118471 0.194936 0.138558
H8    H     H_    0.317832 0.203614 0.290894 0.126404
H9    H     H_    0.585038 0.263840 0.009247 0.160885
H10   H     H_    0.421218 0.894627 0.431099 0.199815
H11   H     H_    0.578622 0.105321 0.568976 0.199818
H12   H     H_    0.862731 0.387043 0.596696 0.165597
H13   H     H_    0.137273 0.612984 0.403326 0.165569
H14   H     H_    0.682750 0.796535 0.708891 0.126507
H15   H     H_    0.887808 0.881840 0.804478 0.138564
H16   H     H_    0.036949 0.051221 0.729678 0.145947
N1    N     N_2   0.162330 0.550370 0.457540 -0.216910
N2    N     N_2   0.837670 0.449630 0.542460 -0.216924
N3    N     N_1   0.457716 0.791698 0.216151 -0.209361
N4    N     N_1   0.542154 0.208262 0.783835 -0.209374
N5    N     N_1   0.640453 0.192008 0.262879 -0.204637
N6    N     N_1   0.359954 0.808125 0.737089 -0.204544
N7    N     N_1   0.862838 0.666018 0.353258 -0.235476
N8    N     N_1   0.137150 0.333902 0.646678 -0.235482
O1    O     O_R   0.567930 0.307680 0.508550 -0.606367
O2    O     O_R   0.432070 0.692320 0.491450 -0.606383
O3    O     O_R   0.351090 0.340020 0.481290 -0.609505
O4    O     O_R   0.648910 0.659980 0.518710 -0.609530
O5    O     O_R   0.590490 0.486480 0.665020 -0.611717
O6    O     O_R   0.409510 0.513520 0.334980 -0.611717
O7    O     O_R   0.373660 0.518820 0.637760 -0.600043
O8    O     O_R   0.626340 0.481180 0.362240 -0.600042
Zn1   Zn    Zn3+2 0.644780 0.478400 0.518200 0.967856
Zn2   Zn    Zn3+2 0.355220 0.521600 0.481800 0.967863

loop_
_geom_bond_atom_site_label_1
_geom_bond_atom_site_label_2
_ccdc_geom_bond_type
C34   O5    A    
C4    C16   S    
O7    Zn2   S    
C1    O3    A    
C31   C33   S    
C23   N1    D    
C29   C30   A    
C11   H11   S    
C5    C37   A    
C2    H9    S    
C6    C14   S    
O3    Zn2   S    
C11   C13   S    
C3    C38   A    
C31   N7    T    
C2    C4    A    
N1    Zn2   S    
O6    Zn2   S    
N2    Zn1   S    
C22   H2    S    
C23   C32   S    
C19   C20   A    
C4    C36   A    
C32   N8    T    
C7    C8    A    
H13   N1    S    
C21   C22   A    
C24   H3    S    
C9    C11   D    
C34   O7    A    
C26   H4    S    
C26   C27   A    
C21   H16   S    
C8    C38   A    
C35   O6    A    
C10   C18   S    
C18   C24   A    
C33   N2    D    
C10   C12   S    
C28   C29   A    
C6    C36   A    
C10   C13   D    
C3    C17   S    
O5    Zn1   S    
O2    Zn2   S    
C38   H1    S    
C12   O2    A    
C15   N4    T    
C22   C24   A    
C5    C15   S    
C17   N6    T    
C9    C25   S    
C34   C37   S    
C27   H5    S    
C25   C30   A    
O8    Zn1   S    
C1    C9    S    
C20   C21   A    
C3    C37   A    
C28   H6    S    
C18   C19   A    
C29   H7    S    
C27   C28   A    
C5    C7    A    
C14   N3    T    
C1    O1    A    
C6    C8    A    
C35   C36   S    
C2    C7    A    
C25   C26   A    
C16   N5    T    
C12   O4    A    
C19   H14   S    
C30   H8    S    
H12   N2    S    
O4    Zn1   S    
C35   O8    A    
O1    Zn1   S    
C20   H15   S    
C23   C33   S    
C13   H10   S    
