data_mof_unit_29503.cif
_audit_creation_date              2013-03-05T16:32:41-0500
_audit_creation_method            fapswitch 2.2
_symmetry_space_group_name_H-M    P1
_symmetry_Int_Tables_number       1
_space_group_crystal_system       triclinic
_cell_length_a                    9.538608
_cell_length_b                    10.790406
_cell_length_c                    17.390828
_cell_angle_alpha                 90.36365
_cell_angle_beta                  86.600006
_cell_angle_gamma                 90.879709
_cell_volume                      1786.57111901

loop_
_atom_site_label
_atom_site_type_symbol
_atom_site_description
_atom_site_fract_x
_atom_site_fract_y
_atom_site_fract_z
_atom_type_partial_charge
O1    O     O_R   0.381190 0.680360 0.500000 -0.584540
O2    O     O_R   0.618770 0.680320 0.499990 -0.569608
C1    C     C_R   0.501304 0.737372 0.500213 0.825230
O3    O     O_R   0.367430 0.500040 0.613600 -0.594209
O4    O     O_R   0.605020 0.500000 0.613590 -0.596598
C2    C     C_R   0.482667 0.502808 0.649751 0.777224
Cu1   Cu    Cu3+1 0.359330 0.500020 0.500000 0.984411
Cu2   Cu    Cu3+1 0.640670 0.499980 0.500000 0.959345
O5    O     O_R   0.381230 0.319680 0.500010 -0.590103
O6    O     O_R   0.618810 0.319640 0.500000 -0.587867
O7    O     O_R   0.394980 0.500000 0.386410 -0.531228
O8    O     O_R   0.632570 0.499960 0.386400 -0.587744
C3    C     C_R   0.499429 0.262349 0.499152 0.791253
C4    C     C_R   0.517102 0.502007 0.350002 0.840474
C5    C     C_R   0.476855 0.515370 0.733568 -0.025996
C6    C     C_R   0.602633 0.526143 0.771277 -0.206749
C7    C     C_R   0.599625 0.543066 0.850356 -0.146881
C8    C     C_R   0.470649 0.547905 0.893166 0.183013
C9    C     C_R   0.344834 0.540011 0.855660 -0.161328
C10   C     C_R   0.347712 0.523233 0.776144 -0.197557
C11   C     C_R   0.414383 0.506364 0.143032 -0.195690
C12   C     C_R   0.401234 0.507962 0.223055 0.367857
C13   C     C_R   0.656577 0.503078 0.225322 -0.206634
C14   C     C_R   0.667676 0.503480 0.145255 -0.149665
C15   C     C_R   0.546856 0.506983 0.103834 0.113830
C16   C     C_2   0.464423 0.558950 0.977162 -0.213073
C17   C     C_2   0.560656 0.506924 0.019476 -0.190853
C18   C     C_R   0.524123 0.505630 0.265343 -0.138456
H1    H     H_    0.703892 0.522806 0.739720 0.150765
H2    H     H_    0.752228 0.500232 0.255820 0.193870
H3    H     H_    0.651185 0.461171 0.992009 0.144871
H4    H     H_    0.244493 0.544602 0.888115 0.128594
H5    H     H_    0.319528 0.503214 0.111851 0.162829
H6    H     H_    0.249389 0.516771 0.748151 0.148099
H7    H     H_    0.374158 0.605134 0.004546 0.159429
H8    H     H_    0.698294 0.553565 0.877555 0.126416
H9    H     H_    0.770780 0.501838 0.115579 0.154169
C19   C     C_R   0.464959 0.933708 0.434943 0.010166
C20   C     C_R   0.507221 0.870271 0.498664 -0.082245
C21   C     C_R   0.569387 0.937049 0.557571 -0.198329
H10   H     H_    0.613422 0.889285 0.604949 0.136150
C22   C     C_R   0.566425 0.066715 0.557669 -0.176262
H11   H     H_    0.609460 0.117925 0.604844 0.140388
C23   C     C_R   0.500952 0.128898 0.499046 -0.082652
C24   C     C_R   0.462045 0.061234 0.434894 -0.121613
C25   C     C_3   0.331959 0.060489 0.389427 0.200144
C26   C     C_3   0.338445 0.918662 0.388892 0.142696
H12   H     H_    0.238629 0.092523 0.424191 0.089685
H13   H     H_    0.247883 0.871792 0.420462 0.085605
C27   C     C_R   0.931305 0.440537 0.442853 0.286129
N1    N     N_R   0.852130 0.499070 0.499500 -0.195747
C28   C     C_R   0.921116 0.568717 0.551864 -0.077207
H14   H     H_    0.861463 0.622409 0.594753 0.135297
C29   C     C_R   0.070092 0.568816 0.551821 -0.084297
H15   H     H_    0.122257 0.622660 0.594663 0.138757
N2    N     N_R   0.148040 0.499110 0.499500 -0.199505
C30   C     C_R   0.078785 0.440175 0.443111 0.366431
C31   C     C_3   0.082977 0.305165 0.425741 -0.497754
C32   C     C_3   0.924481 0.305860 0.423889 -0.510228
H16   H     H_    0.137200 0.285090 0.368856 0.264978
H17   H     H_    0.118754 0.251858 0.475157 0.195054
H18   H     H_    0.886588 0.288679 0.365479 0.215501
H19   H     H_    0.871450 0.249315 0.470550 0.222804
O9    O     O_3   0.339456 0.112506 0.313933 -0.526494
C33   C     C_3   0.475750 0.151169 0.286840 0.153305
H20   H     H_    0.553605 0.076358 0.292058 0.175901
H21   H     H_    0.508716 0.234835 0.319151 0.106800
C34   C     C_3   0.473552 0.182873 0.201893 -0.725090
H22   H     H_    0.389758 0.250441 0.192889 0.261919
H23   H     H_    0.576563 0.223383 0.181194 0.192591
H24   H     H_    0.452519 0.097740 0.167974 0.267982
N3    N     N_R   0.371043 0.865501 0.312282 0.186031
O10   O     O_R   0.277243 0.867758 0.260999 -0.274959
O11   O     O_R   0.488404 0.808140 0.296380 -0.373018
N4    N     N_R   0.262162 0.509873 0.259259 0.118809
O12   O     O_R   0.169157 0.428376 0.239032 -0.404385
O13   O     O_R   0.219682 0.608294 0.296814 -0.300233

loop_
_geom_bond_atom_site_label_1
_geom_bond_atom_site_label_2
_geom_bond_distance
_ccdc_geom_bond_type
C9    C10   1.392217 A    
C8    C16   1.462628 S    
Cu1   Cu2   2.683599 S    
C26   H13   1.112332 S    
C24   C25   1.510284 S    
C23   C24   1.394964 A    
Cu1   O7    1.984504 S    
C16   C17   1.341801 D    
C27   C32   1.489428 S    
C12   N4    1.434638 S    
O4    C2    1.293155 A    
O7    C4    1.292371 A    
C11   H5    1.082057 S    
C31   H16   1.110464 S    
C5    C6    1.403941 A    
N2    C30   1.363273 A    
C7    C8    1.401204 A    
C8    C9    1.400700 A    
O5    C3    1.293592 A    
C19   C24   1.376770 A    
C2    C5    1.460931 S    
C29   H15   1.081610 S    
C34   H22   1.108660 S    
C33   H21   1.111506 S    
C13   C14   1.390205 A    
C7    H8    1.082232 S    
C10   H6    1.083117 S    
C31   H17   1.110389 S    
C21   C22   1.399859 A    
C1    C20   1.434640 S    
C12   C18   1.420887 A    
C11   C12   1.389896 A    
C22   C23   1.405953 A    
Cu1   N2    2.015819 S    
O3    Cu1   1.981678 S    
C9    H4    1.083565 S    
C28   C29   1.420962 A    
C27   N1    1.363187 A    
C25   H12   1.104751 S    
C5    C10   1.402538 A    
C29   N2    1.369209 A    
C17   H3    1.085696 S    
N1    C28   1.369041 A    
C13   H2    1.083130 S    
C14   C15   1.395933 A    
O3    C2    1.298114 A    
C20   C21   1.403531 A    
C6    C7    1.384832 A    
C6    H1    1.083205 S    
C25   O9    1.428587 S    
O1    C1    1.292276 A    
N4    O12   1.301227 A    
Cu2   O8    1.981682 S    
C33   C34   1.519929 S    
C14   H9    1.083553 S    
C13   C18   1.406395 A    
N4    O13   1.300626 A    
Cu2   N1    2.016711 S    
C19   C26   1.493649 S    
N3    O11   1.301978 A    
C21   H10   1.083531 S    
O8    C4    1.303025 A    
C22   H11   1.083577 S    
C28   H14   1.081684 S    
Cu1   O5    1.960312 S    
C11   C15   1.399664 A    
C25   C26   1.532509 S    
C32   H18   1.111736 S    
O1    Cu1   1.953896 S    
C27   C30   1.407089 A    
Cu2   O6    1.953896 S    
O2    Cu2   1.960311 S    
N3    O10   1.300820 A    
O6    C3    1.288152 A    
O4    Cu2   1.984504 S    
C15   C17   1.465154 S    
C32   H19   1.111198 S    
O9    C33   1.413987 S    
O2    C1    1.286493 A    
C31   C32   1.514214 S    
C30   C31   1.486580 S    
C19   C20   1.389302 A    
C34   H24   1.110670 S    
C26   N3    1.465411 S    
C16   H7    1.085347 S    
C34   H23   1.110394 S    
C33   H20   1.112966 S    
C4    C18   1.470575 S    
C3    C23   1.440277 S    
