data_mof_unit_27220.cif
_audit_creation_date              2012-12-10T18:52:19-0500
_audit_creation_method            fapswitch 2.2
_symmetry_space_group_name_H-M    P1
_symmetry_Int_Tables_number       1
_space_group_crystal_system       triclinic
_cell_length_a                    15.729735
_cell_length_b                    10.71948
_cell_length_c                    9.841962
_cell_angle_alpha                 89.991229
_cell_angle_beta                  89.986262
_cell_angle_gamma                 90.143852
_cell_volume                      1659.49298875

loop_
_atom_site_label
_atom_site_type_symbol
_atom_type_description
_atom_site_fract_x
_atom_site_fract_y
_atom_site_fract_z
_atom_type_partial_charge
C1    C     C_R   0.499942 0.259868 0.499960 0.865958
C2    C     C_R   0.451730 0.416221 0.072008 -0.067451
C3    C     C_R   0.337845 0.499772 0.499992 0.906180
C4    C     C_R   0.662155 0.500228 0.500007 0.906180
C5    C     C_3   0.971523 0.386421 0.523501 0.647524
C6    C     C_3   0.028477 0.613579 0.476499 0.647524
C7    C     C_3   0.027534 0.421710 0.400905 -0.321217
C8    C     C_3   0.972465 0.578290 0.599095 -0.321218
C9    C     C_1   0.248935 0.498960 0.500058 -0.178407
C10   C     C_1   0.751065 0.501040 0.499942 -0.178407
C11   C     C_3   0.027687 0.460433 0.623347 -0.318500
C12   C     C_R   0.500058 0.740132 0.500040 0.865958
C13   C     C_3   0.972313 0.539567 0.376653 -0.318499
C14   C     C_3   0.082815 0.497943 0.500294 0.051193
C15   C     C_3   0.917185 0.502057 0.499706 0.051193
C16   C     C_1   0.173660 0.498301 0.500167 0.014159
C17   C     C_1   0.826340 0.501699 0.499833 0.014159
C18   C     C_R   0.486406 0.063838 0.377937 -0.192521
C19   C     C_R   0.513594 0.936162 0.622063 -0.192521
C20   C     C_3   0.998448 0.179140 0.564636 -0.322858
C21   C     C_3   0.001552 0.820860 0.435367 -0.322859
C22   C     C_R   0.486496 0.936061 0.377945 -0.190352
C23   C     C_R   0.513503 0.063938 0.622055 -0.190352
C24   C     C_R   0.500069 0.872580 0.500013 -0.010697
C25   C     C_R   0.499931 0.127420 0.499987 -0.010697
C26   C     C_R   0.548289 0.583810 0.071877 -0.069739
C27   C     C_R   0.451711 0.416190 0.928123 -0.069739
C28   C     C_R   0.548269 0.583779 0.927991 -0.067451
H1    H     H_    0.947664 0.573072 0.277501 0.161132
H2    H     H_    0.036703 0.168640 0.470318 0.155965
H3    H     H_    0.968122 0.087698 0.586026 0.191268
H4    H     H_    0.963300 0.831362 0.529687 0.155965
H5    H     H_    0.959744 0.798130 0.347629 0.162096
H6    H     H_    0.031877 0.912301 0.413973 0.191269
H7    H     H_    0.475355 0.112390 0.282995 0.153690
H8    H     H_    0.524645 0.887610 0.717005 0.153690
H9    H     H_    0.586876 0.650750 0.873428 0.123785
H10   H     H_    0.413124 0.349250 0.126572 0.123785
H11   H     H_    0.052336 0.426928 0.722499 0.161131
H12   H     H_    0.475526 0.887428 0.282999 0.158263
H13   H     H_    0.524474 0.112571 0.717001 0.158263
H14   H     H_    0.586908 0.650802 0.126331 0.126627
H15   H     H_    0.413092 0.349197 0.873669 0.126627
H16   H     H_    0.052080 0.357301 0.321869 0.159765
H17   H     H_    0.947920 0.642699 0.678131 0.159765
H18   H     H_    0.040253 0.201870 0.652378 0.162097
N1    N     N_R   0.499980 0.499970 0.857200 -0.079656
N2    N     N_R   0.500020 0.500030 0.142800 -0.079655
O1    O     O_R   0.499990 0.316750 0.614620 -0.630075
O2    O     O_3   0.065957 0.731123 0.451880 -0.598656
O3    O     O_R   0.500010 0.683250 0.385380 -0.630075
O4    O     O_R   0.500000 0.316780 0.385290 -0.629040
O5    O     O_R   0.500000 0.683220 0.614710 -0.629040
O6    O     O_R   0.376780 0.499970 0.614640 -0.612105
O7    O     O_R   0.623220 0.500030 0.385360 -0.612105
O8    O     O_R   0.376780 0.500000 0.385310 -0.611466
O9    O     O_R   0.623220 0.500000 0.614690 -0.611466
O10   O     O_3   0.934043 0.268877 0.548119 -0.598656
Zn1   Zn    Zn3+2 0.500000 0.499980 0.653120 0.955135
Zn2   Zn    Zn3+2 0.500000 0.500020 0.346880 0.955135

loop_
_geom_bond_atom_site_label_1
_geom_bond_atom_site_label_2
_ccdc_geom_bond_type
C4    O9    A    
C19   C23   A    
C1    C25   S    
C28   N1    A    
C5    C11   S    
C2    C27   A    
C3    C9    S    
C6    C14   S    
C18   C22   A    
C18   H7    S    
C2    H10   S    
C26   C28   A    
C12   O5    A    
O1    Zn1   S    
C26   N2    A    
C19   H8    S    
C22   H12   S    
C23   C25   A    
C19   C24   A    
O5    Zn1   S    
C20   H2    S    
C7    H16   S    
C6    O2    S    
C6    C13   S    
C11   H11   S    
C18   C25   A    
C5    O10   S    
C8    C11   S    
C28   H9    S    
C13   H1    S    
C21   O2    S    
C3    O6    A    
C9    C16   T    
N2    Zn2   S    
C8    C15   S    
C22   C24   A    
O6    Zn1   S    
C13   C15   S    
C4    O7    A    
C11   C14   S    
C14   C16   S    
C5    C15   S    
O9    Zn1   S    
C10   C17   T    
N1    Zn1   S    
C21   H4    S    
C27   H15   S    
C7    C13   S    
C12   O3    A    
C21   H5    S    
C26   H14   S    
C15   C17   S    
C3    O8    A    
C27   N1    A    
C5    C7    S    
C12   C24   S    
C8    H17   S    
C20   O10   S    
C6    C8    S    
O3    Zn2   S    
O4    Zn2   S    
C2    N2    A    
O7    Zn2   S    
C1    O4    A    
C1    O1    A    
C21   H6    S    
C7    C14   S    
C20   H18   S    
O8    Zn2   S    
C4    C10   S    
C20   H3    S    
C23   H13   S    
