data_mof_unit_44256.cif
_audit_creation_date              2013-03-05T15:54:52-0500
_audit_creation_method            fapswitch 2.2
_symmetry_space_group_name_H-M    P1
_symmetry_Int_Tables_number       1
_space_group_crystal_system       triclinic
_cell_length_a                    17.351797
_cell_length_b                    17.351878
_cell_length_c                    17.561849
_cell_angle_alpha                 89.999031
_cell_angle_beta                  89.999273
_cell_angle_gamma                 90.001626
_cell_volume                      5287.631512

loop_
_atom_site_label
_atom_site_type_symbol
_atom_site_description
_atom_site_fract_x
_atom_site_fract_y
_atom_site_fract_z
_atom_type_partial_charge
C1    C     C_R   0.396320 0.303869 0.896530 -0.055184
C2    C     C_R   0.696133 0.396326 0.896536 -0.055154
C3    C     C_R   0.603679 0.696132 0.896528 -0.054995
C4    C     C_R   0.303863 0.603692 0.896559 -0.054958
C5    C     C_R   0.396323 0.696132 0.103465 -0.055126
C6    C     C_R   0.696132 0.603680 0.103466 -0.055114
C7    C     C_R   0.603677 0.303867 0.103464 -0.055141
C8    C     C_R   0.303866 0.396318 0.103461 -0.055139
C9    C     C_R   0.913450 0.819736 0.366567 -0.123622
C10   C     C_R   0.180282 0.913436 0.366584 -0.123589
C11   C     C_R   0.086545 0.180260 0.366561 -0.123561
C12   C     C_R   0.819717 0.086565 0.366587 -0.123602
C13   C     C_R   0.913428 0.180291 0.633403 -0.123603
C14   C     C_R   0.180251 0.086538 0.633448 -0.123555
C15   C     C_R   0.086602 0.819679 0.633378 -0.123345
C16   C     C_R   0.819753 0.913471 0.633455 -0.123546
H1    H     H_    0.424290 0.248550 0.902414 0.077398
H2    H     H_    0.751453 0.424301 0.902418 0.077383
H3    H     H_    0.575711 0.751451 0.902424 0.077359
H4    H     H_    0.248542 0.575726 0.902463 0.077339
H5    H     H_    0.424297 0.751451 0.097579 0.077375
H6    H     H_    0.751452 0.575710 0.097580 0.077381
H7    H     H_    0.575703 0.248548 0.097580 0.077384
H8    H     H_    0.248547 0.424289 0.097572 0.077367
H9    H     H_    0.946339 0.768993 0.356574 0.126991
H10   H     H_    0.231033 0.946320 0.356602 0.127009
H11   H     H_    0.053654 0.231000 0.356565 0.126984
H12   H     H_    0.768967 0.053681 0.356606 0.127020
H13   H     H_    0.946309 0.231045 0.643378 0.127040
H14   H     H_    0.230985 0.053641 0.643454 0.126988
H15   H     H_    0.053742 0.768893 0.643322 0.126312
H16   H     H_    0.769011 0.946363 0.643448 0.126848
N1    N     N_R   0.425360 0.368540 0.922560 -0.044677
N2    N     N_R   0.631460 0.425360 0.922560 -0.044658
N3    N     N_R   0.574640 0.631460 0.922560 -0.044700
N4    N     N_R   0.368540 0.574640 0.922560 -0.044679
N5    N     N_R   0.425360 0.631460 0.077440 -0.044666
N6    N     N_R   0.631460 0.574640 0.077440 -0.044668
N7    N     N_R   0.574640 0.368540 0.077440 -0.044661
N8    N     N_R   0.368540 0.425360 0.077440 -0.044668
N9    N     N_R   0.925360 0.868540 0.422560 -0.046137
N10   N     N_R   0.131460 0.925360 0.422560 -0.046126
N11   N     N_R   0.074640 0.131460 0.422560 -0.046129
N12   N     N_R   0.868540 0.074640 0.422560 -0.046135
N13   N     N_R   0.925360 0.131460 0.577440 -0.046138
N14   N     N_R   0.131460 0.074640 0.577440 -0.046124
N15   N     N_R   0.074640 0.868540 0.577440 -0.046167
N16   N     N_R   0.868540 0.925360 0.577440 -0.046131
C17   C     C_3   0.869481 0.331364 0.719040 0.057194
C18   C     C_3   0.668711 0.869684 0.719225 0.057166
C19   C     C_3   0.130345 0.668685 0.719238 0.056935
C20   C     C_3   0.331313 0.130459 0.719105 0.057244
C21   C     C_3   0.869551 0.668679 0.280886 0.057219
C22   C     C_3   0.668652 0.130490 0.280928 0.057224
C23   C     C_3   0.130445 0.331315 0.280879 0.057231
C24   C     C_3   0.331343 0.869529 0.280906 0.057225
C25   C     C_3   0.376881 0.817970 0.228040 0.054096
C26   C     C_3   0.182014 0.376857 0.228023 0.054106
C27   C     C_3   0.623116 0.182044 0.228056 0.054099
C28   C     C_3   0.817984 0.623138 0.228029 0.054096
C29   C     C_3   0.376857 0.182033 0.771953 0.054128
C30   C     C_3   0.181881 0.623152 0.772131 0.054502
C31   C     C_3   0.623158 0.818103 0.772063 0.054118
C32   C     C_3   0.817932 0.376897 0.771919 0.054131
H17   H     H_    0.849345 0.328980 0.658870 0.146448
H18   H     H_    0.671039 0.849618 0.659028 0.146401
H19   H     H_    0.150417 0.670925 0.659040 0.146323
H20   H     H_    0.328929 0.150565 0.658925 0.146441
H21   H     H_    0.849443 0.671049 0.341066 0.146414
H22   H     H_    0.671029 0.150615 0.341101 0.146438
H23   H     H_    0.150553 0.328940 0.341058 0.146441
H24   H     H_    0.328974 0.849414 0.341084 0.146432
H25   H     H_    0.421948 0.848119 0.194168 0.134454
H26   H     H_    0.151872 0.421928 0.194152 0.134458
H27   H     H_    0.578045 0.151894 0.194193 0.134460
H28   H     H_    0.848128 0.578072 0.194156 0.134465
H29   H     H_    0.421934 0.151897 0.805819 0.134479
H30   H     H_    0.151690 0.578159 0.806066 0.134369
H31   H     H_    0.578120 0.848251 0.805975 0.134436
H32   H     H_    0.848084 0.421973 0.805773 0.134450
C33   C     C_R   0.394464 0.695427 0.893425 -0.027489
C34   C     C_R   0.304577 0.394461 0.893413 -0.027307
C35   C     C_R   0.605542 0.304578 0.893417 -0.027489
C36   C     C_R   0.695423 0.605543 0.893411 -0.027555
C37   C     C_R   0.394456 0.304575 0.106582 -0.027457
C38   C     C_R   0.304577 0.605539 0.106586 -0.027493
C39   C     C_R   0.605541 0.695423 0.106585 -0.027477
C40   C     C_R   0.695423 0.394460 0.106584 -0.027463
C41   C     C_R   0.908244 0.179927 0.365586 -0.092880
C42   C     C_R   0.820091 0.908261 0.365567 -0.092809
C43   C     C_R   0.091752 0.820077 0.365583 -0.092910
C44   C     C_R   0.179906 0.091737 0.365561 -0.092798
C45   C     C_R   0.908290 0.820121 0.634472 -0.092641
C46   C     C_R   0.820066 0.091765 0.634405 -0.092902
C47   C     C_R   0.091730 0.179901 0.634443 -0.092757
C48   C     C_R   0.179950 0.908227 0.634383 -0.093014
H33   H     H_    0.422140 0.751252 0.893366 0.094665
H34   H     H_    0.248748 0.422128 0.893356 0.094713
H35   H     H_    0.577874 0.248749 0.893355 0.094654
H36   H     H_    0.751253 0.577879 0.893359 0.094633
H37   H     H_    0.422123 0.248747 0.106639 0.094631
H38   H     H_    0.248748 0.577871 0.106647 0.094646
H39   H     H_    0.577874 0.751251 0.106644 0.094638
H40   H     H_    0.751252 0.422128 0.106645 0.094646
H41   H     H_    0.934536 0.234882 0.354635 0.147383
H42   H     H_    0.765143 0.934561 0.354604 0.147323
H43   H     H_    0.065458 0.765124 0.354631 0.147372
H44   H     H_    0.234854 0.065439 0.354596 0.147339
H45   H     H_    0.934615 0.765190 0.645467 0.146716
H46   H     H_    0.765106 0.065479 0.645351 0.147381
H47   H     H_    0.065430 0.234847 0.645409 0.147326
H48   H     H_    0.234907 0.934523 0.645318 0.147380
N17   N     N_R   0.425340 0.631500 0.922560 -0.048887
N18   N     N_R   0.368500 0.425340 0.922560 -0.048901
N19   N     N_R   0.574660 0.368500 0.922560 -0.048869
N20   N     N_R   0.631500 0.574660 0.922560 -0.048878
N21   N     N_R   0.425340 0.368500 0.077440 -0.048870
N22   N     N_R   0.368500 0.574660 0.077440 -0.048875
N23   N     N_R   0.574660 0.631500 0.077440 -0.048875
N24   N     N_R   0.631500 0.425340 0.077440 -0.048871
N25   N     N_R   0.925340 0.131500 0.422560 -0.049345
N26   N     N_R   0.868500 0.925340 0.422560 -0.049340
N27   N     N_R   0.074660 0.868500 0.422560 -0.049353
N28   N     N_R   0.131500 0.074660 0.422560 -0.049344
N29   N     N_R   0.925340 0.868500 0.577440 -0.049353
N30   N     N_R   0.868500 0.074660 0.577440 -0.049350
N31   N     N_R   0.074660 0.131500 0.577440 -0.049347
N32   N     N_R   0.131500 0.925340 0.577440 -0.049352
Ni1   Ni    Ni4+2 0.500000 0.369720 0.000000 0.237697
Ni2   Ni    Ni4+2 0.630280 0.500000 0.000000 0.237697
Ni3   Ni    Ni4+2 0.500000 0.630280 0.000000 0.237685
Ni4   Ni    Ni4+2 0.369720 0.500000 0.000000 0.237694
Ni5   Ni    Ni4+2 0.000000 0.869720 0.500000 0.263640
Ni6   Ni    Ni4+2 0.130280 0.000000 0.500000 0.263828
Ni7   Ni    Ni4+2 0.000000 0.130280 0.500000 0.263842
Ni8   Ni    Ni4+2 0.869720 0.000000 0.500000 0.263792
C49   C     C_R   0.321219 0.318251 0.876931 0.061916
C50   C     C_R   0.681754 0.321226 0.876939 0.061948
C51   C     C_R   0.678781 0.681754 0.876927 0.062011
C52   C     C_R   0.318248 0.678794 0.876962 0.061908
C53   C     C_R   0.321223 0.681750 0.123065 0.061955
C54   C     C_R   0.681751 0.678780 0.123065 0.061950
C55   C     C_R   0.678777 0.318248 0.123062 0.061938
C56   C     C_R   0.318244 0.321217 0.123058 0.061946
C57   C     C_R   0.850778 0.845559 0.327035 0.051317
C58   C     C_R   0.154463 0.850759 0.327058 0.051341
C59   C     C_R   0.149215 0.154436 0.327026 0.051270
C60   C     C_R   0.845534 0.149245 0.327063 0.051311
C61   C     C_R   0.850744 0.154479 0.672924 0.051337
C62   C     C_R   0.154426 0.149207 0.672981 0.051246
C63   C     C_R   0.149289 0.845502 0.672898 0.051503
C64   C     C_R   0.845591 0.850820 0.673011 0.051389
C65   C     C_R   0.805560 0.302686 0.814811 -0.032616
C66   C     C_R   0.697378 0.805623 0.814908 -0.032592
C67   C     C_R   0.194397 0.697396 0.814922 -0.032648
C68   C     C_R   0.302651 0.194428 0.814844 -0.032641
C69   C     C_R   0.805578 0.697349 0.185150 -0.032602
C70   C     C_R   0.697329 0.194433 0.185171 -0.032610
C71   C     C_R   0.194415 0.302648 0.185140 -0.032623
C72   C     C_R   0.302667 0.805570 0.185163 -0.032604
C73   C     C_R   0.260770 0.850108 0.234447 0.008014
C74   C     C_R   0.149868 0.260745 0.234415 0.008012
C75   C     C_R   0.739224 0.149898 0.234460 0.008009
C76   C     C_R   0.850123 0.739251 0.234425 0.008037
C77   C     C_R   0.260746 0.149875 0.765577 0.007986
C78   C     C_R   0.149891 0.739283 0.765603 0.008568
C79   C     C_R   0.739290 0.850183 0.765651 0.008249
C80   C     C_R   0.850090 0.260794 0.765516 0.007994
C81   C     C_R   0.739885 0.270447 0.847886 0.064966
C82   C     C_R   0.729584 0.739899 0.847916 0.064860
C83   C     C_R   0.260126 0.729598 0.847926 0.064859
C84   C     C_R   0.270426 0.260119 0.847894 0.065055
C85   C     C_R   0.739884 0.729573 0.152102 0.065030
C86   C     C_R   0.729562 0.260117 0.152109 0.065024
C87   C     C_R   0.260108 0.270424 0.152091 0.065017
C88   C     C_R   0.270436 0.739881 0.152109 0.065009
C89   C     C_R   0.187412 0.824910 0.256388 0.041557
C90   C     C_R   0.175060 0.187385 0.256352 0.041582
C91   C     C_R   0.812584 0.175094 0.256394 0.041576
C92   C     C_R   0.824929 0.812609 0.256364 0.041577
C93   C     C_R   0.187380 0.175059 0.743649 0.041609
C94   C     C_R   0.175143 0.812592 0.743583 0.041430
C95   C     C_R   0.812645 0.824986 0.743696 0.041360
C96   C     C_R   0.824897 0.187432 0.743590 0.041508
C97   C     C_R   0.149034 0.770052 0.211384 -0.107145
C98   C     C_R   0.229925 0.149014 0.211351 -0.107179
C99   C     C_R   0.850963 0.229949 0.211384 -0.107157
C100  C     C_R   0.770062 0.850980 0.211365 -0.107190
C101  C     C_R   0.149012 0.229928 0.788648 -0.107184
C102  C     C_R   0.230034 0.850971 0.788550 -0.107160
C103  C     C_R   0.851006 0.770110 0.788689 -0.107201
C104  C     C_R   0.770055 0.149049 0.788610 -0.107070
C105  C     C_R   0.727271 0.190875 0.841506 -0.124581
C106  C     C_R   0.809158 0.727279 0.841538 -0.124464
C107  C     C_R   0.272803 0.809156 0.841469 -0.124506
C108  C     C_R   0.190853 0.272735 0.841517 -0.124579
C109  C     C_R   0.727262 0.809143 0.158487 -0.124617
C110  C     C_R   0.809133 0.272738 0.158494 -0.124635
C111  C     C_R   0.272727 0.190852 0.158473 -0.124638
C112  C     C_R   0.190865 0.727259 0.158498 -0.124604
H49   H     H_    0.089663 0.754776 0.222365 0.170108
H50   H     H_    0.245202 0.089644 0.222330 0.170082
H51   H     H_    0.910334 0.245225 0.222363 0.170100
H52   H     H_    0.754784 0.910350 0.222344 0.170078
H53   H     H_    0.089639 0.245201 0.777675 0.170045
H54   H     H_    0.245352 0.910321 0.777521 0.170152
H55   H     H_    0.910379 0.754854 0.777720 0.170413
H56   H     H_    0.754788 0.089676 0.777638 0.170238
H57   H     H_    0.679547 0.163057 0.870104 0.142502
H58   H     H_    0.836962 0.679526 0.870100 0.142547
H59   H     H_    0.320564 0.836961 0.870017 0.142457
H60   H     H_    0.163045 0.320474 0.870097 0.142392
H61   H     H_    0.679523 0.836952 0.129908 0.142414
H62   H     H_    0.836948 0.320471 0.129906 0.142429
H63   H     H_    0.320466 0.163044 0.129893 0.142422
H64   H     H_    0.163051 0.679525 0.129914 0.142441
N33   N     N_R   0.950477 0.354079 0.726396 0.237818
O1    O     O_R   0.984337 0.354822 0.792568 -0.415011
O2    O     O_R   0.987827 0.378516 0.666900 -0.337044
N34   N     N_R   0.646065 0.950690 0.726702 0.237677
O3    O     O_R   0.645419 0.984472 0.792921 -0.415277
O4    O     O_R   0.621497 0.988099 0.667279 -0.337261
N35   N     N_R   0.049331 0.646094 0.726742 0.237262
O5    O     O_R   0.015482 0.645854 0.792934 -0.415799
O6    O     O_R   0.012187 0.620538 0.667528 -0.335759
N36   N     N_R   0.354022 0.049467 0.726504 0.237757
O7    O     O_R   0.354810 0.015655 0.792702 -0.415076
O8    O     O_R   0.378443 0.012082 0.667024 -0.337366
N37   N     N_R   0.950547 0.645986 0.273484 0.237767
O9    O     O_R   0.984365 0.645235 0.207289 -0.415060
O10   O     O_R   0.987933 0.621550 0.332958 -0.337385
N38   N     N_R   0.645946 0.049494 0.273553 0.237779
O11   O     O_R   0.645206 0.015651 0.207373 -0.415046
O12   O     O_R   0.621494 0.012134 0.333037 -0.337252
N39   N     N_R   0.049450 0.354014 0.273480 0.237760
O13   O     O_R   0.015632 0.354769 0.207286 -0.415085
O14   O     O_R   0.012070 0.378460 0.332953 -0.337307
N40   N     N_R   0.354041 0.950526 0.273512 0.237774
O15   O     O_R   0.354780 0.984355 0.207324 -0.415070
O16   O     O_R   0.378488 0.987902 0.332987 -0.337261
N41   N     N_R   0.405429 0.748787 0.266867 0.259096
O17   O     O_R   0.359174 0.704652 0.305736 -0.307460
O18   O     O_R   0.478425 0.732008 0.263941 -0.314335
N42   N     N_R   0.251194 0.405400 0.266860 0.259098
O19   O     O_R   0.295321 0.359142 0.305729 -0.307454
O20   O     O_R   0.267978 0.478396 0.263943 -0.314321
N43   N     N_R   0.594576 0.251235 0.266873 0.259096
O21   O     O_R   0.640836 0.295371 0.305731 -0.307460
O22   O     O_R   0.521581 0.268019 0.263949 -0.314314
N44   N     N_R   0.748806 0.594588 0.266867 0.259093
O23   O     O_R   0.704677 0.640841 0.305740 -0.307464
O24   O     O_R   0.732025 0.521592 0.263945 -0.314324
N45   N     N_R   0.405390 0.251215 0.733110 0.259099
O25   O     O_R   0.359124 0.295334 0.694240 -0.307431
O26   O     O_R   0.478383 0.268011 0.736026 -0.314281
N46   N     N_R   0.251005 0.594475 0.733291 0.259061
O27   O     O_R   0.295184 0.640636 0.694361 -0.307465
O28   O     O_R   0.267674 0.521456 0.736252 -0.314509
N47   N     N_R   0.594554 0.748968 0.733186 0.259091
O29   O     O_R   0.640768 0.704842 0.694262 -0.307490
O30   O     O_R   0.521547 0.732232 0.736115 -0.314458
N48   N     N_R   0.748730 0.405427 0.733113 0.259099
O31   O     O_R   0.704591 0.359160 0.694266 -0.307460
O32   O     O_R   0.731934 0.478418 0.736041 -0.314359

loop_
_geom_bond_atom_site_label_1
_geom_bond_atom_site_label_2
_geom_bond_distance
_ccdc_geom_bond_type
N12   Ni8   1.878118 S    
C33   C52   1.384137 A    
C4    N4    1.312299 A    
C62   C93   1.438215 S    
C108  H60   1.082105 S    
C5    N5    1.312275 A    
C60   C91   1.438172 S    
C2    H2    1.080589 S    
N39   O14   1.300586 A    
C100  H52   1.081081 S    
N35   O5    1.302402 A    
C78   C94   1.399850 A    
C15   N15   1.314129 A    
C13   H13   1.063848 S    
C21   H21   1.113730 S    
C16   N16   1.314111 A    
N34   O4    1.300826 A    
C37   H37   1.081164 S    
N15   N32   1.394545 A    
C14   N14   1.314102 A    
C47   N31   1.339871 A    
C31   H31   1.113139 S    
C30   C67   1.507185 S    
C46   C61   1.387519 A    
C30   N46   1.466795 S    
C43   N27   1.339854 A    
C48   H48   1.074427 S    
C66   C82   1.396046 A    
N1    N18   1.394583 A    
C9    C57   1.365784 A    
C17   H17   1.113723 S    
N27   Ni5   1.878365 S    
C111  H63   1.082105 S    
N35   O6    1.301327 A    
N6    Ni2   1.878149 S    
C24   N40   1.465341 S    
C14   H14   1.063830 S    
C34   C49   1.384160 A    
C31   N47   1.466817 S    
C26   C71   1.507181 S    
N4    Ni4   1.878118 S    
C69   C85   1.396027 A    
N45   O25   1.302518 A    
C27   C70   1.507185 S    
C32   N48   1.466769 S    
C91   C99   1.405065 A    
C67   C78   1.369249 A    
N44   O24   1.300663 A    
N7    N24   1.394543 A    
C6    H6    1.080584 S    
C99   H51   1.081079 S    
N12   N25   1.394545 A    
C23   C74   1.509607 S    
C89   C97   1.405068 A    
N42   O19   1.302519 A    
C48   N32   1.339782 A    
C51   C82   1.433347 S    
N41   O17   1.302520 A    
C12   N12   1.314074 A    
C22   N38   1.465332 S    
C49   C84   1.433282 S    
C25   N41   1.466777 S    
C92   C100  1.405074 A    
C98   H50   1.081083 S    
C8    H8    1.080584 S    
N16   N29   1.394583 A    
C32   H32   1.113097 S    
C93   C101  1.405078 A    
C102  H54   1.081070 S    
C79   C95   1.399980 A    
N5    N22   1.394543 A    
C27   H27   1.113102 S    
C36   C51   1.384190 A    
C29   H29   1.113103 S    
C80   C96   1.399932 A    
N46   O28   1.300666 A    
C95   C103  1.405045 A    
C72   C88   1.396032 A    
C53   C88   1.433262 S    
N23   Ni3   1.878388 S    
N39   O13   1.302266 A    
C96   C104  1.405052 A    
C3    H3    1.080578 S    
C3    N3    1.312301 A    
C22   C75   1.509584 S    
C40   N24   1.333937 A    
N21   Ni1   1.878365 S    
C40   C55   1.384162 A    
C76   C92   1.399960 A    
C61   C96   1.438151 S    
C10   H10   1.063845 S    
C46   N30   1.339855 A    
N8    N21   1.394583 A    
N8    Ni4   1.878118 S    
N30   Ni8   1.878396 S    
C36   N20   1.333960 A    
C17   C32   1.512202 S    
C71   C87   1.396028 A    
C39   C54   1.384164 A    
N15   Ni5   1.878141 S    
C50   C81   1.433237 S    
C28   N44   1.466774 S    
C18   C31   1.512222 S    
C42   N26   1.339865 A    
C19   C30   1.512219 S    
C88   C112  1.402456 A    
C41   N25   1.339855 A    
N4    N17   1.394545 A    
C37   C56   1.384161 A    
C7    C55   1.370719 A    
N34   O3    1.302381 A    
C40   H40   1.081163 S    
C21   C28   1.512201 S    
C70   C86   1.396034 A    
N10   N27   1.394543 A    
C45   C64   1.387610 A    
C54   C85   1.433279 S    
C45   N29   1.339910 A    
C22   C27   1.512200 S    
N43   O22   1.300664 A    
C30   H30   1.113125 S    
N40   O16   1.300592 A    
C11   N11   1.314086 A    
N13   Ni7   1.878119 S    
C86   C110  1.402454 A    
C34   H34   1.081164 S    
C99   C110  1.393150 A    
C9    H9    1.063836 S    
C36   H36   1.081161 S    
C35   N19   1.333940 A    
N14   N31   1.394584 A    
C28   C69   1.507176 S    
C34   N18   1.333937 A    
C17   C80   1.509575 S    
C83   C107  1.402478 A    
C25   H25   1.113106 S    
C101  H53   1.081084 S    
C106  H58   1.082108 S    
N45   O26   1.300663 A    
C81   C105  1.402444 A    
N7    Ni1   1.878141 S    
C24   H24   1.113729 S    
N2    N19   1.394543 A    
C48   C63   1.387484 A    
C85   C109  1.402462 A    
C32   C65   1.507186 S    
C68   C84   1.396020 A    
N5    Ni3   1.878119 S    
C58   C89   1.438184 S    
C17   N33   1.465335 S    
N41   O18   1.300668 A    
N20   Ni2   1.878364 S    
C2    C50   1.370706 A    
N9    N26   1.394583 A    
C37   N21   1.333941 A    
C39   N23   1.333937 A    
N37   O9    1.302265 A    
N11   Ni7   1.878117 S    
N32   Ni6   1.878366 S    
C20   C77   1.509614 S    
C4    C52   1.370750 A    
C33   N17   1.333909 A    
C107  H59   1.082107 S    
C57   C92   1.438210 S    
C105  H57   1.082103 S    
C22   H22   1.113722 S    
C11   H11   1.063832 S    
N13   N30   1.394543 A    
N26   Ni8   1.878397 S    
N46   O27   1.302533 A    
C14   C62   1.365784 A    
N38   O12   1.300583 A    
C71   C74   1.369289 A    
C5    H5    1.080585 S    
N3    N20   1.394584 A    
C8    C56   1.370731 A    
C47   C62   1.387535 A    
C19   H19   1.113746 S    
C15   C63   1.365890 A    
N25   Ni7   1.878389 S    
C64   C95   1.438298 S    
C26   N42   1.466778 S    
C10   N10   1.314087 A    
C18   H18   1.113782 S    
C69   C76   1.369287 A    
C87   C111  1.402462 A    
C102  C107  1.393164 A    
C10   C58   1.365779 A    
C39   H39   1.081162 S    
N9    Ni5   1.878142 S    
C70   C75   1.369279 A    
C20   N36   1.465345 S    
N1    Ni1   1.878142 S    
C25   C72   1.507185 S    
C12   H12   1.063845 S    
C104  H56   1.081058 S    
C52   C83   1.433285 S    
C28   H28   1.113101 S    
C38   N22   1.333941 A    
C65   C80   1.369272 A    
C75   C91   1.399945 A    
N24   Ni2   1.878366 S    
C66   C79   1.369299 A    
C84   C108  1.402462 A    
C16   H16   1.063849 S    
C24   C25   1.512206 S    
N6    N23   1.394583 A    
C41   H41   1.074429 S    
N47   O29   1.302558 A    
C110  H62   1.082108 S    
C29   C68   1.507168 S    
N3    Ni3   1.878117 S    
C1    C49   1.370745 A    
C26   H26   1.113107 S    
C63   C94   1.438177 S    
C82   C106  1.402480 A    
N19   Ni1   1.878365 S    
N29   Ni5   1.878365 S    
N42   O20   1.300667 A    
N40   O15   1.302257 A    
C29   N45   1.466774 S    
N17   Ni3   1.878389 S    
C103  H55   1.080999 S    
N18   Ni4   1.878397 S    
N16   Ni8   1.878118 S    
C5    C53   1.370722 A    
C31   C66   1.507205 S    
C23   N39   1.465340 S    
N47   O30   1.300682 A    
C20   H20   1.113731 S    
N48   O32   1.300658 A    
N43   O21   1.302518 A    
C16   C64   1.365792 A    
C21   C76   1.509602 S    
C15   H15   1.064012 S    
N48   O31   1.302512 A    
N14   Ni6   1.878149 S    
C4    H4    1.080576 S    
C9    N9    1.314090 A    
C42   C57   1.387534 A    
C8    N8    1.312283 A    
N36   O8    1.300598 A    
N28   Ni6   1.878364 S    
C20   C29   1.512199 S    
C41   C60   1.387519 A    
C104  C105  1.393141 A    
C12   C60   1.365767 A    
C44   N28   1.339868 A    
C45   H45   1.074462 S    
N44   O23   1.302519 A    
C103  C106  1.393191 A    
C77   C93   1.399967 A    
N37   O10   1.300598 A    
C47   H47   1.074424 S    
C72   C73   1.369280 A    
C13   N13   1.314060 A    
C101  C108  1.393168 A    
C2    N2    1.312268 A    
N31   Ni7   1.878388 S    
C33   H33   1.081161 S    
C100  C109  1.393161 A    
C7    H7    1.080587 S    
C24   C73   1.509591 S    
N33   O1    1.302246 A    
C18   N34   1.465405 S    
N38   O11   1.302251 A    
C112  H64   1.082103 S    
C46   H46   1.074431 S    
N10   Ni6   1.878151 S    
C11   C59   1.365778 A    
C56   C87   1.433277 S    
C35   C50   1.384165 A    
C97   C112  1.393154 A    
N33   O2    1.300583 A    
C98   C111  1.393162 A    
C73   C89   1.399945 A    
C68   C77   1.369290 A    
C74   C90   1.399962 A    
C6    C54   1.370738 A    
N22   Ni4   1.878396 S    
C1    N1    1.312290 A    
C42   H42   1.074423 S    
C13   C61   1.365752 A    
C90   C98   1.405074 A    
C67   C83   1.396032 A    
C109  H61   1.082104 S    
C3    C51   1.370749 A    
C1    H1    1.080585 S    
N2    Ni2   1.878151 S    
C59   C90   1.438207 S    
N36   O7    1.302267 A    
C23   C26   1.512193 S    
C65   C81   1.396036 A    
C18   C79   1.509663 S    
C7    N7    1.312276 A    
C97   H49   1.081077 S    
C19   C78   1.509544 S    
C35   H35   1.081163 S    
C94   C102  1.405096 A    
C55   C86   1.433255 S    
C6    N6    1.312286 A    
C44   H44   1.074423 S    
C19   N35   1.465302 S    
N11   N28   1.394584 A    
C43   C58   1.387518 A    
C23   H23   1.113729 S    
C38   C53   1.384166 A    
C21   N37   1.465344 S    
C27   N43   1.466772 S    
C44   C59   1.387534 A    
C43   H43   1.074427 S    
C38   H38   1.081164 S    
