data_mof_unit_40360.cif
_audit_creation_date              2012-12-11T14:08:48-0500
_audit_creation_method            fapswitch 2.2
_symmetry_space_group_name_H-M    P1
_symmetry_Int_Tables_number       1
_space_group_crystal_system       triclinic
_cell_length_a                    28.237952
_cell_length_b                    7.187841
_cell_length_c                    17.209592
_cell_angle_alpha                 90.027306
_cell_angle_beta                  101.927144
_cell_angle_gamma                 89.982668
_cell_volume                      3417.61850047

loop_
_atom_site_label
_atom_site_type_symbol
_atom_type_description
_atom_site_fract_x
_atom_site_fract_y
_atom_site_fract_z
_atom_type_partial_charge
O1    O     O_R   0.000700 0.436510 0.857920 -0.538066
O2    O     O_R   0.999300 0.563490 0.142080 -0.538065
O3    O     O_R   0.999300 0.936510 0.642080 -0.537114
O4    O     O_R   0.000700 0.063490 0.357920 -0.537101
O5    O     O_R   0.930080 0.766380 0.721890 -0.504924
O6    O     O_R   0.069920 0.233620 0.278110 -0.504896
O7    O     O_R   0.069920 0.266380 0.778110 -0.508951
O8    O     O_R   0.930080 0.733620 0.221890 -0.508955
C1    C     C_R   0.910471 0.597787 0.709319 0.724379
C2    C     C_R   0.089530 0.402211 0.290693 0.724364
C3    C     C_R   0.089415 0.097696 0.790439 0.729475
C4    C     C_R   0.910586 0.902302 0.209549 0.729480
O9    O     O_R   0.996180 0.766230 0.862310 -0.546056
O10   O     O_R   0.003820 0.233770 0.137690 -0.546077
O11   O     O_R   0.003820 0.266230 0.637690 -0.542848
O12   O     O_R   0.996180 0.733770 0.362310 -0.542848
O13   O     O_R   0.065870 0.936460 0.783500 -0.547063
O14   O     O_R   0.934130 0.063540 0.216500 -0.547064
O15   O     O_R   0.934130 0.436460 0.716500 -0.548013
O16   O     O_R   0.065870 0.563540 0.283500 -0.548013
C5    C     C_R   0.998486 0.596459 0.894506 0.750149
C6    C     C_R   0.001513 0.403541 0.105494 0.750117
C7    C     C_R   0.001515 0.096420 0.605506 0.759845
C8    C     C_R   0.998485 0.903580 0.394494 0.759901
O17   O     O_3   0.022790 0.603020 0.723980 -0.372630
O18   O     O_3   0.977210 0.396980 0.276020 -0.372633
O19   O     O_3   0.977210 0.103020 0.776020 -0.374370
O20   O     O_3   0.022790 0.896980 0.223980 -0.374383
V1    V     V_3+5 0.995770 0.877900 0.754830 1.475719
V2    V     V_3+5 0.004230 0.122100 0.245170 1.475713
V3    V     V_3+5 0.004230 0.377900 0.745170 1.477556
V4    V     V_3+5 0.995770 0.622100 0.254830 1.477557
C9    C     C_2   0.001707 0.082669 0.519600 -0.323270
C10   C     C_2   0.998293 0.917331 0.480400 -0.323277
C11   C     C_2   0.998300 0.582695 0.980427 -0.326340
C12   C     C_2   0.001700 0.417305 0.019573 -0.326354
H1    H     H_    0.004502 0.211641 0.487989 0.152996
H2    H     H_    0.995498 0.788359 0.512011 0.152993
H3    H     H_    0.995520 0.711680 0.012090 0.151649
H4    H     H_    0.004480 0.288320 0.987910 0.151651
C13   C     C_R   0.678279 0.808363 0.061817 0.592977
C14   C     C_R   0.321736 0.191684 0.937976 0.592984
C15   C     C_R   0.316239 0.489927 0.472724 0.579080
C16   C     C_R   0.683759 0.511376 0.527273 0.579139
O21   O     O_2   0.702650 0.659539 0.042544 -0.515049
O22   O     O_2   0.297368 0.340502 0.957259 -0.515081
O23   O     O_2   0.286552 0.509094 0.524416 -0.518872
O24   O     O_2   0.713439 0.493341 0.475511 -0.518833
N1    N     N_R   0.702971 0.950193 0.105957 -0.547769
N2    N     N_R   0.297042 0.049832 0.893857 -0.547760
N3    N     N_R   0.297109 0.456585 0.394097 -0.549766
N4    N     N_R   0.702897 0.543492 0.605990 -0.549845
C17   C     C_R   0.678726 0.103828 0.124711 0.593317
C18   C     C_R   0.321286 0.896207 0.875092 0.593300
C19   C     C_R   0.326657 0.434903 0.340797 0.579843
C20   C     C_R   0.673363 0.563992 0.659378 0.579875
C21   C     C_R   0.775799 0.787644 0.180064 -0.171959
C22   C     C_R   0.224195 0.212356 0.819802 -0.171964
C23   C     C_R   0.224251 0.273263 0.337351 -0.180778
C24   C     C_R   0.775746 0.726646 0.662906 -0.180878
C25   C     C_R   0.826503 0.772673 0.205833 0.325904
C26   C     C_R   0.173488 0.227328 0.794081 0.325887
C27   C     C_R   0.173629 0.256315 0.311317 0.330332
C28   C     C_R   0.826371 0.743585 0.688900 0.330299
C29   C     C_R   0.835554 0.063161 0.137996 -0.268891
C30   C     C_R   0.164463 0.936830 0.861929 -0.268897
C31   C     C_R   0.165295 0.581250 0.345984 -0.270616
C32   C     C_R   0.834708 0.418859 0.653911 -0.270458
C33   C     C_R   0.785366 0.075027 0.112096 -0.082433
C34   C     C_R   0.214655 0.924964 0.887782 -0.082444
C35   C     C_R   0.215460 0.595835 0.371167 -0.100399
C36   C     C_R   0.784542 0.404303 0.628738 -0.100475
C37   C     C_R   0.754992 0.937649 0.132862 0.324714
C38   C     C_R   0.245017 0.062350 0.866987 0.324718
C39   C     C_R   0.245272 0.442027 0.367285 0.349028
C40   C     C_R   0.754730 0.558009 0.632808 0.349211
C41   C     C_R   0.602183 0.974772 0.053440 -0.047237
C42   C     C_R   0.397835 0.025307 0.946319 -0.047201
C43   C     C_R   0.397778 0.479177 0.446582 -0.043848
C44   C     C_R   0.602232 0.520952 0.553498 -0.043877
C45   C     C_R   0.627625 0.817472 0.035452 -0.042203
C46   C     C_R   0.372393 0.182605 0.964312 -0.042215
C47   C     C_R   0.366741 0.502228 0.500246 -0.036952
C48   C     C_R   0.633258 0.499134 0.499742 -0.036978
C49   C     C_R   0.602122 0.672790 0.991315 -0.130641
C50   C     C_R   0.397898 0.327317 0.008423 -0.130641
C51   C     C_R   0.386648 0.536189 0.580219 -0.127430
C52   C     C_R   0.613339 0.466619 0.419661 -0.127350
C53   C     C_R   0.628175 0.119392 0.098355 -0.034183
C54   C     C_R   0.371840 0.880670 0.901420 -0.034194
C55   C     C_R   0.377354 0.445299 0.366034 -0.036567
C56   C     C_R   0.622667 0.553584 0.634141 -0.036610
C57   C     C_R   0.856864 0.912087 0.184458 -0.080711
C58   C     C_R   0.143138 0.087913 0.815489 -0.080710
C59   C     C_R   0.143455 0.412254 0.316017 -0.081749
C60   C     C_R   0.856546 0.587747 0.684024 -0.081729
H5    H     H_    0.857858 0.171411 0.120389 0.159052
H6    H     H_    0.142169 0.828575 0.879557 0.159050
H7    H     H_    0.143542 0.703181 0.350716 0.173955
H8    H     H_    0.856463 0.297009 0.649047 0.173792
H9    H     H_    0.770068 0.191230 0.075287 0.164500
H10   H     H_    0.229965 0.808760 0.924579 0.164493
H11   H     H_    0.231214 0.727425 0.393846 0.135441
H12   H     H_    0.768785 0.272821 0.605922 0.135368
H13   H     H_    0.620703 0.549611 0.976882 0.174630
H14   H     H_    0.379318 0.450504 0.022850 0.174660
H15   H     H_    0.363646 0.554824 0.622828 0.172567
H16   H     H_    0.636329 0.449374 0.376948 0.172471
C61   C     C_R   0.474092 0.852029 0.954632 0.031424
C62   C     C_R   0.525927 0.148073 0.045106 0.031405
C63   C     C_R   0.520232 0.533306 0.581956 0.036675
C64   C     C_R   0.479783 0.466281 0.418163 0.036672
C65   C     C_R   0.474712 0.160880 0.018140 0.029232
C66   C     C_R   0.525308 0.839229 0.981592 0.029272
C67   C     C_R   0.531038 0.477071 0.444947 0.036006
C68   C     C_R   0.468966 0.523635 0.555089 0.036004
C69   C     C_R   0.449107 0.012673 0.973157 0.066505
C70   C     C_R   0.550912 0.987425 0.026585 0.066490
C71   C     C_R   0.550940 0.510359 0.526684 0.064985
C72   C     C_R   0.449070 0.489783 0.473394 0.065006
C73   C     C_R   0.446645 0.709478 0.909284 -0.191408
C74   C     C_R   0.553373 0.290615 0.090462 -0.191384
C75   C     C_R   0.542197 0.565081 0.662667 -0.173775
C76   C     C_R   0.457833 0.432618 0.337593 -0.173875
C77   C     C_R   0.396755 0.723905 0.883374 -0.136969
C78   C     C_R   0.603261 0.276168 0.116390 -0.136848
C79   C     C_R   0.592203 0.574947 0.687942 -0.129278
C80   C     C_R   0.407829 0.422517 0.312337 -0.129335
O25   O     O_2   0.296717 0.759399 0.830286 -0.521573
O26   O     O_2   0.703292 0.240617 0.169534 -0.521590
O27   O     O_2   0.692952 0.593092 0.736824 -0.517005
O28   O     O_2   0.307085 0.404668 0.263428 -0.517092
C81   C     C_R   0.552177 0.682737 0.965143 -0.191208
C82   C     C_R   0.447845 0.317386 0.034579 -0.191239
C83   C     C_R   0.436520 0.546870 0.607163 -0.173886
C84   C     C_R   0.563470 0.455727 0.392731 -0.173774
H17   H     H_    0.247663 0.317232 0.802810 0.155517
H18   H     H_    0.752321 0.682773 0.197032 0.155503
H19   H     H_    0.752458 0.845155 0.665812 0.122460
H20   H     H_    0.247533 0.154661 0.334591 0.122586
H21   H     H_    0.377705 0.610180 0.849084 0.168184
H22   H     H_    0.622309 0.389883 0.150690 0.168145
H23   H     H_    0.606914 0.599763 0.750381 0.169420
H24   H     H_    0.393130 0.396310 0.250002 0.169489
H25   H     H_    0.462385 0.583343 0.892414 0.125455
H26   H     H_    0.537633 0.416752 0.107330 0.125445
H27   H     H_    0.521940 0.582945 0.708645 0.118843
H28   H     H_    0.478103 0.412881 0.291749 0.118999
H29   H     H_    0.535914 0.563795 0.932116 0.125970
H30   H     H_    0.464109 0.436353 0.067584 0.126051
H31   H     H_    0.448214 0.573953 0.669657 0.120005
H32   H     H_    0.551762 0.430531 0.330094 0.119852
O29   O     O_3   0.153232 0.374114 0.746871 -0.631374
H33   H     H_    0.179331 0.458826 0.738041 0.305888
O30   O     O_3   0.846745 0.625891 0.253060 -0.631372
H34   H     H_    0.820638 0.541184 0.261865 0.305894
O31   O     O_3   0.846569 0.909788 0.719754 -0.634837
H35   H     H_    0.820504 0.002605 0.719171 0.285406
O32   O     O_3   0.153434 0.089998 0.280598 -0.634866
H36   H     H_    0.179502 0.997162 0.281242 0.285281

loop_
_geom_bond_atom_site_label_1
_geom_bond_atom_site_label_2
_ccdc_geom_bond_type
O17   V3    S    
C47   C51   A    
N1    C17   A    
C22   C26   A    
O1    C5    A    
O19   V1    S    
O13   V1    S    
O3    C7    A    
C11   C12   D    
C14   C46   A    
C27   O32   S    
C44   C48   A    
O4    V2    S    
O15   V3    S    
C62   C70   A    
C61   C69   A    
C68   C83   A    
C42   C54   A    
O7    C3    A    
C76   H28   S    
C17   O26   S    
C41   C53   A    
C32   C60   A    
C23   H20   S    
C63   C71   A    
N3    C39   S    
C18   C54   A    
N2    C38   S    
C52   H16   S    
C25   C57   A    
C31   C35   A    
C67   C84   A    
C82   H30   S    
C27   C59   A    
O1    V3    S    
C15   C47   A    
O2    V4    S    
C14   O22   S    
C21   C37   A    
O3    V1    S    
C34   C38   A    
C19   C55   A    
C73   C77   A    
C1    O15   A    
O31   H35   S    
C77   H21   S    
C7    C9    S    
C28   O31   S    
O2    C6    A    
C33   C37   A    
C63   C68   A    
O14   V2    S    
C43   C55   A    
C31   H7    S    
C30   C58   A    
C16   N4    A    
O11   C7    A    
C44   C71   A    
O12   C8    A    
C31   C59   A    
C50   H14   S    
O10   V2    S    
C49   H13   S    
C25   O30   S    
C13   N1    A    
C84   H32   S    
C50   C82   A    
O5    V1    S    
C53   C78   A    
O7    V3    S    
C55   C80   A    
C63   C75   A    
O8    V4    S    
C51   C83   A    
C12   H4    S    
C42   C69   A    
C81   H29   S    
C28   C60   A    
C41   C70   A    
C2    O16   A    
C64   C72   A    
O18   V4    S    
C36   H12   S    
N4    C40   S    
C46   C50   A    
O11   V3    S    
C24   C40   A    
C8    C10   S    
C68   C72   A    
C32   C36   A    
C74   C78   A    
C11   H3    S    
C32   H8    S    
O5    C1    A    
C54   C77   A    
C42   C46   A    
C75   C79   A    
O32   H36   S    
C1    C60   S    
C41   C45   A    
O8    C4    A    
C13   C45   A    
C43   C72   A    
C9    C10   D    
O9    C5    A    
C36   C40   A    
C79   H23   S    
C21   C25   A    
C44   C56   A    
C80   H24   S    
C62   C65   A    
C52   C84   A    
C66   C70   A    
C61   C66   A    
C14   N2    A    
C65   C69   A    
C22   H17   S    
O6    V2    S    
C75   H27   S    
C67   C71   A    
C65   C82   A    
C26   C58   A    
C17   C53   A    
O10   C6    A    
C73   H25   S    
N1    C37   S    
C4    C57   S    
C56   C79   A    
C23   C39   A    
C22   C38   A    
O16   V4    S    
O9    V1    S    
C83   H31   S    
C18   O25   S    
C35   H11   S    
C3    O13   A    
C10   H2    S    
C48   C52   A    
C3    C58   S    
C16   C48   A    
O6    C2    A    
C34   H10   S    
C64   C76   A    
C5    C11   S    
C33   H9    S    
O12   V4    S    
C6    C12   S    
C23   C27   A    
C26   O29   S    
C76   C80   A    
C24   C28   A    
C30   H6    S    
O20   V2    S    
C29   H5    S    
N2    C18   A    
C62   C74   A    
C35   C39   A    
C15   N3    A    
C30   C34   A    
C2    C59   S    
O4    C8    A    
C29   C33   A    
C29   C57   A    
C66   C81   A    
C78   H22   S    
C21   H18   S    
N3    C19   A    
C74   H26   S    
C9    H1    S    
C20   O27   S    
C24   H19   S    
C43   C47   A    
N4    C20   A    
C20   C56   A    
C51   H15   S    
C19   O28   S    
C4    O14   A    
O30   H34   S    
C13   O21   S    
C61   C73   A    
O29   H33   S    
C15   O23   S    
C64   C67   A    
C45   C49   A    
C16   O24   S    
C49   C81   A    
