data_mof_unit_21660.cif
_audit_creation_date              2013-03-05T15:40:44-0500
_audit_creation_method            fapswitch 2.2
_symmetry_space_group_name_H-M    P1
_symmetry_Int_Tables_number       1
_space_group_crystal_system       triclinic
_cell_length_a                    6.931307
_cell_length_b                    17.378035
_cell_length_c                    24.070366
_cell_angle_alpha                 104.395676
_cell_angle_beta                  90.477208
_cell_angle_gamma                 89.81171
_cell_volume                      2808.20248497

loop_
_atom_site_label
_atom_site_type_symbol
_atom_site_description
_atom_site_fract_x
_atom_site_fract_y
_atom_site_fract_z
_atom_type_partial_charge
O1    O     O_R   0.494290 0.391990 0.999150 -0.530991
O2    O     O_R   0.827170 0.534410 0.082350 -0.556395
O3    O     O_R   0.994360 0.608010 0.000850 -0.518063
C1    C     C_R   0.658759 0.550819 0.106051 0.878277
O4    O     O_R   0.824210 0.388010 0.004470 -0.505368
O5    O     O_R   0.991370 0.460560 0.922410 -0.567613
C2    C     C_R   0.654407 0.355114 0.001555 0.824471
O6    O     O_R   0.497270 0.539440 0.077590 -0.569228
O7    O     O_3   0.659770 0.523970 0.973170 -0.270535
V1    V     V_3+5 0.935840 0.495550 0.004980 1.259252
O8    O     O_R   0.320910 0.465590 0.917650 -0.566720
C3    C     C_R   0.151377 0.449777 0.893914 0.865597
O9    O     O_R   0.323870 0.611990 0.995530 -0.539471
C4    C     C_R   0.153895 0.645399 0.999578 0.872090
V2    V     V_3+5 0.435470 0.504450 0.995020 1.228722
O10   O     O_3   0.161670 0.476030 0.026830 -0.242416
C5    C     C_2   0.138591 0.730181 0.998461 -0.318069
H1    H     H_    0.266692 0.757521 0.986241 0.127105
C6    C     C_2   0.971953 0.772933 0.008955 0.165865
C7    C     C_R   0.026830 0.248792 0.627121 0.599023
N1    N     N_R   0.094392 0.324568 0.648642 -0.454653
C8    C     C_R   0.143231 0.371397 0.612852 0.571555
C9    C     C_R   0.125522 0.342635 0.552978 -0.062302
C10   C     C_R   0.053117 0.265599 0.529903 -0.078394
C11   C     C_R   0.997992 0.218069 0.567197 -0.102350
C12   C     C_R   0.175065 0.390244 0.516019 -0.109378
C13   C     C_R   0.154800 0.362773 0.456426 0.344645
C14   C     C_R   0.090271 0.283892 0.432150 -0.100322
C15   C     C_R   0.036561 0.236145 0.469437 -0.078796
C16   C     C_R   0.966762 0.158704 0.446337 -0.062942
C17   C     C_R   0.909165 0.112365 0.483351 -0.111098
C18   C     C_R   0.920196 0.141283 0.543030 0.347561
C19   C     C_R   0.081897 0.249930 0.372047 0.592111
N2    N     N_R   0.011372 0.174649 0.350574 -0.452586
C20   C     C_R   0.953097 0.129323 0.386439 0.571321
O11   O     O_2   0.992948 0.202978 0.663684 -0.462353
O12   O     O_2   0.207506 0.446001 0.635162 -0.545964
H2    H     H_    0.225525 0.450454 0.533412 0.154516
O13   O     O_2   0.149015 0.290429 0.335222 -0.476378
O14   O     O_2   0.881423 0.055901 0.364181 -0.550465
H3    H     H_    0.850219 0.053510 0.466030 0.152305
C21   C     C_R   0.112414 0.076455 0.262431 -0.011569
H4    H     H_    0.207403 0.049610 0.288311 0.100208
C22   C     C_R   0.100273 0.044075 0.202884 -0.060564
C23   C     C_R   0.975158 0.078704 0.169117 -0.121744
C24   C     C_R   0.860667 0.143866 0.196266 -0.114253
H5    H     H_    0.763030 0.171000 0.171290 0.116111
C25   C     C_R   0.873249 0.175501 0.255633 -0.006779
H6    H     H_    0.784053 0.225861 0.275683 0.116038
C26   C     C_R   0.999791 0.142325 0.289141 0.246836
C27   C     C_R   0.290799 0.375869 0.736623 0.014091
H7    H     H_    0.420578 0.367134 0.711071 0.084743
C28   C     C_R   0.304899 0.406517 0.796204 -0.111576
H8    H     H_    0.446253 0.420915 0.815377 0.089159
C29   C     C_R   0.138309 0.418189 0.830463 -0.097866
C30   C     C_R   0.957686 0.398307 0.803468 -0.104335
H9    H     H_    0.826218 0.406202 0.828242 0.094929
C31   C     C_R   0.944015 0.367626 0.744052 -0.005237
H10   H     H_    0.803551 0.352980 0.724292 0.079893
C32   C     C_R   0.110178 0.356089 0.710096 0.267191
C33   C     C_R   0.470793 0.878617 0.611976 0.593760
N3    N     N_R   0.509926 0.830350 0.648009 -0.456694
C34   C     C_R   0.568361 0.753146 0.626529 0.555473
C35   C     C_R   0.590382 0.721921 0.566988 -0.030141
C36   C     C_R   0.551188 0.770841 0.529564 -0.047320
C37   C     C_R   0.490635 0.849857 0.552075 -0.026263
C38   C     C_R   0.650879 0.643143 0.544053 -0.063100
C39   C     C_R   0.672128 0.613406 0.484853 -0.014574
C40   C     C_R   0.633067 0.661622 0.447026 -0.031620
C41   C     C_R   0.572607 0.740649 0.469497 -0.047941
C42   C     C_R   0.533253 0.789501 0.432034 -0.028351
C43   C     C_R   0.473759 0.868429 0.455014 -0.062614
C44   C     C_R   0.452722 0.898219 0.514256 -0.013576
C45   C     C_R   0.651451 0.632597 0.387145 0.588931
N4    N     N_R   0.611595 0.680646 0.351009 -0.456280
C46   C     C_R   0.554087 0.758009 0.372433 0.555866
O15   O     O_2   0.415074 0.954462 0.633974 -0.480596
O16   O     O_2   0.604253 0.706476 0.662631 -0.541524
H11   H     H_    0.682143 0.604134 0.571771 0.139603
H12   H     H_    0.719011 0.552438 0.468857 0.163697
O17   O     O_2   0.706165 0.556595 0.365243 -0.477607
O18   O     O_2   0.517926 0.804541 0.336255 -0.545729
H13   H     H_    0.442928 0.907478 0.427294 0.136395
H14   H     H_    0.406642 0.959288 0.530288 0.154091
C47   C     C_R   0.458727 0.640510 0.255031 0.002667
H15   H     H_    0.319771 0.658509 0.274240 0.078480
C48   C     C_R   0.470054 0.608583 0.195728 -0.123035
H16   H     H_    0.338449 0.603386 0.170512 0.090819
C49   C     C_R   0.648483 0.584041 0.169398 -0.093398
C50   C     C_R   0.815469 0.592874 0.204185 -0.103132
H17   H     H_    0.955267 0.575087 0.185522 0.094746
C51   C     C_R   0.803662 0.624672 0.263674 -0.001316
H18   H     H_    0.933681 0.630807 0.289648 0.087165
C52   C     C_R   0.625099 0.648715 0.289583 0.271690
C53   C     C_R   0.661185 0.870534 0.744104 0.008129
H19   H     H_    0.801094 0.854908 0.724818 0.077326
C54   C     C_R   0.648219 0.899483 0.803637 -0.110086
H20   H     H_    0.779830 0.905267 0.828879 0.094996
C55   C     C_R   0.468291 0.920154 0.830174 -0.101184
C56   C     C_R   0.301701 0.911403 0.795199 -0.111025
H21   H     H_    0.160948 0.926703 0.813959 0.096015
C57   C     C_R   0.315170 0.882584 0.735424 0.000851
H22   H     H_    0.185374 0.875896 0.709329 0.085823
C58   C     C_R   0.495073 0.861625 0.709452 0.273501
C59   C     C_2   0.643400 0.270346 0.002359 0.074737
C60   C     C_2   0.472097 0.229652 0.997638 0.072617
O19   O     O_R   0.618210 0.960470 0.922400 -0.562717
O20   O     O_R   0.291310 0.111960 0.995450 -0.498440
O21   O     O_R   0.124210 0.039530 0.077580 -0.551508
C61   C     C_R   0.461103 0.144871 0.998398 0.834126
O22   O     O_R   0.288310 0.965490 0.917650 -0.565810
O23   O     O_R   0.121180 0.892010 0.999220 -0.586297
C62   C     C_R   0.456926 0.950201 0.893822 0.833793
O24   O     O_R   0.621230 0.107990 0.000760 -0.526941
O25   O     O_3   0.455770 0.976060 0.026840 -0.291241
V3    V     V_3+5 0.179680 0.004440 0.995020 1.222616
O26   O     O_R   0.791670 0.888040 0.004570 -0.533899
C63   C     C_R   0.961332 0.855508 0.002781 0.772095
O27   O     O_R   0.794680 0.034510 0.082370 -0.575363
C64   C     C_R   0.964094 0.048841 0.105903 0.865384
V4    V     V_3+5 0.680070 0.995560 0.005010 1.199105
O28   O     O_3   0.953840 0.023940 0.973160 -0.228427
N5    N     N_R   0.803571 0.741176 0.029622 0.088006
O29   O     O_R   0.638762 0.740797 0.003376 -0.380144
O30   O     O_R   0.810043 0.722202 0.078602 -0.430140
N6    N     N_R   0.822652 0.231695 0.007839 0.113742
O31   O     O_R   0.881517 0.226102 0.058161 -0.339278
O32   O     O_R   0.908696 0.191093 0.962020 -0.285217
N7    N     N_R   0.292818 0.268331 0.992247 0.113547
O33   O     O_R   0.233651 0.273926 0.941955 -0.329847
O34   O     O_R   0.206930 0.308888 0.038111 -0.289915
N8    N     N_R   0.191687 0.417627 0.422027 0.121322
O35   O     O_R   0.051457 0.438375 0.392496 -0.277354
O36   O     O_R   0.349159 0.459627 0.430246 -0.346033
N9    N     N_R   0.842775 0.092816 0.577777 0.124991
O37   O     O_R   0.693389 0.117662 0.609676 -0.292770
O38   O     O_R   0.891288 0.018246 0.567702 -0.347226
C65   C     C_R   0.204661 0.969587 0.178026 0.018442
C66   C     C_R   0.400289 0.970713 0.163700 -0.015160
C67   C     C_R   0.497815 0.899326 0.140954 0.012901
C68   C     C_R   0.401164 0.826854 0.133322 -0.040251
C69   C     C_R   0.207000 0.825540 0.147984 -0.086717
C70   C     C_R   0.108430 0.896677 0.170013 -0.056333
H23   H     H_    0.476375 0.026589 0.169851 0.068369
H24   H     H_    0.648100 0.900164 0.129325 0.077538
H25   H     H_    0.476021 0.771530 0.116270 0.147741
H26   H     H_    0.133271 0.769324 0.142421 0.110730
H27   H     H_    0.958074 0.894997 0.181489 0.085466

loop_
_geom_bond_atom_site_label_1
_geom_bond_atom_site_label_2
_geom_bond_distance
_ccdc_geom_bond_type
C39   H12   1.083217 S    
C60   N7    1.431082 S    
C48   H16   1.082924 S    
N6    O31   1.301196 A    
O25   V4    1.706931 S    
C53   H19   1.082940 S    
C1    O6    1.297168 A    
C54   H20   1.082799 S    
N5    O29   1.300017 A    
C28   H8    1.082676 S    
C53   C58   1.402250 A    
C6    N5    1.436874 S    
C12   C13   1.400640 A    
C19   O13   1.347845 S    
V3    O28   1.706904 S    
C59   N6    1.431112 S    
C14   C15   1.417909 A    
C1    C49   1.492369 S    
C65   C70   1.403356 A    
O5    C3    1.297297 A    
C16   C17   1.402315 A    
N5    O30   1.301152 A    
C7    C11   1.420754 A    
C31   C32   1.402630 A    
O25   V3    2.156199 S    
C30   H9    1.082744 S    
N2    C20   1.369250 A    
C47   C52   1.402843 A    
C9    C12   1.402423 A    
O26   V4    2.017549 S    
C10   C15   1.421499 A    
O19   C62   1.297001 A    
O21   V3    1.969128 S    
O24   V4    2.021790 S    
O8    V2    1.976955 S    
C33   C37   1.411416 A    
N3    C34   1.373468 A    
C17   C18   1.400493 A    
C6    C63   1.480480 S    
C33   O15   1.348997 S    
C39   C40   1.406478 A    
C22   C65   1.474130 S    
C9    C10   1.408046 A    
C2    C59   1.480265 S    
C41   C42   1.408308 A    
O1    V2    2.021439 S    
O9    C4    1.305334 A    
C30   C31   1.399119 A    
O7    V1    2.156198 S    
C61   O24   1.287735 A    
C44   H14   1.083245 S    
C11   C18   1.422412 A    
O27   V4    1.977059 S    
N1    C8    1.369044 A    
C13   N8    1.434292 S    
C4    C5    1.483682 S    
C33   N3    1.373221 A    
C21   C22   1.405469 A    
C56   C57   1.404767 A    
C54   C55   1.410179 A    
C19   N2    1.371621 A    
N3    C58   1.447677 S    
C28   C29   1.409116 A    
C70   H27   1.082712 S    
C66   C67   1.399514 A    
C24   C25   1.399800 A    
N2    C26   1.447036 S    
C45   N4    1.373209 A    
C47   C48   1.399774 A    
C38   C39   1.398606 A    
C3    C29   1.491076 S    
C35   C38   1.406796 A    
N9    O37   1.301383 A    
C38   H11   1.083101 S    
C10   C11   1.417933 A    
N1    C32   1.447388 S    
C46   O18   1.349150 S    
O4    C2    1.303859 A    
C12   H2    1.083769 S    
C31   H10   1.082874 S    
C23   C24   1.404950 A    
C37   C44   1.406790 A    
C27   H7    1.082755 S    
C27   C28   1.402924 A    
C36   C41   1.419024 A    
O2    C1    1.302842 A    
N4    C46   1.373840 A    
C55   C62   1.493309 S    
C15   C16   1.407854 A    
C66   H23   1.083273 S    
C50   C51   1.403788 A    
C55   C56   1.409409 A    
O27   C64   1.297099 A    
C29   C30   1.409487 A    
C51   C52   1.405433 A    
C5    H1    1.085016 S    
C40   C45   1.410429 A    
O22   C62   1.303392 A    
C67   C68   1.398977 A    
C57   C58   1.405411 A    
V4    O28   2.156429 S    
O22   V3    1.971433 S    
O3    C4    1.288825 A    
C68   H25   1.079853 S    
C21   C26   1.403422 A    
C16   C20   1.407249 A    
C23   C64   1.481914 S    
C25   H6    1.082792 S    
C14   C19   1.420885 A    
O6    V2    1.972300 S    
C48   C49   1.410072 A    
C21   H4    1.083900 S    
O19   V4    1.973382 S    
C45   O17   1.349072 S    
O2    V1    1.971374 S    
O23   V3    2.023888 S    
C22   C23   1.415235 A    
N7    O33   1.301180 A    
C60   C61   1.480197 S    
N9    O38   1.301310 A    
C24   H5    1.083439 S    
N6    O32   1.300440 A    
C17   H3    1.083847 S    
O1    C2    1.287795 A    
C69   H26   1.081927 S    
C8    C9    1.407559 A    
C43   C44   1.399491 A    
C47   H15   1.082956 S    
C67   H24   1.081959 S    
O5    V1    1.969337 S    
C18   N9    1.434426 S    
O8    C3    1.302160 A    
C53   C54   1.399282 A    
C59   C60   1.373365 D    
C35   C36   1.408244 A    
O20   V3    2.022318 S    
O9    V2    2.017495 S    
C20   O14   1.349695 S    
O7    V2    1.707204 S    
C42   C43   1.407178 A    
O3    V1    2.023938 S    
V1    O10   1.706850 S    
C68   C69   1.395844 A    
O23   C63   1.292494 A    
C8    O12   1.349568 S    
C50   H17   1.082826 S    
C42   C46   1.411034 A    
C25   C26   1.402975 A    
C51   H18   1.082828 S    
C5    C6    1.362262 D    
O20   C61   1.303860 A    
N8    O35   1.301397 A    
C57   H22   1.082769 S    
C40   C41   1.408855 A    
C43   H13   1.083116 S    
C65   C66   1.403292 A    
C34   C35   1.410021 A    
C7    O11   1.347826 S    
O4    V1    2.022203 S    
C7    N1    1.372053 A    
N4    C52   1.448036 S    
N8    O36   1.301169 A    
C36   C37   1.409020 A    
C13   C14   1.421962 A    
C69   C70   1.396685 A    
C56   H21   1.082743 S    
C27   C32   1.404843 A    
C49   C50   1.409063 A    
O26   C63   1.299524 A    
V2    O10   2.156432 S    
O21   C64   1.295847 A    
N7    O34   1.300448 A    
C34   O16   1.349183 S    
