data_mof_unit_36660.cif
_audit_creation_date              2012-12-11T14:06:39-0500
_audit_creation_method            fapswitch 2.2
_symmetry_space_group_name_H-M    P1
_symmetry_Int_Tables_number       1
_space_group_crystal_system       triclinic
_cell_length_a                    6.958544
_cell_length_b                    17.447814
_cell_length_c                    24.501259
_cell_angle_alpha                 106.9475
_cell_angle_beta                  90.954312
_cell_angle_gamma                 89.537196
_cell_volume                      2845.13496581

loop_
_atom_site_label
_atom_site_type_symbol
_atom_type_description
_atom_site_fract_x
_atom_site_fract_y
_atom_site_fract_z
_atom_type_partial_charge
O1    O     O_R   0.494290 0.391990 0.999150 -0.523470
O2    O     O_R   0.827170 0.534410 0.082350 -0.546277
O3    O     O_R   0.994360 0.608010 0.000850 -0.508416
C1    C     C_R   0.659415 0.547146 0.106489 0.691250
O4    O     O_R   0.824210 0.388010 0.004470 -0.529743
O5    O     O_R   0.991370 0.460560 0.922410 -0.520591
C2    C     C_R   0.653861 0.354347 0.000023 0.705370
O6    O     O_R   0.497270 0.539440 0.077590 -0.542988
O7    O     O_3   0.659770 0.523970 0.973170 -0.377450
V1    V     V_3+5 0.935840 0.495550 0.004980 1.479129
O8    O     O_R   0.320910 0.465590 0.917650 -0.552929
C3    C     C_R   0.150531 0.452980 0.894056 0.772595
O9    O     O_R   0.323870 0.611990 0.995530 -0.563783
C4    C     C_R   0.153129 0.644353 0.997057 0.790563
V2    V     V_3+5 0.435470 0.504450 0.995020 1.427742
O10   O     O_3   0.161670 0.476030 0.026830 -0.364997
C5    C     C_2   0.138857 0.728617 0.994907 -0.412325
C6    C     C_2   0.970205 0.769004 0.997936 0.256838
C7    C     C_R   0.057723 0.257674 0.621494 0.628436
N1    N     N_R   0.046831 0.338887 0.648517 -0.531274
C8    C     C_R   0.011258 0.391318 0.616968 0.538742
C9    C     C_R   0.992104 0.363169 0.556871 -0.056940
C10   C     C_R   0.995572 0.280186 0.529701 -0.017884
C11   C     C_R   0.023320 0.226883 0.562405 -0.043052
C12   C     C_R   0.971325 0.415840 0.523262 -0.127824
C13   C     C_R   0.960454 0.386405 0.463663 -0.118779
C14   C     C_R   0.961886 0.303521 0.436219 -0.057091
C15   C     C_R   0.974656 0.250318 0.469558 -0.018216
C16   C     C_R   0.969507 0.167238 0.442848 -0.061808
C17   C     C_R   0.988323 0.114410 0.476322 -0.158835
C18   C     C_R   0.018669 0.143853 0.535235 -0.136723
C19   C     C_R   0.957278 0.272415 0.376158 0.527089
N2    N     N_R   0.955719 0.190982 0.350402 -0.533089
C20   C     C_R   0.951282 0.138876 0.383039 0.618107
O11   O     O_2   0.104483 0.206105 0.651248 -0.521443
O12   O     O_2   0.994869 0.470519 0.643334 -0.518062
O13   O     O_2   0.960340 0.323367 0.344033 -0.529433
O14   O     O_2   0.929796 0.059613 0.357740 -0.521227
H1    H     H_    0.985461 0.050130 0.456943 0.165876
H2    H     H_    0.037461 0.101251 0.559421 0.167227
C21   C     C_R   0.112016 0.101884 0.263362 0.389229
C22   C     C_R   0.106026 0.063339 0.203864 0.286452
C23   C     C_R   0.971368 0.088044 0.168718 -0.184349
C24   C     C_R   0.838336 0.148439 0.193881 -0.314144
H3    H     H_    0.733152 0.168060 0.167661 0.142767
C25   C     C_R   0.835692 0.182893 0.252972 -0.182851
H4    H     H_    0.726601 0.227165 0.271098 0.162639
C26   C     C_R   0.968842 0.159268 0.288640 0.230209
C27   C     C_R   0.204947 0.430970 0.735298 -0.177267
H5    H     H_    0.287628 0.457617 0.708561 0.168374
C28   C     C_R   0.231634 0.459060 0.794929 -0.303820
H6    H     H_    0.328693 0.508484 0.812990 0.162384
C29   C     C_R   0.134249 0.423080 0.830752 -0.184119
C30   C     C_R   0.015931 0.357200 0.805691 0.302855
C31   C     C_R   0.971169 0.335105 0.746989 0.375825
C32   C     C_R   0.072683 0.369096 0.710382 0.208373
C33   C     C_R   0.458102 0.847510 0.613819 0.621881
N3    N     N_R   0.476375 0.800850 0.649799 -0.526059
C34   C     C_R   0.512188 0.720070 0.628824 0.642247
C35   C     C_R   0.522046 0.682045 0.568986 -0.168769
C36   C     C_R   0.505934 0.730327 0.531892 -0.074127
C37   C     C_R   0.474711 0.813629 0.554652 -0.063540
C38   C     C_R   0.552836 0.598284 0.545293 0.351167
C39   C     C_R   0.559810 0.563765 0.485165 0.326910
C40   C     C_R   0.557562 0.613329 0.448102 -0.165948
C41   C     C_R   0.531763 0.696662 0.472277 -0.127497
C42   C     C_R   0.539610 0.747446 0.437113 -0.086927
C43   C     C_R   0.493712 0.829724 0.459734 0.442538
C44   C     C_R   0.464095 0.862023 0.518045 -0.236483
C45   C     C_R   0.582495 0.582830 0.387580 0.627263
N4    N     N_R   0.595611 0.633902 0.354195 -0.538999
C46   C     C_R   0.595453 0.715279 0.380234 0.567169
O15   O     O_2   0.430560 0.927246 0.635412 -0.540131
O16   O     O_2   0.538625 0.677161 0.665964 -0.516711
O17   O     O_2   0.593902 0.503367 0.362692 -0.518127
O18   O     O_2   0.656228 0.765813 0.351837 -0.534674
C47   C     C_R   0.509583 0.649464 0.259185 -0.221225
C48   C     C_R   0.569066 0.642332 0.203384 0.374232
C49   C     C_R   0.651420 0.569654 0.170648 -0.095020
C50   C     C_R   0.726089 0.518017 0.200730 -0.291536
C51   C     C_R   0.713215 0.538223 0.260909 -0.097928
H7    H     H_    0.791887 0.502066 0.282799 0.183565
C52   C     C_R   0.601783 0.604828 0.291466 0.281031
C53   C     C_R   0.633293 0.838093 0.744555 -0.267837
C54   C     C_R   0.632010 0.872522 0.803902 0.365359
C55   C     C_R   0.464280 0.911470 0.830815 -0.194584
C56   C     C_R   0.299647 0.912264 0.796755 -0.395050
C57   C     C_R   0.301249 0.877260 0.736829 0.484240
C58   C     C_R   0.469037 0.838322 0.710916 0.245377
C59   C     C_2   0.636323 0.266368 0.992372 0.140440
C60   C     C_2   0.474784 0.233735 0.008332 0.126212
O19   O     O_R   0.618210 0.960470 0.922400 -0.519366
O20   O     O_R   0.291310 0.111960 0.995450 -0.530860
O21   O     O_R   0.124210 0.039530 0.077580 -0.538342
C61   C     C_R   0.460855 0.145651 0.000648 0.679146
O22   O     O_R   0.288310 0.965490 0.917650 -0.542843
O23   O     O_R   0.121180 0.892010 0.999220 -0.555736
C62   C     C_R   0.456339 0.947774 0.894074 0.735708
O24   O     O_R   0.621230 0.107990 0.000760 -0.521902
O25   O     O_3   0.455770 0.976060 0.026840 -0.391232
V3    V     V_3+5 0.179680 0.004440 0.995020 1.431150
O26   O     O_R   0.791670 0.888040 0.004570 -0.545783
C63   C     C_R   0.961579 0.854810 0.999777 0.657239
O27   O     O_R   0.794680 0.034510 0.082370 -0.553295
C64   C     C_R   0.963998 0.050950 0.105815 0.766301
V4    V     V_3+5 0.680070 0.995560 0.005010 1.411228
O28   O     O_3   0.953840 0.023940 0.973160 -0.350148
H8    H     H_    0.271012 0.758985 0.991953 0.103648
O29   O     O_3   0.960085 0.308142 0.837473 -0.562362
C65   C     C_3   0.106232 0.249957 0.834918 0.061686
H9    H     H_    0.225754 0.249668 0.805041 0.104662
H10   H     H_    0.040572 0.189990 0.818789 0.155202
C66   C     C_3   0.193792 0.260669 0.894044 -0.652350
H11   H     H_    0.258475 0.203445 0.896164 0.152176
H12   H     H_    0.308328 0.306580 0.902710 0.191686
H13   H     H_    0.083295 0.279416 0.927443 0.283417
O30   O     O_3   0.841444 0.274167 0.724840 -0.521544
C67   C     C_3   0.654217 0.305809 0.734882 0.077760
H14   H     H_    0.627805 0.351583 0.711955 0.115451
H15   H     H_    0.628652 0.333011 0.781344 0.132363
C68   C     C_3   0.511843 0.238201 0.712722 -0.612668
H16   H     H_    0.364926 0.262200 0.722293 0.191743
H17   H     H_    0.526106 0.212105 0.665856 0.237885
H18   H     H_    0.537318 0.190781 0.734011 0.214965
O31   O     O_3   0.609051 0.551838 0.580161 -0.516559
C69   C     C_3   0.450182 0.512376 0.595224 0.240375
H19   H     H_    0.316260 0.514211 0.570239 0.053963
H20   H     H_    0.414417 0.541245 0.640528 0.181143
C70   C     C_3   0.506790 0.425973 0.589905 -0.711820
H21   H     H_    0.562267 0.395944 0.546776 0.241475
H22   H     H_    0.619335 0.424812 0.622188 0.233558
H23   H     H_    0.382329 0.391860 0.597572 0.164193
O32   O     O_3   0.598312 0.482739 0.464082 -0.530550
C71   C     C_3   0.424826 0.440678 0.446145 0.170267
H24   H     H_    0.334877 0.467236 0.418210 0.137932
H25   H     H_    0.338141 0.439465 0.483079 0.091267
C72   C     C_3   0.471634 0.354529 0.413560 -0.644307
H26   H     H_    0.550393 0.325164 0.441790 0.198610
H27   H     H_    0.336753 0.321498 0.398875 0.169376
H28   H     H_    0.560346 0.352255 0.375891 0.259703
O33   O     O_3   0.473842 0.879514 0.425184 -0.529672
C73   C     C_3   0.285334 0.870707 0.401796 0.072476
H29   H     H_    0.177022 0.890612 0.436120 0.117459
H30   H     H_    0.255750 0.807375 0.376869 0.117508
C74   C     C_3   0.262071 0.922047 0.361550 -0.545796
H31   H     H_    0.373491 0.906155 0.328133 0.225271
H32   H     H_    0.117859 0.912078 0.340660 0.206537
H33   H     H_    0.275910 0.986175 0.385957 0.230959
H34   H     H_    0.433950 0.925583 0.534390 0.179400
H35   H     H_    0.421892 0.700773 0.280187 0.148297
O34   O     O_3   0.799424 0.728334 0.995549 -0.545372
C75   C     C_3   0.686139 0.766310 0.043096 0.059494
H36   H     H_    0.555749 0.790837 0.028008 0.139553
H37   H     H_    0.758301 0.815820 0.076100 0.101639
C76   C     C_3   0.632097 0.705806 0.072038 -0.598289
H38   H     H_    0.754672 0.697043 0.098785 0.215744
H39   H     H_    0.497708 0.724502 0.096123 0.198725
H40   H     H_    0.611864 0.648413 0.040104 0.270583
O35   O     O_3   0.592151 0.711347 0.187050 -0.583797
C77   C     C_3   0.712240 0.766948 0.227487 0.100725
H41   H     H_    0.800548 0.739069 0.255126 0.170447
H42   H     H_    0.620537 0.814631 0.255097 0.178005
C78   C     C_3   0.858459 0.805818 0.198524 -0.745098
H43   H     H_    0.785938 0.837449 0.171122 0.219589
H44   H     H_    0.943857 0.850394 0.231440 0.223618
H45   H     H_    0.958873 0.760049 0.172946 0.212930
H46   H     H_    0.801047 0.463769 0.177959 0.140603
H47   H     H_    0.763777 0.809967 0.724499 0.195175
O36   O     O_3   0.798629 0.869410 0.834742 -0.550564
C79   C     C_3   0.815147 0.792967 0.843578 0.115306
H48   H     H_    0.752842 0.743406 0.808067 0.132879
H49   H     H_    0.741071 0.793919 0.883623 0.130030
C80   C     C_3   0.026606 0.773429 0.849335 -0.697990
H50   H     H_    0.096944 0.821845 0.883293 0.220998
H51   H     H_    0.040920 0.716257 0.860390 0.176532
H52   H     H_    0.100092 0.767124 0.808361 0.232202
H53   H     H_    0.168747 0.939380 0.816961 0.187674
O37   O     O_3   0.138109 0.874718 0.702865 -0.545127
C81   C     C_3   0.047010 0.950524 0.715187 0.094213
H54   H     H_    0.151930 0.000976 0.725725 0.138494
H55   H     H_    0.946879 0.958054 0.751252 0.129569
C82   C     C_3   0.930542 0.955023 0.663155 -0.609161
H56   H     H_    0.848141 0.012100 0.673288 0.197130
H57   H     H_    0.027660 0.952185 0.627103 0.232494
H58   H     H_    0.828954 0.904071 0.650202 0.221054
O38   O     O_3   0.781462 0.216522 0.963529 -0.545825
C83   C     C_3   0.724952 0.185644 0.905337 0.091043
H59   H     H_    0.748203 0.231525 0.883063 0.167884
H60   H     H_    0.571115 0.168108 0.899313 0.066568
C84   C     C_3   0.839636 0.110328 0.876821 -0.636635
H61   H     H_    0.786947 0.059760 0.890619 0.246329
H62   H     H_    0.819925 0.094349 0.829781 0.141806
H63   H     H_    0.994315 0.118398 0.888191 0.218579
O39   O     O_3   0.319533 0.282546 0.030904 -0.540311
C85   C     C_3   0.296835 0.284527 0.088496 0.111678
H64   H     H_    0.432924 0.302834 0.113434 0.081550
H65   H     H_    0.250941 0.225158 0.091885 0.108579
C86   C     C_3   0.141827 0.345334 0.115026 -0.640829
H66   H     H_    0.004033 0.328977 0.091051 0.215439
H67   H     H_    0.120334 0.346301 0.160036 0.162345
H68   H     H_    0.185392 0.406059 0.114197 0.223484
H69   H     H_    0.968540 0.480063 0.542738 0.191432
H70   H     H_    0.952132 0.428897 0.439128 0.195250
O40   O     O_3   0.245820 0.076810 0.297122 -0.532701
C87   C     C_3   0.380427 0.138716 0.320359 0.055927
H71   H     H_    0.318940 0.200040 0.329610 0.114129
H72   H     H_    0.498828 0.134617 0.290110 0.117093
C88   C     C_3   0.464997 0.129200 0.375607 -0.639375
H73   H     H_    0.540908 0.070828 0.367210 0.253109
H74   H     H_    0.567724 0.178384 0.394318 0.167010
H75   H     H_    0.350316 0.132193 0.406965 0.208736
O41   O     O_3   0.201794 0.991637 0.181955 -0.547644
C89   C     C_3   0.396063 0.005963 0.173486 0.139728
H76   H     H_    0.474865 0.027908 0.214603 0.145904
H77   H     H_    0.412891 0.049295 0.148310 0.110049
C90   C     C_3   0.486640 0.926977 0.141467 -0.660463
H78   H     H_    0.409526 0.901088 0.100315 0.218963
H79   H     H_    0.639691 0.936747 0.133706 0.169098
H80   H     H_    0.475883 0.884179 0.167072 0.220681

loop_
_geom_bond_atom_site_label_1
_geom_bond_atom_site_label_2
_ccdc_geom_bond_type
V3    O28   S    
C31   C32   A    
O21   C64   A    
C69   H19   S    
C85   H65   S    
C76   H39   S    
O30   C67   S    
C21   C22   A    
C78   H43   S    
C4    C5    S    
C90   H80   S    
C1    O6    A    
C71   C72   S    
O27   V4    S    
O37   C81   S    
C33   N3    A    
O19   C62   A    
C33   C37   A    
C8    O12   S    
C47   C48   A    
C72   H27   S    
C13   C14   A    
C84   H61   S    
C35   C38   A    
C15   C16   A    
C78   H44   S    
C90   H79   S    
C70   H21   S    
O5    C3    A    
C17   C18   A    
C61   O24   A    
C87   C88   S    
V4    O28   S    
C47   C52   A    
C40   C45   A    
C18   H2    S    
C42   C46   A    
C23   C64   S    
C33   O15   S    
C7    O11   S    
C67   H14   S    
C68   H18   S    
C84   H63   S    
C74   H32   S    
C82   H56   S    
O8    V2    S    
C36   C41   A    
C79   H48   S    
C7    N1    A    
O21   V3    S    
C88   H73   S    
C83   C84   S    
C9    C12   A    
O22   C62   A    
C84   H62   S    
C10   C11   A    
O26   V4    S    
C86   H66   S    
O1    V2    S    
O7    V1    S    
C50   H46   S    
C3    C29   S    
C46   O18   S    
C6    C63   S    
C81   C82   S    
C57   C58   A    
C89   H77   S    
C41   C42   A    
C34   C35   A    
O20   C61   A    
C20   O14   S    
O9    C4    A    
C81   H55   S    
C76   H40   S    
C73   C74   S    
O26   C63   A    
C70   H23   S    
O27   C64   A    
C51   C52   A    
C24   C25   A    
C51   H7    S    
N4    C52   S    
C80   H51   S    
C72   H28   S    
C25   C26   A    
C83   H60   S    
C28   H6    S    
C77   C78   S    
C78   H45   S    
O22   V3    S    
C53   C54   A    
C1    C49   S    
C12   H69   S    
C5    H8    S    
O20   V3    S    
C65   H9    S    
O4    C2    A    
C60   O39   S    
C55   C56   A    
C43   C44   A    
C71   H25   S    
C85   H64   S    
C59   O38   S    
C69   C70   S    
C27   C28   A    
C12   C13   A    
C54   C55   A    
C2    C59   S    
C16   C20   A    
C54   O36   S    
C42   C43   A    
C37   C44   A    
C35   C36   A    
C28   C29   A    
C67   C68   S    
C77   H42   S    
O2    C1    A    
C23   C24   A    
C16   C17   A    
C53   H47   S    
C56   H53   S    
O35   C77   S    
C65   C66   S    
C75   C76   S    
C89   H76   S    
O34   C75   S    
C90   H78   S    
N1    C8    A    
C86   H68   S    
C5    C6    D    
C43   O33   S    
O36   C79   S    
C38   O31   S    
C19   O13   S    
O41   C89   S    
C21   O40   S    
C57   O37   S    
C34   O16   S    
C68   H16   S    
O23   C63   A    
O3    C4    A    
C31   O30   S    
C67   H15   S    
O19   V4    S    
C75   H37   S    
C40   C41   A    
O6    V2    S    
O9    V2    S    
O32   C71   S    
C73   H30   S    
C49   C50   A    
C10   C15   A    
C53   C58   A    
C6    O34   S    
O2    V1    S    
C74   H31   S    
C14   C15   A    
C74   H33   S    
C22   O41   S    
C24   H3    S    
C66   H11   S    
C39   O32   S    
C89   C90   S    
C87   H72   S    
O24   V4    S    
C87   H71   S    
C30   C31   A    
C69   H20   S    
C82   H57   S    
C14   C19   A    
O1    C2    A    
C50   C51   A    
C47   H35   S    
O5    V1    S    
O8    C3    A    
C29   C30   A    
C71   H24   S    
C30   O29   S    
C81   H54   S    
C27   C32   A    
C72   H26   S    
O25   V4    S    
C44   H34   S    
C77   H41   S    
C66   H13   S    
C7    C11   A    
N3    C34   A    
C11   C18   A    
O4    V1    S    
O3    V1    S    
V1    O10   S    
O33   C73   S    
C19   N2    A    
O39   C85   S    
C48   C49   A    
C59   C60   D    
O31   C69   S    
C79   H49   S    
C88   H75   S    
C39   C40   A    
O25   V3    S    
C80   H52   S    
C21   C26   A    
N2    C20   A    
C17   H1    S    
C13   H70   S    
N1    C32   S    
O7    V2    S    
C36   C37   A    
C55   C62   S    
N3    C58   S    
C65   H10   S    
C68   H17   S    
C25   H4    S    
C45   N4    A    
C60   C61   S    
C38   C39   A    
C85   C86   S    
C48   O35   S    
N4    C46   A    
O40   C87   S    
C83   H59   S    
C56   C57   A    
C88   H74   S    
C27   H5    S    
C22   C23   A    
O29   C65   S    
C76   H38   S    
C73   H29   S    
N2    C26   S    
C9    C10   A    
C45   O17   S    
C86   H67   S    
C75   H36   S    
C66   H12   S    
O38   C83   S    
C8    C9    A    
C80   H50   S    
C82   H58   S    
O23   V3    S    
V2    O10   S    
C70   H22   S    
C79   C80   S    
