data_mof_unit_7144.cif
_audit_creation_date              2012-12-11T15:24:37-0500
_audit_creation_method            fapswitch 2.2
_symmetry_space_group_name_H-M    P1
_symmetry_Int_Tables_number       1
_space_group_crystal_system       triclinic
_cell_length_a                    23.055371
_cell_length_b                    6.94752
_cell_length_c                    20.831358
_cell_angle_alpha                 89.980834
_cell_angle_beta                  92.85672
_cell_angle_gamma                 89.96572
_cell_volume                      3332.57060016

loop_
_atom_site_label
_atom_site_type_symbol
_atom_type_description
_atom_site_fract_x
_atom_site_fract_y
_atom_site_fract_z
_atom_type_partial_charge
O1    O     O_R   0.188030 0.379840 0.189340 -0.545397
O2    O     O_R   0.811970 0.620160 0.810660 -0.535981
O3    O     O_R   0.311970 0.879840 0.310660 -0.537803
O4    O     O_R   0.688030 0.120160 0.689340 -0.536237
O5    O     O_R   0.307090 0.708420 0.185790 -0.534569
O6    O     O_R   0.692910 0.291580 0.814210 -0.539374
O7    O     O_R   0.192910 0.208420 0.314210 -0.540718
O8    O     O_R   0.807090 0.791580 0.685790 -0.539411
C1    C     C_R   0.326410 0.540663 0.170392 0.761536
C2    C     C_R   0.673600 0.459338 0.829620 0.747246
C3    C     C_R   0.173609 0.040691 0.329630 0.741908
C4    C     C_R   0.826415 0.959299 0.670397 0.747051
O9    O     O_R   0.188180 0.709480 0.181650 -0.512496
O10   O     O_R   0.811820 0.290520 0.818350 -0.529317
O11   O     O_R   0.311820 0.209480 0.318350 -0.529959
O12   O     O_R   0.688180 0.790520 0.681650 -0.529223
O13   O     O_R   0.192210 0.880960 0.306500 -0.539361
O14   O     O_R   0.807790 0.119040 0.693500 -0.535634
O15   O     O_R   0.307790 0.380960 0.193500 -0.537746
O16   O     O_R   0.692210 0.619040 0.806500 -0.535689
C5    C     C_R   0.167096 0.540460 0.166373 0.755943
C6    C     C_R   0.832516 0.459747 0.834232 0.701705
C7    C     C_R   0.332477 0.040093 0.334203 0.699242
C8    C     C_R   0.667523 0.959907 0.665797 0.702186
O17   O     O_3   0.251460 0.546730 0.290970 -0.372525
O18   O     O_3   0.748540 0.453270 0.709030 -0.366897
O19   O     O_3   0.248540 0.046730 0.209030 -0.363835
O20   O     O_3   0.751460 0.953270 0.790970 -0.366971
V1    V     V_3+5 0.249730 0.821120 0.242400 1.548131
V2    V     V_3+5 0.750270 0.178880 0.757600 1.524782
V3    V     V_3+5 0.250270 0.321120 0.257600 1.523133
V4    V     V_3+5 0.749730 0.678880 0.742400 1.524810
C9    C     C_R   0.575645 0.118829 0.619957 -0.105671
C10   C     C_R   0.424354 0.881170 0.380044 -0.105273
C11   C     C_R   0.924480 0.617897 0.880305 -0.108166
C12   C     C_R   0.074010 0.384344 0.122220 -0.132115
C13   C     C_R   0.618371 0.973005 0.616148 -0.202878
C14   C     C_R   0.381628 0.026995 0.383853 -0.202250
C15   C     C_R   0.881693 0.472312 0.883992 -0.201153
C16   C     C_R   0.116951 0.528848 0.118039 -0.151903
C17   C     C_R   0.613840 0.838647 0.564864 0.306247
C18   C     C_R   0.386159 0.161353 0.435138 0.306254
C19   C     C_R   0.886118 0.337890 0.935352 0.306924
C20   C     C_R   0.113485 0.659087 0.066131 0.300042
C21   C     C_R   0.564476 0.839895 0.521027 0.025690
C22   C     C_R   0.435523 0.160104 0.478975 0.025555
C23   C     C_R   0.935294 0.339295 0.979517 0.023035
C24   C     C_R   0.064520 0.657706 0.021421 -0.029810
C25   C     C_R   0.523697 0.993375 0.523318 0.017876
C26   C     C_R   0.476302 0.006623 0.476684 0.017723
C27   C     C_R   0.976209 0.492153 0.977136 0.018594
C28   C     C_R   0.023426 0.505446 0.023983 0.042751
C29   C     C_R   0.530134 0.134132 0.572085 0.063726
C30   C     C_R   0.469864 0.865866 0.427918 0.063765
C31   C     C_R   0.969918 0.632910 0.928303 0.057485
C32   C     C_R   0.029058 0.367170 0.073700 0.072710
C33   C     C_R   0.555164 0.695217 0.473492 -0.055983
C34   C     C_R   0.444835 0.304782 0.526510 -0.055818
C35   C     C_R   0.944163 0.195838 0.027637 -0.057191
C36   C     C_R   0.054607 0.804649 0.974807 -0.067103
C37   C     C_R   0.509103 0.710779 0.427941 -0.226160
C38   C     C_R   0.490895 0.289219 0.572061 -0.226510
C39   C     C_R   0.989654 0.212808 0.073888 -0.219388
C40   C     C_R   0.008849 0.788876 0.928843 -0.196863
H1    H     H_    0.503690 0.596767 0.392640 0.139907
H2    H     H_    0.496309 0.403231 0.607362 0.139731
H3    H     H_    0.994577 0.100391 0.109852 0.140698
H4    H     H_    0.003058 0.904239 0.894057 0.139269
C41   C     C_3   0.049742 0.044396 0.532117 -0.134832
C42   C     C_3   0.950303 0.955576 0.467932 -0.135039
C43   C     C_3   0.450277 0.544483 0.967933 -0.134235
C44   C     C_3   0.549756 0.455514 0.032101 -0.135029
C45   C     C_3   0.013336 0.861382 0.544648 -0.256061
C46   C     C_3   0.986708 0.138590 0.455401 -0.255485
C47   C     C_3   0.486742 0.361485 0.955400 -0.256423
C48   C     C_3   0.513291 0.638511 0.044635 -0.256192
H5    H     H_    0.024567 0.749196 0.581066 0.162022
H6    H     H_    0.975478 0.250773 0.418982 0.162400
H7    H     H_    0.475546 0.249384 0.918983 0.162154
H8    H     H_    0.524486 0.750614 0.081051 0.162313
C49   C     C_1   0.871833 0.968637 0.624798 -0.140998
C50   C     C_1   0.128207 0.031340 0.375248 -0.138786
C51   C     C_1   0.628189 0.468747 0.875223 -0.140976
C52   C     C_1   0.371833 0.531251 0.124800 -0.138007
C53   C     C_3   0.994082 0.166605 0.529136 0.379339
C54   C     C_3   0.005963 0.833367 0.470913 0.379353
C55   C     C_3   0.505894 0.666667 0.970900 0.379443
C56   C     C_3   0.494138 0.333322 0.029134 0.379460
C57   C     C_3   0.957346 0.987017 0.541288 0.043646
C58   C     C_3   0.042699 0.012955 0.458762 0.043486
C59   C     C_3   0.542688 0.487102 0.958745 0.043670
C60   C     C_3   0.457344 0.512894 0.041289 0.043556
C61   C     C_1   0.910233 0.976808 0.587063 0.054346
C62   C     C_1   0.089811 0.023165 0.412988 0.054515
C63   C     C_1   0.589794 0.476931 0.912963 0.054328
C64   C     C_1   0.410234 0.523066 0.087067 0.054104
C65   C     C_1   0.576943 0.249470 0.674451 0.350271
N1    N     N_1   0.577569 0.354069 0.717696 -0.364886
C66   C     C_1   0.423058 0.750532 0.325550 0.349466
N2    N     N_1   0.422433 0.645934 0.282306 -0.367409
C67   C     C_1   0.923277 0.748761 0.825853 0.348670
N3    N     N_1   0.922712 0.853526 0.782631 -0.364546
C68   C     C_1   0.074888 0.256520 0.177418 0.340755
N4    N     N_1   0.075183 0.154183 0.221265 -0.365273
O21   O     O_3   0.658324 0.710162 0.555334 -0.630303
H9    H     H_    0.695832 0.775791 0.565367 0.291475
O22   O     O_3   0.341675 0.289838 0.444668 -0.630402
H10   H     H_    0.304167 0.224212 0.434632 0.291449
O23   O     O_3   0.841635 0.209441 0.944719 -0.630492
H11   H     H_    0.804135 0.275171 0.934581 0.291313
O24   O     O_3   0.160377 0.778134 0.058161 -0.630095
H12   H     H_    0.170749 0.765785 0.012716 0.298943
C69   C     C_1   0.590090 0.522534 0.470649 0.427439
N5    N     N_1   0.617765 0.383895 0.468202 -0.315526
C70   C     C_1   0.409910 0.477467 0.529353 0.427083
N6    N     N_1   0.382235 0.616108 0.531798 -0.316060
C71   C     C_1   0.909274 0.023238 0.030517 0.428407
N7    N     N_1   0.881636 0.884626 0.032982 -0.315688
C72   C     C_1   0.087465 0.982061 0.974685 0.352180
N8    N     N_1   0.113582 0.124275 0.974383 -0.324368
C73   C     C_1   0.103945 0.096772 0.567683 0.350036
N9    N     N_1   0.146709 0.138167 0.595706 -0.306087
C74   C     C_1   0.896100 0.903201 0.432364 0.350788
N10   N     N_1   0.853337 0.861808 0.404339 -0.304579
C75   C     C_1   0.396050 0.596939 0.932375 0.352030
N11   N     N_1   0.353269 0.638396 0.904359 -0.309909
C76   C     C_1   0.603984 0.403060 0.067656 0.350694
N12   N     N_1   0.646767 0.361604 0.095670 -0.304620
O25   O     O_3   0.012522 0.658336 0.439067 -0.636800
H13   H     H_    0.978271 0.580826 0.449701 0.294445
O26   O     O_3   0.987523 0.341639 0.560980 -0.636704
H14   H     H_    0.021773 0.419150 0.550343 0.294355
O27   O     O_3   0.487649 0.158226 0.060984 -0.636642
H15   H     H_    0.521909 0.080700 0.050311 0.294490
O28   O     O_3   0.512382 0.841770 0.939050 -0.636696
H16   H     H_    0.478130 0.919312 0.949736 0.294443

loop_
_geom_bond_atom_site_label_1
_geom_bond_atom_site_label_2
_ccdc_geom_bond_type
C34   C38   A    
O1    C5    A    
C67   N3    T    
C50   C62   T    
C55   C59   S    
O19   V1    S    
O13   V1    S    
O3    C7    A    
O24   H12   S    
O1    V3    S    
C44   C48   S    
O15   V3    S    
C65   N1    T    
O28   H16   S    
O18   V4    S    
C21   C33   A    
O5    C1    A    
C26   C30   A    
C17   O21   S    
C12   C68   S    
C40   H4    S    
O9    V1    S    
C56   O27   S    
C14   C18   A    
C13   C17   A    
C18   C22   A    
C11   C15   A    
O4    C8    A    
C70   N6    T    
C2    C51   S    
C60   C64   S    
C36   C72   S    
O2    V4    S    
C52   C64   T    
C33   C37   A    
O3    V1    S    
C12   C16   A    
C28   C32   A    
C42   C74   S    
C1    O15   A    
C43   C60   S    
C56   C60   S    
C2    O16   A    
O2    C6    A    
O22   H10   S    
C24   C36   A    
O14   V2    S    
C21   C25   A    
C18   O22   S    
C16   C20   A    
C27   C31   A    
C47   C59   S    
O11   C7    A    
C75   N11   T    
O12   C8    A    
C22   C34   A    
O17   V1    S    
O10   V2    S    
O20   V4    S    
C44   C56   S    
C58   C62   S    
O5    V1    S    
C3    C50   S    
C9    C29   A    
C39   H3    S    
C23   C35   A    
O7    V3    S    
C38   H2    S    
C44   C76   S    
C11   C31   A    
C27   C28   A    
O8    V4    S    
C55   O28   S    
C74   N10   T    
C54   C58   S    
C44   C59   S    
C53   C57   S    
C33   C69   S    
O19   V3    S    
C9    C13   A    
O7    C3    A    
C42   C46   S    
C12   C32   A    
C49   C61   T    
C29   C38   A    
C66   N2    T    
C41   C73   S    
O8    C4    A    
C51   C63   T    
C31   C40   A    
C8    C13   S    
C32   C39   A    
O9    C5    A    
C41   C45   S    
C48   C55   S    
C73   N9    T    
C48   C60   S    
C43   C55   S    
O6    V2    S    
C10   C30   A    
O27   H15   S    
C42   C57   S    
C41   C58   S    
C42   C54   S    
C41   C53   S    
C69   N5    T    
O16   V4    S    
C3    O13   A    
C17   C21   A    
C10   C14   A    
O17   V3    S    
C48   H8    S    
C11   C67   S    
O6    C2    A    
C23   C27   A    
C72   N8    T    
C54   O25   S    
O11   V3    S    
C76   N12   T    
C30   C37   A    
O12   V4    S    
C7    C14   S    
C10   C66   S    
O21   H9    S    
C22   C26   A    
C35   C39   A    
C36   C40   A    
O10   C6    A    
O20   V2    S    
O25   H13   S    
C45   C57   S    
C71   N7    T    
C53   O26   S    
C43   C47   S    
C46   C58   S    
C34   C70   S    
C5    C16   S    
C47   H7    S    
C25   C29   A    
C6    C15   S    
C4    C49   S    
C9    C65   S    
C46   C53   S    
C57   C61   S    
O26   H14   S    
C45   C54   S    
C1    C52   S    
C59   C63   S    
C20   O24   S    
C37   H1    S    
C47   C56   S    
C24   C28   A    
C15   C19   A    
C35   C71   S    
C25   C26   A    
C46   H6    S    
C4    O14   A    
C68   N4    T    
C45   H5    S    
C43   C75   S    
C19   O23   S    
O23   H11   S    
C19   C23   A    
O4    V2    S    
C20   C24   A    
O18   V2    S    
