data_mof_unit_41167.cif
_audit_creation_date              2012-12-11T14:17:44-0500
_audit_creation_method            fapswitch 2.2
_symmetry_space_group_name_H-M    P1
_symmetry_Int_Tables_number       1
_space_group_crystal_system       triclinic
_cell_length_a                    6.944791
_cell_length_b                    13.715935
_cell_length_c                    20.427364
_cell_angle_alpha                 101.708408
_cell_angle_beta                  89.671826
_cell_angle_gamma                 90.604585
_cell_volume                      1905.18938507

loop_
_atom_site_label
_atom_site_type_symbol
_atom_type_description
_atom_site_fract_x
_atom_site_fract_y
_atom_site_fract_z
_atom_type_partial_charge
O1    O     O_R   0.506860 0.599390 0.449240 -0.546300
O2    O     O_R   0.180220 0.594600 0.586780 -0.539230
O3    O     O_R   0.004500 0.400610 0.550760 -0.537514
C1    C     C_R   0.347217 0.613308 0.613502 0.762745
O4    O     O_R   0.177490 0.611290 0.451970 -0.535123
O5    O     O_R   0.001750 0.417420 0.414990 -0.533017
C2    C     C_R   0.346411 0.636648 0.434268 0.762778
O6    O     O_R   0.509610 0.582580 0.585010 -0.540058
O7    O     O_3   0.337420 0.436370 0.488020 -0.363420
V1    V     V_3+5 0.064680 0.511800 0.502220 1.551771
O8    O     O_R   0.671710 0.405400 0.413220 -0.536034
C3    C     C_R   0.839945 0.388053 0.385456 0.675764
O9    O     O_R   0.674440 0.388710 0.548030 -0.540020
C4    C     C_R   0.841736 0.362287 0.564986 0.733792
V2    V     V_3+5 0.564010 0.488200 0.497780 1.545702
O10   O     O_3   0.841140 0.563630 0.511980 -0.375310
C5    C     C_R   0.735223 0.120191 0.616121 0.381886
H1    H     H_    0.739547 0.171083 0.523605 0.164179
H2    H     H_    0.624771 0.014057 0.708877 0.158279
C6    C     C_R   0.840655 0.284859 0.604797 -0.126393
C7    C     C_R   0.950247 0.308828 0.924953 -0.163152
C8    C     C_R   0.984110 0.381180 0.887486 -0.100104
C9    C     C_R   0.946022 0.361455 0.819190 -0.127134
C10   C     C_R   0.867131 0.268631 0.786652 0.097635
C11   C     C_R   0.820183 0.197487 0.826530 0.065192
C12   C     C_R   0.837018 0.243319 0.715861 0.043251
C13   C     C_R   0.759178 0.147718 0.686573 0.019263
C14   C     C_R   0.698516 0.083693 0.728277 -0.160260
C15   C     C_R   0.728912 0.107997 0.796661 -0.163439
C16   C     C_R   0.878873 0.310354 0.673201 -0.198513
C17   C     C_R   0.769543 0.190367 0.576722 -0.118133
C18   C     C_R   0.869455 0.216707 0.895334 -0.092094
H3    H     H_    0.930841 0.385039 0.691817 0.134355
H4    H     H_    0.990588 0.324047 0.977248 0.117902
H5    H     H_    0.981950 0.420346 0.793471 0.144403
H6    H     H_    0.046243 0.452254 0.911161 0.139147
H7    H     H_    0.680351 0.054991 0.825885 0.156216
C19   C     C_2   0.992603 0.283030 0.284080 0.155470
C20   C     C_2   0.842038 0.337275 0.313535 0.180291
C21   C     C_2   0.990089 0.241347 0.211125 0.383209
C22   C     C_2   0.866027 0.166137 0.184394 -0.083125
C23   C     C_2   0.243481 0.812390 0.770427 0.044025
C24   C     C_2   0.378535 0.818425 0.818417 0.171619
C25   C     C_2   0.286788 0.761490 0.699830 0.363670
C26   C     C_2   0.343086 0.665224 0.683623 0.031459
C27   C     C_R   0.332577 0.885861 0.387011 0.266529
H8    H     H_    0.371791 0.832627 0.477870 0.171868
C28   C     C_R   0.353806 0.711823 0.392860 -0.134007
C29   C     C_R   0.435797 0.690776 0.073676 -0.263076
C30   C     C_R   0.500323 0.624812 0.111859 -0.084761
C31   C     C_R   0.493239 0.649894 0.181470 0.424112
C32   C     C_R   0.389491 0.735929 0.213770 -0.006796
C33   C     C_R   0.336940 0.806260 0.174785 -0.004680
C34   C     C_R   0.352635 0.758606 0.283985 -0.075941
C35   C     C_R   0.317287 0.859064 0.316219 0.012281
C36   C     C_R   0.259690 0.927078 0.276880 0.431307
C37   C     C_R   0.266771 0.899281 0.206944 -0.247659
C38   C     C_R   0.338357 0.684353 0.323029 0.100810
C39   C     C_R   0.359160 0.812033 0.423948 -0.238802
C40   C     C_R   0.364065 0.783713 0.104532 -0.061881
H9    H     H_    0.458795 0.673103 0.020055 0.134028
H10   H     H_    0.572767 0.557623 0.087312 0.152105
H11   H     H_    0.220775 0.952505 0.177884 0.129939
O11   O     O_R   0.203230 0.917310 0.915020 -0.526919
O12   O     O_R   0.535500 0.888690 0.048040 -0.538675
O13   O     O_R   0.711080 0.082610 0.085000 -0.517667
C41   C     C_R   0.366637 0.862081 0.064974 0.712607
O14   O     O_R   0.532630 0.905370 0.913230 -0.545317
O15   O     O_R   0.708190 0.099410 0.949230 -0.544991
C42   C     C_R   0.366122 0.884258 0.886379 0.670160
O16   O     O_R   0.206120 0.900510 0.050790 -0.546312
O17   O     O_3   0.375360 0.063570 0.011990 -0.366347
V3    V     V_3+5 0.648170 0.988200 0.997780 1.502184
O18   O     O_R   0.038240 0.111390 0.951940 -0.537566
C43   C     C_R   0.870606 0.137405 0.934427 0.702627
O19   O     O_R   0.041120 0.094710 0.086750 -0.547684
C44   C     C_R   0.872898 0.113834 0.113710 0.693513
V4    V     V_3+5 0.148810 0.011930 0.002180 1.495434
O20   O     O_3   0.871750 0.936430 0.988010 -0.366983
O21   O     O_3   0.687882 0.349581 0.273236 -0.598997
H12   H     H_    0.601857 0.401504 0.298057 0.342101
O22   O     O_3   0.119474 0.283355 0.172806 -0.599852
H13   H     H_    0.070039 0.274959 0.126609 0.287283
I1    I     I_    0.679597 0.097532 0.245456 -0.319879
I2    I     I_    0.973845 0.884113 0.785360 -0.407303
O23   O     O_3   0.551309 0.770857 0.799531 -0.616310
H14   H     H_    0.619401 0.759760 0.839842 0.327744
O24   O     O_3   0.265443 0.813111 0.648738 -0.652149
H15   H     H_    0.239092 0.883757 0.668843 0.311653
I3    I     I_    0.341592 0.566576 0.752097 -0.443601
O25   O     O_3   0.181689 0.017158 0.306869 -0.598663
H16   H     H_    0.133592 0.051462 0.272006 0.313781
I4    I     I_    0.336130 0.034081 0.444674 -0.241122
I5    I     I_    0.231323 0.537720 0.280698 -0.308409
O26   O     O_3   0.606811 0.594713 0.215317 -0.615372
H17   H     H_    0.650918 0.638389 0.257368 0.300992
O27   O     O_3   0.673996 0.026839 0.583896 -0.622327
H18   H     H_    0.727251 0.976997 0.607552 0.302482
I6    I     I_    0.252552 0.261809 0.333838 -0.211120

loop_
_geom_bond_atom_site_label_1
_geom_bond_atom_site_label_2
_ccdc_geom_bond_type
C35   C36   A    
C27   C39   A    
O26   H17   S    
C1    O6    A    
C18   C43   S    
O27   H18   S    
C6    C16   A    
C25   C26   D    
C12   C13   A    
C29   C40   A    
C14   C15   A    
C10   C12   A    
C22   C44   S    
C19   C20   D    
O21   H12   S    
V2    O10   S    
O12   V3    S    
C36   C37   A    
O17   V4    S    
O8    V2    S    
C36   O25   S    
C40   C41   S    
O12   C41   A    
C27   C35   A    
C9    C10   A    
O15   V3    S    
O1    V2    S    
O11   C42   A    
O7    V1    S    
C11   C18   A    
O1    C2    A    
C7    C8    A    
C23   C25   S    
O5    C3    A    
C33   C40   A    
C32   C34   A    
C37   H11   S    
C1    C26   S    
C11   C15   A    
C7    C18   A    
C29   H9    S    
O18   C43   A    
C31   C32   A    
C5    C13   A    
C21   O22   S    
C10   C11   A    
O25   H16   S    
O4    C2    A    
C33   C37   A    
O23   H14   S    
C19   I6    S    
C7    H4    S    
O14   V3    S    
O13   V3    S    
O22   H13   S    
O2    C1    A    
C26   I3    S    
C4    C6    S    
C30   C31   A    
V3    O20   S    
C23   I2    S    
O19   C44   A    
H2    C14   S    
O3    C4    A    
C21   C22   D    
C12   C16   A    
O6    V2    S    
C9    H5    S    
O9    V2    S    
C5    C17   A    
C23   C24   D    
O2    V1    S    
C32   C33   A    
C28   C39   A    
C34   C38   A    
O13   C44   A    
C34   C35   A    
C16   H3    S    
V4    O20   S    
C24   O23   S    
O11   V4    S    
O19   V4    S    
O17   V3    S    
O5    V1    S    
O8    C3    A    
C28   C38   A    
C24   C42   S    
C8    H6    S    
C20   O21   S    
C3    C20   S    
C38   I5    S    
O4    V1    S    
O3    V1    S    
V1    O10   S    
C2    C28   S    
C19   C21   S    
C22   I1    S    
C27   I4    S    
C30   H10   S    
O15   C43   A    
C41   O16   A    
O7    V2    S    
C25   O24   S    
H8    C39   S    
O24   H15   S    
O14   C42   A    
C29   C30   A    
O18   V4    S    
C15   H7    S    
C13   C14   A    
C8    C9    A    
H1    C17   S    
O9    C4    A    
C5    O27   S    
O16   V4    S    
C31   O26   S    
C6    C17   A    
