data_mof_unit_37514.cif
_audit_creation_date              2012-12-10T16:47:59-0500
_audit_creation_method            fapswitch 2.2
_symmetry_space_group_name_H-M    P1
_symmetry_Int_Tables_number       1
_space_group_crystal_system       triclinic
_cell_length_a                    7.784301
_cell_length_b                    8.549383
_cell_length_c                    10.715653
_cell_angle_alpha                 91.220792
_cell_angle_beta                  85.369359
_cell_angle_gamma                 93.446902
_cell_volume                      709.42642436

loop_
_atom_site_label
_atom_site_type_symbol
_atom_type_description
_atom_site_fract_x
_atom_site_fract_y
_atom_site_fract_z
_atom_type_partial_charge
C1    C     C_R   0.544972 0.794454 0.494572 0.953140
C2    C     C_2   0.564594 0.958323 0.498476 -0.458480
C3    C     C_R   0.301770 0.986215 0.381025 0.157391
C4    C     C_R   0.125777 0.009799 0.410277 -0.141825
C5    C     C_R   0.003780 0.958141 0.327268 -0.138900
C6    C     C_R   0.055475 0.880931 0.215595 -0.108521
C7    C     C_R   0.229896 0.856951 0.185602 -0.134450
C8    C     C_R   0.352730 0.910308 0.267215 -0.113604
C9    C     C_2   0.435001 0.043217 0.467320 -0.173877
C10   C     C_R   0.502051 0.503823 0.737155 0.935241
C11   C     C_R   0.454538 0.205307 0.495533 0.914072
C12   C     C_R   0.498262 0.496099 0.262626 0.920042
C13   C     C_2   0.642457 0.481382 0.058104 -0.165347
C14   C     C_2   0.494443 0.480813 0.130793 -0.337981
C15   C     C_2   0.641658 0.472601 0.923963 -0.169212
C16   C     C_2   0.506840 0.518948 0.868564 -0.331672
H1    H     H_    0.767566 0.487137 0.096766 0.174259
H2    H     H_    0.960389 0.840270 0.152107 0.125351
H3    H     H_    0.270133 0.797647 0.098830 0.123277
H4    H     H_    0.487725 0.892323 0.241769 0.107125
H5    H     H_    0.368175 0.464697 0.094909 0.149633
H6    H     H_    0.754199 0.428989 0.870725 0.172653
H7    H     H_    0.397580 0.571271 0.918892 0.141921
H8    H     H_    0.675032 0.008320 0.544924 0.162292
H9    H     H_    0.013468 0.381094 0.406437 0.189538
H10   H     H_    0.986549 0.619048 0.593427 0.191575
H11   H     H_    0.082599 0.066934 0.497345 0.138857
H12   H     H_    0.869001 0.978138 0.349125 0.146063
N1    N     N_2   0.950320 0.457950 0.466680 -0.175586
N2    N     N_2   0.049680 0.542050 0.533320 -0.169560
O1    O     O_R   0.389250 0.738570 0.508180 -0.592105
O2    O     O_R   0.678390 0.711630 0.486820 -0.628143
O3    O     O_R   0.355470 0.513470 0.691600 -0.622100
O4    O     O_R   0.644610 0.486520 0.670240 -0.623975
O5    O     O_R   0.321610 0.288370 0.513180 -0.634571
O6    O     O_R   0.610750 0.261430 0.491820 -0.620597
O7    O     O_R   0.355390 0.513480 0.329760 -0.621291
O8    O     O_R   0.644530 0.486530 0.308400 -0.619185
Zn1   Zn    Zn3+2 0.306940 0.517990 0.514260 0.946150
Zn2   Zn    Zn3+2 0.693060 0.482010 0.485740 0.932402

loop_
_geom_bond_atom_site_label_1
_geom_bond_atom_site_label_2
_ccdc_geom_bond_type
O5    Zn1   S    
C6    C7    A    
C3    C9    S    
C10   O3    A    
C5    H12   S    
C13   C15   S    
C13   H1    S    
C11   O5    A    
C7    C8    A    
O7    Zn1   S    
C8    H4    S    
C13   C14   D    
O8    Zn2   S    
C9    C11   S    
O3    Zn1   S    
O4    Zn2   S    
C1    C2    S    
N1    Zn2   S    
C11   O6    A    
C15   H6    S    
O1    Zn1   S    
N2    Zn1   S    
H10   N2    S    
C16   H7    S    
C7    H3    S    
O2    Zn2   S    
C2    H8    S    
C5    C6    A    
C6    H2    S    
N1    N2    D    
C15   C16   D    
C12   O8    A    
C1    O1    A    
C4    H11   S    
C14   H5    S    
H9    N1    S    
C10   O4    A    
C3    C8    A    
C12   O7    A    
O6    Zn2   S    
C10   C16   S    
C2    C9    D    
C1    O2    A    
C3    C4    A    
C12   C14   S    
C4    C5    A    
