data_mof_unit_49498.cif
_audit_creation_date              2012-12-10T20:47:10-0500
_audit_creation_method            fapswitch 2.2
_symmetry_space_group_name_H-M    P1
_symmetry_Int_Tables_number       1
_space_group_crystal_system       triclinic
_cell_length_a                    10.590463
_cell_length_b                    8.935469
_cell_length_c                    8.120363
_cell_angle_alpha                 89.964998
_cell_angle_beta                  90.001572
_cell_angle_gamma                 90.000256
_cell_volume                      768.435928394

loop_
_atom_site_label
_atom_site_type_symbol
_atom_type_description
_atom_site_fract_x
_atom_site_fract_y
_atom_site_fract_z
_atom_type_partial_charge
C1    C     C_R   0.500001 0.218022 0.500018 0.929749
C2    C     C_R   0.066339 0.423657 0.670613 -0.011040
C3    C     C_R   0.130258 0.424211 0.516179 -0.098835
C4    C     C_R   0.869754 0.424255 0.516187 -0.098834
C5    C     C_R   0.065349 0.382143 0.374329 -0.190300
C6    C     C_R   0.934646 0.382165 0.374333 -0.190292
C7    C     C_1   0.500001 0.065202 0.500063 -0.120777
C8    C     C_1   0.500000 0.934805 0.499963 -0.160408
C9    C     C_R   0.500000 0.781940 0.499949 0.944884
C10   C     C_R   0.260868 0.474743 0.502521 0.878536
C11   C     C_R   0.739145 0.474785 0.502525 0.878501
C12   C     C_R   0.128002 0.430408 0.826137 0.417459
C13   C     C_R   0.872041 0.430492 0.826154 0.417423
C14   C     C_R   0.065445 0.495738 0.958272 -0.260010
C15   C     C_R   0.934646 0.495780 0.958281 -0.260021
C16   C     C_R   0.933683 0.423693 0.670620 -0.011060
Cl1   Cl    Cl    0.250645 0.304871 0.878129 -0.588211
Cl2   Cl    Cl    0.749399 0.304968 0.878198 -0.588197
H1    H     H_    0.115922 0.355847 0.262683 0.189396
H2    H     H_    0.884064 0.355886 0.262690 0.189430
H3    H     H_    0.116416 0.525482 0.068524 0.184556
H4    H     H_    0.883711 0.525547 0.068546 0.184554
N1    N     N_1   0.500000 0.500000 0.073640 0.017592
N2    N     N_1   0.500000 0.500000 0.926360 0.052582
O1    O     O_R   0.500000 0.285350 0.636850 -0.548285
O2    O     O_R   0.500000 0.714650 0.636850 -0.610673
O3    O     O_R   0.500000 0.285360 0.363100 -0.614750
O4    O     O_R   0.500000 0.714640 0.363100 -0.612787
O5    O     O_R   0.316770 0.500000 0.636900 -0.595276
O6    O     O_R   0.683230 0.500000 0.636900 -0.595254
O7    O     O_R   0.316780 0.500000 0.363150 -0.623326
O8    O     O_R   0.683220 0.500000 0.363150 -0.623301
Zn1   Zn    Zn3+2 0.500000 0.500000 0.682780 1.080658
Zn2   Zn    Zn3+2 0.500000 0.500000 0.317220 1.036317

loop_
_geom_bond_atom_site_label_1
_geom_bond_atom_site_label_2
_ccdc_geom_bond_type
C12   Cl1   S    
C4    C16   A    
N1    N2    T    
C5    H1    S    
C6    H2    S    
O2    Zn1   S    
N2    Zn1   S    
N1    Zn2   S    
C2    C12   A    
C2    C3    A    
O7    Zn2   S    
O4    Zn2   S    
C7    C8    T    
C3    C10   S    
C4    C11   S    
C1    O1    A    
C10   O5    A    
C13   Cl2   S    
C14   H3    S    
C12   C14   A    
C9    O2    A    
C13   C15   A    
O3    Zn2   S    
C5    C6    A    
O5    Zn1   S    
C2    C16   A    
C11   O6    A    
C4    C6    A    
C13   C16   A    
C1    O3    A    
C14   C15   A    
O6    Zn1   S    
C3    C5    A    
C1    C7    S    
C10   O7    A    
C15   H4    S    
C9    O4    A    
O1    Zn1   S    
C8    C9    S    
C11   O8    A    
O8    Zn2   S    
