data_mof_unit_56179.cif
_audit_creation_date              2012-12-10T17:02:03-0500
_audit_creation_method            fapswitch 2.2
_symmetry_space_group_name_H-M    P1
_symmetry_Int_Tables_number       1
_space_group_crystal_system       triclinic
_cell_length_a                    10.772108
_cell_length_b                    11.048696
_cell_length_c                    9.825412
_cell_angle_alpha                 110.815076
_cell_angle_beta                  98.155026
_cell_angle_gamma                 91.039595
_cell_volume                      1079.04744583

loop_
_atom_site_label
_atom_site_type_symbol
_atom_type_description
_atom_site_fract_x
_atom_site_fract_y
_atom_site_fract_z
_atom_type_partial_charge
C1    C     C_R   0.488449 0.254487 0.441121 0.871950
C2    C     C_R   0.081169 0.621085 0.604294 0.094702
C3    C     C_R   0.129694 0.512056 0.505589 -0.093901
C4    C     C_R   0.049675 0.409868 0.402398 -0.201328
C5    C     C_R   0.921384 0.410994 0.399714 -0.202007
C6    C     C_R   0.871302 0.514319 0.500272 -0.097183
C7    C     C_2   0.471160 0.116149 0.408129 -0.364791
C8    C     C_2   0.477439 0.069874 0.516978 -0.212702
C9    C     C_2   0.505260 0.884441 0.589349 -0.355885
C10   C     C_2   0.456497 0.931014 0.486051 0.199775
C11   C     C_2   0.510456 0.510719 0.081243 -0.060280
C12   C     C_R   0.262856 0.503832 0.502108 0.785872
C13   C     C_2   0.488861 0.490036 0.918978 -0.072203
C14   C     C_R   0.504933 0.745571 0.558685 0.858158
C15   C     C_R   0.737455 0.504809 0.499922 0.786356
C16   C     C_R   0.159543 0.730548 0.701615 -0.172019
C17   C     C_R   0.108570 0.837578 0.795563 -0.138480
C18   C     C_R   0.979168 0.838724 0.792863 -0.139251
C19   C     C_R   0.899918 0.732840 0.696199 -0.179299
C20   C     C_R   0.949593 0.622255 0.601493 0.096904
Cu1   Cu    Cu3+1 0.521920 0.521810 0.644910 0.932604
Cu2   Cu    Cu3+1 0.478080 0.478190 0.355090 0.949943
H1    H     H_    0.087111 0.327509 0.325183 0.145950
H2    H     H_    0.449986 0.052773 0.293166 0.147022
H3    H     H_    0.415282 0.418503 0.846468 0.161363
H4    H     H_    0.583339 0.583011 0.153954 0.161335
H5    H     H_    0.624771 0.621185 0.933791 0.192691
H6    H     H_    0.376460 0.377464 0.065854 0.189994
H7    H     H_    0.260193 0.735978 0.704647 0.150182
H8    H     H_    0.169657 0.920675 0.869476 0.130971
H9    H     H_    0.939853 0.922730 0.864645 0.131555
H10   H     H_    0.799825 0.740014 0.694663 0.141939
H11   H     H_    0.860999 0.329102 0.321428 0.149149
H12   H     H_    0.502214 0.134672 0.631420 0.170062
H13   H     H_    0.552021 0.949917 0.696667 0.113354
N1    N     N_2   0.445130 0.445430 0.137370 -0.283257
N2    N     N_2   0.554930 0.554500 0.862630 -0.286126
O1    O     O_R   0.511700 0.332330 0.577400 -0.572824
O2    O     O_R   0.474680 0.295500 0.332650 -0.581220
O3    O     O_R   0.338160 0.518420 0.622400 -0.586109
O4    O     O_R   0.301140 0.481590 0.377650 -0.565644
O5    O     O_R   0.525320 0.704500 0.667350 -0.600231
O6    O     O_R   0.488300 0.667670 0.422600 -0.538084
O7    O     O_R   0.698860 0.518410 0.622350 -0.572923
O8    O     O_R   0.661840 0.481580 0.377600 -0.579062
N3    N     N_3   0.384006 0.847348 0.348570 -0.539125
H14   H     H_    0.433879 0.841179 0.262827 0.215314
H15   H     H_    0.299010 0.888088 0.331756 0.216788

loop_
_geom_bond_atom_site_label_1
_geom_bond_atom_site_label_2
_ccdc_geom_bond_type
C12   O3    A    
C9    C14   S    
C10   N3    S    
C12   O4    A    
C18   H9    S    
C7    H2    S    
Cu1   O7    S    
C2    C16   A    
C9    C10   D    
C13   N2    D    
C19   C20   A    
C14   O5    A    
C2    C3    A    
C6    C15   S    
C7    C8    D    
C8    H12   S    
Cu1   Cu2   S    
C17   H8    S    
C11   C13   S    
C13   H3    S    
C16   C17   A    
Cu1   O3    S    
C6    C20   A    
H5    N2    S    
C19   H10   S    
C1    O1    A    
C11   N1    D    
C15   O7    A    
C17   C18   A    
C5    C6    A    
N3    H15   S    
Cu2   O4    S    
C15   O8    A    
C2    C20   A    
Cu1   O5    S    
Cu2   O8    S    
Cu1   N2    S    
H6    N1    S    
C8    C10   S    
C18   C19   A    
C9    H13   S    
C4    H1    S    
C1    O2    A    
N3    H14   S    
C14   O6    A    
C3    C12   S    
C11   H4    S    
C16   H7    S    
C1    C7    S    
Cu2   O2    S    
Cu2   O6    S    
Cu2   N1    S    
Cu1   O1    S    
C3    C4    A    
C4    C5    A    
C5    H11   S    
