data_mof_unit_30298.cif
_audit_creation_date              2012-12-10T18:35:24-0500
_audit_creation_method            fapswitch 2.2
_symmetry_space_group_name_H-M    P1
_symmetry_Int_Tables_number       1
_space_group_crystal_system       triclinic
_cell_length_a                    15.117808
_cell_length_b                    13.8151
_cell_length_c                    10.65249
_cell_angle_alpha                 89.979508
_cell_angle_beta                  90.01649
_cell_angle_gamma                 90.006926
_cell_volume                      2224.81520792

loop_
_atom_site_label
_atom_site_type_symbol
_atom_type_description
_atom_site_fract_x
_atom_site_fract_y
_atom_site_fract_z
_atom_type_partial_charge
C1    C     C_R   0.329692 0.499985 0.496809 0.894369
C2    C     C_R   0.670308 0.499995 0.503196 0.894396
C3    C     C_R   0.048085 0.499757 0.480871 -0.043028
C4    C     C_R   0.951917 0.499808 0.519142 -0.043072
C5    C     C_R   0.565764 0.107921 0.563746 -0.247161
C6    C     C_R   0.463152 0.892248 0.399823 -0.247375
C7    C     C_R   0.434240 0.107932 0.436239 -0.247132
C8    C     C_R   0.536856 0.892207 0.600157 -0.247472
C9    C     C_R   0.564129 0.209540 0.563341 0.146622
C10   C     C_R   0.462960 0.790633 0.402379 0.146736
C11   C     C_R   0.435870 0.209553 0.436659 0.146468
C12   C     C_R   0.537043 0.790595 0.597612 0.146443
C13   C     C_R   0.500004 0.054758 0.499989 0.116283
C14   C     C_R   0.500004 0.945400 0.499990 0.134854
C15   C     C_R   0.513754 0.500005 0.262157 0.875319
C16   C     C_R   0.486248 0.499964 0.737845 0.875281
C17   C     C_R   0.557077 0.677278 0.103076 0.410629
C18   C     C_R   0.443259 0.322389 0.896585 0.421676
C19   C     C_R   0.442477 0.677054 0.896717 0.410680
C20   C     C_R   0.557295 0.322640 0.103615 0.421654
C21   C     C_R   0.530059 0.764442 0.048867 -0.257796
C22   C     C_R   0.470198 0.235251 0.950914 -0.245341
C23   C     C_R   0.469259 0.764326 0.950809 -0.257465
C24   C     C_R   0.530666 0.235384 0.049362 -0.245023
C25   C     C_R   0.477473 0.588234 0.941886 -0.061787
C26   C     C_R   0.522474 0.411507 0.058210 -0.066781
C27   C     C_R   0.522315 0.588324 0.058027 -0.061710
C28   C     C_R   0.477792 0.411411 0.941887 -0.066748
C29   C     C_R   0.469742 0.499841 0.875559 -0.078483
C30   C     C_R   0.530272 0.499962 0.124447 -0.078461
C31   C     C_R   0.095554 0.586472 0.458134 0.421645
C32   C     C_R   0.904344 0.413099 0.541538 0.423608
C33   C     C_R   0.904473 0.586607 0.541302 0.421569
C34   C     C_R   0.095631 0.412990 0.459045 0.423533
C35   C     C_R   0.187251 0.587002 0.470532 -0.172092
C36   C     C_R   0.812654 0.412731 0.529084 -0.175475
C37   C     C_R   0.812778 0.587103 0.528895 -0.172126
C38   C     C_R   0.187318 0.412661 0.471519 -0.175595
C39   C     C_R   0.233181 0.499911 0.486231 -0.166359
C40   C     C_R   0.766819 0.499949 0.513787 -0.166330
Cu1   Cu    Cu3+1 0.500000 0.596430 0.500000 1.023477
Cu2   Cu    Cu3+1 0.500000 0.403570 0.500000 1.021337
H1    H     H_    0.555867 0.167311 0.084894 0.195028
H2    H     H_    0.443995 0.832395 0.915360 0.194708
H3    H     H_    0.445235 0.167063 0.915447 0.194896
H4    H     H_    0.555142 0.832607 0.084223 0.194568
H5    H     H_    0.222768 0.654556 0.459096 0.205936
H6    H     H_    0.777069 0.345175 0.540214 0.198652
H7    H     H_    0.777290 0.654715 0.539848 0.206170
H8    H     H_    0.222877 0.345076 0.460861 0.198918
H9    H     H_    0.619141 0.071814 0.612476 0.154060
H10   H     H_    0.435424 0.928350 0.318769 0.137399
H11   H     H_    0.380864 0.071831 0.387512 0.154085
H12   H     H_    0.564592 0.928273 0.681200 0.137457
H13   H     H_    0.614707 0.249125 0.613523 0.125986
H14   H     H_    0.433368 0.751355 0.325315 0.128429
H15   H     H_    0.385288 0.249151 0.386488 0.126085
H16   H     H_    0.566640 0.751290 0.674678 0.128509
N1    N     N_R   0.500000 0.258690 0.500000 -0.166180
N2    N     N_R   0.500000 0.741310 0.500000 -0.165098
O1    O     O_R   0.371460 0.581430 0.500010 -0.564940
O2    O     O_R   0.628540 0.418570 0.499990 -0.577001
O3    O     O_R   0.628540 0.581430 0.499990 -0.565080
O4    O     O_R   0.371460 0.418570 0.500010 -0.577151
O5    O     O_R   0.499990 0.581440 0.319660 -0.581835
O6    O     O_R   0.500010 0.418560 0.680340 -0.570294
O7    O     O_R   0.500010 0.581440 0.680340 -0.581934
O8    O     O_R   0.499990 0.418560 0.319660 -0.570400
Cl1   Cl    Cl    0.645185 0.682153 0.211763 -0.549049
Cl2   Cl    Cl    0.355418 0.317265 0.787454 -0.548937
Cl3   Cl    Cl    0.354381 0.681583 0.787983 -0.548920
Cl4   Cl    Cl    0.645107 0.317921 0.212827 -0.548888
Cl5   Cl    Cl    0.049171 0.684397 0.374269 -0.452954
Cl6   Cl    Cl    0.950504 0.315014 0.625355 -0.456569
Cl7   Cl    Cl    0.950881 0.684822 0.624513 -0.452913
Cl8   Cl    Cl    0.049457 0.314665 0.375777 -0.456510

loop_
_geom_bond_atom_site_label_1
_geom_bond_atom_site_label_2
_ccdc_geom_bond_type
C18   Cl2   S    
C17   Cl1   S    
Cu1   Cu2   S    
C35   C39   A    
Cu1   O1    S    
C35   H5    S    
Cu1   O7    S    
C7    C11   A    
C32   C36   A    
C28   C29   A    
C37   C40   A    
C32   Cl6   S    
C38   C39   A    
C31   Cl5   S    
C15   O5    A    
C19   Cl3   S    
C33   Cl7   S    
C20   C24   A    
C9    H13   S    
C10   H14   S    
Cu2   O2    S    
C5    C13   A    
C12   H16   S    
C34   C38   A    
C13   C14   S    
C27   C30   A    
Cu2   O8    S    
C11   N1    A    
C25   C29   A    
C17   C27   A    
C36   C40   A    
C18   C28   A    
C8    H12   S    
C19   C23   A    
Cu1   O5    S    
C3    C34   A    
C16   C29   S    
C33   C37   A    
C23   H2    S    
C9    N1    A    
C10   N2    A    
C5    C9    A    
C6    C14   A    
C37   H7    S    
C8    C12   A    
C16   O7    A    
C3    C31   A    
C4    C32   A    
C26   C30   A    
C21   C23   A    
C31   C35   A    
C16   O6    A    
C7    H11   S    
C3    C4    S    
C1    O4    A    
Cu2   O4    S    
C2    O3    A    
C15   C30   S    
C21   H4    S    
C4    C33   A    
C8    C14   A    
C18   C22   A    
C5    H9    S    
Cu1   N2    S    
C1    O1    A    
Cu2   N1    S    
C6    C10   A    
C38   H8    S    
C25   C27   A    
C26   C28   A    
C20   C26   A    
C15   O8    A    
C36   H6    S    
C22   C24   A    
C19   C25   A    
C17   C21   A    
C1    C39   S    
C12   N2    A    
C2    C40   S    
C7    C13   A    
C22   H3    S    
Cu2   O6    S    
C24   H1    S    
Cu1   O3    S    
C20   Cl4   S    
C6    H10   S    
C11   H15   S    
C2    O2    A    
C34   Cl8   S    
