data_mof_unit_26757.cif
_audit_creation_date              2012-12-10T17:17:53-0500
_audit_creation_method            fapswitch 2.2
_symmetry_space_group_name_H-M    P1
_symmetry_Int_Tables_number       1
_space_group_crystal_system       triclinic
_cell_length_a                    15.225492
_cell_length_b                    15.627428
_cell_length_c                    9.585629
_cell_angle_alpha                 90.000272
_cell_angle_beta                  90.076891
_cell_angle_gamma                 89.999768
_cell_volume                      2280.75726621

loop_
_atom_site_label
_atom_site_type_symbol
_atom_type_description
_atom_site_fract_x
_atom_site_fract_y
_atom_site_fract_z
_atom_type_partial_charge
C1    C     C_R   0.384506 0.877602 0.501364 0.809959
C2    C     C_R   0.384508 0.122400 0.501362 0.809969
C3    C     C_R   0.884506 0.377602 0.501364 0.809959
C4    C     C_R   0.884508 0.622400 0.501362 0.809969
C5    C     C_R   0.297785 0.237737 0.383409 -0.032870
C6    C     C_R   0.297783 0.762265 0.383420 -0.032883
C7    C     C_R   0.797785 0.737737 0.383409 -0.032870
C8    C     C_R   0.797783 0.262265 0.383420 -0.032883
C9    C     C_R   0.728425 0.794828 0.383165 -0.233457
C10   C     C_R   0.728423 0.205175 0.383177 -0.233434
C11   C     C_R   0.228425 0.294828 0.383165 -0.233457
C12   C     C_R   0.228423 0.705175 0.383177 -0.233434
C13   C     C_R   0.676906 0.806651 0.501909 -0.111408
C14   C     C_R   0.676913 0.193344 0.501928 -0.111409
C15   C     C_R   0.176906 0.306651 0.501909 -0.111408
C16   C     C_R   0.176913 0.693344 0.501928 -0.111409
C17   C     C_R   0.661756 0.000004 0.144328 -0.159485
C18   C     C_R   0.161756 0.500004 0.144328 -0.159485
C19   C     C_R   0.740700 0.000008 0.072280 -0.214942
C20   C     C_R   0.240700 0.500008 0.072280 -0.214942
C21   C     C_R   0.740691 0.000009 0.928671 -0.180058
C22   C     C_R   0.240691 0.500009 0.928671 -0.180058
C23   C     C_R   0.661740 0.000005 0.856328 -0.129916
C24   C     C_R   0.161740 0.500005 0.856328 -0.129916
C25   C     C_R   0.579498 0.000003 0.925384 0.201451
C26   C     C_R   0.079498 0.500003 0.925384 0.201451
C27   C     C_R   0.579486 0.000003 0.075011 0.215479
C28   C     C_R   0.079486 0.500003 0.075011 0.215479
C29   C     C_R   0.424193 0.999998 0.072753 0.077863
C30   C     C_R   0.924193 0.499998 0.072753 0.077863
C31   C     C_R   0.614094 0.122723 0.500368 0.783666
C32   C     C_R   0.614091 0.877275 0.500364 0.783661
C33   C     C_R   0.114094 0.622723 0.500368 0.783666
C34   C     C_R   0.114091 0.377275 0.500364 0.783661
C35   C     C_R   0.424593 0.999998 0.924963 -0.132920
C36   C     C_R   0.924593 0.499998 0.924963 -0.132920
C37   C     C_R   0.303556 0.189817 0.768804 -0.169860
C38   C     C_R   0.303576 0.810183 0.768823 -0.169859
C39   C     C_R   0.803556 0.689817 0.768804 -0.169860
C40   C     C_R   0.803576 0.310183 0.768823 -0.169859
C41   C     C_R   0.248177 0.194045 0.883520 -0.182129
C42   C     C_R   0.248214 0.805938 0.883560 -0.182130
C43   C     C_R   0.748177 0.694045 0.883520 -0.182129
C44   C     C_R   0.748214 0.305938 0.883560 -0.182130
C45   C     C_R   0.663844 0.725996 0.869096 0.030714
C46   C     C_R   0.663897 0.273954 0.869166 0.030716
C47   C     C_R   0.163844 0.225996 0.869096 0.030714
C48   C     C_R   0.163897 0.773954 0.869166 0.030716
C49   C     C_R   0.636588 0.758459 0.740592 -0.192593
C50   C     C_R   0.636628 0.241499 0.740652 -0.192603
C51   C     C_R   0.136588 0.258459 0.740592 -0.192593
C52   C     C_R   0.136628 0.741499 0.740652 -0.192603
C53   C     C_R   0.694553 0.759405 0.624706 0.082531
C54   C     C_R   0.694571 0.240578 0.624737 0.082521
C55   C     C_R   0.194553 0.259405 0.624706 0.082531
C56   C     C_R   0.194571 0.740578 0.624737 0.082521
C57   C     C_R   0.274074 0.213233 0.633393 0.088267
C58   C     C_R   0.274086 0.786763 0.633412 0.088275
C59   C     C_R   0.774074 0.713233 0.633393 0.088267
C60   C     C_R   0.774086 0.286763 0.633412 0.088275
C61   C     C_R   0.320403 0.193649 0.507132 -0.168328
C62   C     C_R   0.320403 0.806351 0.507142 -0.168323
C63   C     C_R   0.820403 0.693649 0.507132 -0.168328
C64   C     C_R   0.820403 0.306351 0.507142 -0.168323
Cu1   Cu    Cu3+1 0.499990 0.000000 0.640660 0.919144
Cu2   Cu    Cu3+1 0.999990 0.500000 0.640660 0.919144
Cu3   Cu    Cu3+1 0.500010 0.000000 0.359340 0.982642
Cu4   Cu    Cu3+1 0.000010 0.500000 0.359340 0.982642
H1    H     H_    0.802381 0.000011 0.872543 0.157557
H2    H     H_    0.302381 0.500011 0.872543 0.157557
H3    H     H_    0.669698 0.000001 0.746595 0.205119
H4    H     H_    0.169698 0.500001 0.746595 0.205119
H5    H     H_    0.363077 0.999996 0.868091 0.151369
H6    H     H_    0.863077 0.499996 0.868091 0.151369
H7    H     H_    0.370471 0.173013 0.792382 0.181644
H8    H     H_    0.370487 0.827005 0.792394 0.181655
H9    H     H_    0.870471 0.673013 0.792382 0.181644
H10   H     H_    0.870487 0.327005 0.792394 0.181655
H11   H     H_    0.271130 0.171805 0.983892 0.161526
H12   H     H_    0.271169 0.828187 0.983927 0.161528
H13   H     H_    0.771130 0.671805 0.983892 0.161526
H14   H     H_    0.771169 0.328187 0.983927 0.161528
H15   H     H_    0.569800 0.781496 0.732335 0.156317
H16   H     H_    0.569844 0.218449 0.732425 0.156364
H17   H     H_    0.069800 0.281496 0.732335 0.156317
H18   H     H_    0.069844 0.718449 0.732425 0.156364
H19   H     H_    0.715524 0.831446 0.289148 0.171924
H20   H     H_    0.715514 0.168566 0.289154 0.171947
H21   H     H_    0.215524 0.331446 0.289148 0.171924
H22   H     H_    0.215514 0.668566 0.289154 0.171947
H23   H     H_    0.669802 1.000000 0.254068 0.197864
H24   H     H_    0.169802 0.500000 0.254068 0.197864
H25   H     H_    0.802396 0.000009 0.128667 0.161746
H26   H     H_    0.302396 0.500009 0.128667 0.161746
N1    N     N_R   0.501200 0.000000 0.147910 -0.213878
N2    N     N_R   0.001200 0.500000 0.147910 -0.213878
N3    N     N_R   0.501270 1.000000 0.852040 -0.211719
N4    N     N_R   0.001270 0.500000 0.852040 -0.211719
O1    O     O_R   0.409820 0.909830 0.618810 -0.600283
O2    O     O_R   0.409820 0.090170 0.618810 -0.600273
O3    O     O_R   0.909820 0.409830 0.618810 -0.600283
O4    O     O_R   0.909820 0.590170 0.618810 -0.600273
O5    O     O_R   0.409840 0.909830 0.381240 -0.558068
O6    O     O_R   0.409840 0.090170 0.381240 -0.558065
O7    O     O_R   0.909840 0.409830 0.381240 -0.558068
O8    O     O_R   0.909840 0.590170 0.381240 -0.558065
O9    O     O_R   0.590170 0.090170 0.618760 -0.613966
O10   O     O_R   0.590170 0.909830 0.618760 -0.613936
O11   O     O_R   0.090170 0.590170 0.618760 -0.613966
O12   O     O_R   0.090170 0.409830 0.618760 -0.613936
O13   O     O_R   0.590190 0.090180 0.381190 -0.595031
O14   O     O_R   0.590190 0.909820 0.381190 -0.595057
O15   O     O_R   0.090190 0.590180 0.381190 -0.595031
O16   O     O_R   0.090190 0.409820 0.381190 -0.595057
C65   C     C_1   0.347860 0.230957 0.256244 0.278303
N5    N     N_1   0.387902 0.225762 0.154260 -0.279837
C66   C     C_1   0.347862 0.769045 0.256256 0.278282
N6    N     N_1   0.387912 0.774244 0.154276 -0.279807
C67   C     C_1   0.847860 0.730957 0.256244 0.278303
N7    N     N_1   0.887902 0.725762 0.154260 -0.279837
C68   C     C_1   0.847862 0.269045 0.256256 0.278282
N8    N     N_1   0.887912 0.274244 0.154276 -0.279807
C69   C     C_1   0.608070 0.730351 0.989638 0.224560
N9    N     N_1   0.564481 0.733676 0.088095 -0.247109
C70   C     C_1   0.608155 0.269547 0.989759 0.224521
N10   N     N_1   0.564591 0.266176 0.088258 -0.247104
C71   C     C_1   0.108070 0.230351 0.989638 0.224560
N11   N     N_1   0.064481 0.233676 0.088095 -0.247109
C72   C     C_1   0.108155 0.769547 0.989759 0.224521
N12   N     N_1   0.064591 0.766176 0.088258 -0.247104
C73   C     C_1   0.340596 0.999996 0.142404 0.294604
N13   N     N_1   0.272994 0.999995 0.197510 -0.290949
C74   C     C_1   0.840596 0.499997 0.142404 0.294604
N14   N     N_1   0.772994 0.499995 0.197510 -0.290949

loop_
_geom_bond_atom_site_label_1
_geom_bond_atom_site_label_2
_ccdc_geom_bond_type
C58   C62   A    
Cu2   Cu4   S    
C15   C34   S    
C42   H12   S    
Cu2   N4    S    
C40   C60   A    
Cu2   O4    S    
C46   C70   S    
C27   N1    A    
C17   H23   S    
C14   C31   S    
C1    C62   S    
C1    O1    A    
C74   N14   T    
C53   C59   A    
Cu3   O5    S    
C69   N9    T    
C38   H8    S    
C3    C64   S    
C45   C69   S    
C4    C63   S    
C10   H20   S    
Cu4   N2    S    
C39   H9    S    
C12   H22   S    
C19   C21   A    
C24   C26   A    
C38   C42   A    
C44   H14   S    
C6    C12   A    
C49   C53   A    
C8    C68   S    
C65   N5    T    
C9    C13   A    
C30   N2    A    
C13   C32   S    
C38   C58   A    
C11   C15   A    
C12   C16   A    
Cu1   Cu3   S    
C4    O4    A    
C45   C49   A    
C1    O5    A    
C6    C66   S    
C51   C55   A    
C19   H25   S    
C2    C61   S    
Cu4   O15   S    
Cu1   O9    S    
C33   O15   A    
C3    O3    A    
C46   C50   A    
C37   H7    S    
C2    O2    A    
C5    C65   S    
Cu3   N1    S    
Cu2   O3    S    
C51   H17   S    
Cu4   O8    S    
C44   C46   A    
Cu3   O6    S    
C13   C53   A    
C59   C63   A    
C50   H16   S    
C17   C27   A    
C7    C67   S    
C18   C28   A    
Cu1   O1    S    
C10   C14   A    
C29   N1    A    
C39   C43   A    
C4    O8    A    
C3    O7    A    
C21   H1    S    
C60   C64   A    
C15   C55   A    
C42   C48   A    
C16   C56   A    
C23   H3    S    
C16   C33   S    
C11   H21   S    
C2    O6    A    
C30   C74   S    
C39   C59   A    
C41   C47   A    
C5    C61   A    
Cu1   O10   S    
C50   C54   A    
C54   C60   A    
C47   C71   S    
C43   C45   A    
C7    C63   A    
C68   N8    T    
C36   H6    S    
C8    C64   A    
C40   H10   S    
C25   N3    A    
C14   C54   A    
C26   N4    A    
C55   C57   A    
C5    C11   A    
C70   N10   T    
C34   O12   A    
C22   C24   A    
C48   C72   S    
C34   O16   A    
Cu4   O7    S    
C40   C44   A    
C71   N11   T    
C24   H4    S    
C72   N12   T    
Cu3   O13   S    
C7    C9    A    
C20   H26   S    
C35   H5    S    
C32   O14   A    
C31   O9    A    
Cu1   O2    S    
C20   C22   A    
C41   H11   S    
C47   C51   A    
C67   N7    T    
C57   C61   A    
C25   C27   A    
C29   C35   A    
C26   C28   A    
C30   C36   A    
C28   N2    A    
C18   H24   S    
C49   H15   S    
C21   C23   A    
Cu1   N3    S    
C66   N6    T    
C9    H19   S    
C6    C62   A    
C29   C73   S    
C43   H13   S    
C52   H18   S    
C17   C19   A    
C56   C58   A    
C18   C20   A    
C23   C25   A    
Cu2   O11   S    
C37   C41   A    
C73   N13   T    
Cu3   O14   S    
C48   C52   A    
C33   O11   A    
Cu2   O12   S    
C8    C10   A    
C32   O10   A    
C31   O13   A    
C36   N4    A    
C35   N3    A    
C22   H2    S    
C37   C57   A    
C52   C56   A    
Cu4   O16   S    
