data_mof_unit_21165.cif
_audit_creation_date              2012-12-10T18:43:05-0500
_audit_creation_method            fapswitch 2.2
_symmetry_space_group_name_H-M    P1
_symmetry_Int_Tables_number       1
_space_group_crystal_system       triclinic
_cell_length_a                    10.617977
_cell_length_b                    9.987218
_cell_length_c                    10.70738
_cell_angle_alpha                 90.032696
_cell_angle_beta                  92.284486
_cell_angle_gamma                 90.096337
_cell_volume                      1134.54968578

loop_
_atom_site_label
_atom_site_type_symbol
_atom_type_description
_atom_site_fract_x
_atom_site_fract_y
_atom_site_fract_z
_atom_type_partial_charge
C1    C     C_R   0.260910 0.499827 0.498944 0.883489
C2    C     C_R   0.738957 0.500039 0.499168 0.991321
C3    C     C_R   0.494408 0.499665 0.262464 0.946834
C4    C     C_R   0.498968 0.499720 0.736971 1.007334
C5    C     C_2   0.436446 0.400569 0.927918 0.357982
C6    C     C_2   0.458730 0.387133 0.062565 0.371090
C7    C     C_2   0.499586 0.496597 0.869352 -0.381261
C8    C     C_2   0.467039 0.499857 0.130604 -0.432036
C9    C     C_R   0.060983 0.469633 0.384251 0.139416
C10   C     C_R   0.929368 0.468550 0.384403 0.096150
C11   C     C_R   0.871541 0.500270 0.496468 -0.195784
C12   C     C_R   0.128143 0.499311 0.497597 -0.208418
C13   C     C_R   0.937827 0.532697 0.607504 0.383187
C14   C     C_R   0.068521 0.530228 0.609597 0.325483
C15   C     C_R   0.567133 0.071779 0.590229 0.425457
C16   C     C_R   0.431765 0.071253 0.410581 0.435609
C17   C     C_R   0.565735 0.928926 0.591476 0.130089
C18   C     C_R   0.433742 0.928472 0.408893 0.147143
H1    H     H_    0.560373 0.568395 0.918706 0.107258
H2    H     H_    0.447954 0.597036 0.088188 0.117665
N1    N     N_R   0.500000 0.857200 0.500000 -0.143219
N2    N     N_R   0.500000 0.142810 0.500000 -0.220451
O1    O     O_R   0.316770 0.614620 0.499990 -0.620417
O2    O     O_R   0.683230 0.614620 0.500010 -0.614757
O3    O     O_R   0.316800 0.385290 0.500000 -0.630589
O4    O     O_R   0.683200 0.385290 0.500000 -0.656625
O5    O     O_R   0.500000 0.614630 0.319080 -0.642958
O6    O     O_R   0.500000 0.614630 0.680920 -0.638095
O7    O     O_R   0.500030 0.385300 0.319080 -0.554999
O8    O     O_R   0.499970 0.385300 0.680920 -0.555265
Zn1   Zn    Zn3+2 0.500000 0.653120 0.500000 0.940972
Zn2   Zn    Zn3+2 0.500000 0.346880 0.500000 0.995188
O9    O     O_3   0.356681 0.313590 0.862029 -0.725714
H3    H     H_    0.310800 0.259086 0.922878 0.344381
O10   O     O_3   0.478474 0.262294 0.115746 -0.694592
H4    H     H_    0.482500 0.194800 0.048103 0.350305
C19   C     C_3   0.127868 0.441544 0.263985 -0.829351
H5    H     H_    0.231628 0.448949 0.273084 0.218654
H6    H     H_    0.105173 0.338578 0.230917 0.257966
H7    H     H_    0.097618 0.515419 0.191416 0.240475
C20   C     C_3   0.848171 0.436988 0.267586 -0.813216
H8    H     H_    0.789477 0.347160 0.284196 0.258544
H9    H     H_    0.785292 0.523122 0.245056 0.220314
H10   H     H_    0.901618 0.416099 0.183261 0.248581
O11   O     O_3   0.870847 0.562610 0.712547 -0.787695
H11   H     H_    0.929055 0.586361 0.783593 0.389264
O12   O     O_3   0.133706 0.557814 0.721529 -0.762135
H12   H     H_    0.223498 0.533371 0.717294 0.351865
O13   O     O_3   0.635489 0.136576 0.684010 -0.748595
H13   H     H_    0.657976 0.225739 0.653647 0.387147
O14   O     O_3   0.360056 0.135236 0.319032 -0.730543
H14   H     H_    0.341987 0.225983 0.347930 0.391670
C21   C     C_3   0.636444 0.858111 0.696892 -0.656921
H15   H     H_    0.710671 0.921725 0.742405 0.245841
H16   H     H_    0.569959 0.829752 0.769691 0.227826
H17   H     H_    0.686670 0.769772 0.663411 0.272014
C22   C     C_3   0.363290 0.857221 0.303235 -0.687085
H18   H     H_    0.289409 0.920455 0.257111 0.246298
H19   H     H_    0.430102 0.828992 0.230761 0.228290
H20   H     H_    0.312709 0.768777 0.336369 0.249618

loop_
_geom_bond_atom_site_label_1
_geom_bond_atom_site_label_2
_ccdc_geom_bond_type
O8    Zn2   S    
O4    Zn2   S    
C19   H5    S    
O7    Zn2   S    
C18   N1    A    
C20   H9    S    
C20   H8    S    
C18   C22   S    
O12   H12   S    
C16   O14   S    
C20   H10   S    
N1    Zn1   S    
O3    Zn2   S    
C3    O5    A    
O9    H3    S    
O2    Zn1   S    
C15   N2    A    
C2    O4    A    
C16   C18   A    
O11   H11   S    
C10   C20   S    
C1    O3    A    
C11   C13   A    
C3    O7    A    
C22   H18   S    
C8    H2    S    
C1    C12   S    
N2    Zn2   S    
C4    C7    S    
C6    C8    D    
C2    C11   S    
C9    C19   S    
C4    O6    A    
C12   C14   A    
C1    O1    A    
C19   H7    S    
C7    H1    S    
C15   O13   S    
C3    C8    S    
C2    O2    A    
C5    C6    S    
C9    C12   A    
C17   N1    A    
C22   H19   S    
C10   C11   A    
C15   C17   A    
C21   H16   S    
O5    Zn1   S    
O14   H14   S    
C17   C21   S    
C6    O10   S    
C13   O11   S    
C19   H6    S    
O13   H13   S    
C9    C10   A    
C21   H17   S    
C5    C7    D    
C22   H20   S    
C16   N2    A    
C13   C14   A    
C14   O12   S    
O6    Zn1   S    
C4    O8    A    
O10   H4    S    
C21   H15   S    
O1    Zn1   S    
C5    O9    S    
