data_mof_unit_41667.cif
_audit_creation_date              2012-12-10T17:12:05-0500
_audit_creation_method            fapswitch 2.2
_symmetry_space_group_name_H-M    P1
_symmetry_Int_Tables_number       1
_space_group_crystal_system       triclinic
_cell_length_a                    11.714115
_cell_length_b                    12.995994
_cell_length_c                    15.821538
_cell_angle_alpha                 92.860168
_cell_angle_beta                  73.964087
_cell_angle_gamma                 100.442791
_cell_volume                      2276.5512607

loop_
_atom_site_label
_atom_site_type_symbol
_atom_type_description
_atom_site_fract_x
_atom_site_fract_y
_atom_site_fract_z
_atom_type_partial_charge
C1    C     C_R   0.521173 0.700877 0.501414 0.798565
C2    C     C_R   0.478473 0.299064 0.499486 0.806308
C3    C     C_R   0.352538 0.442800 0.087138 -0.220891
C4    C     C_R   0.641327 0.463577 0.911100 -0.218936
C5    C     C_R   0.269403 0.435056 0.038549 -0.203957
C6    C     C_R   0.723503 0.465538 0.960028 -0.197222
C7    C     C_R   0.465297 0.185351 0.501439 -0.049859
C8    C     C_R   0.533874 0.814525 0.501487 -0.047834
C9    C     C_R   0.659004 0.986140 0.487501 -0.212291
C10   C     C_R   0.339849 0.013756 0.517721 -0.209454
C11   C     C_R   0.647499 0.877885 0.490475 -0.196780
C12   C     C_R   0.351340 0.121969 0.514649 -0.194029
C13   C     C_R   0.431414 0.860090 0.511003 -0.267476
C14   C     C_R   0.567733 0.139770 0.492257 -0.255386
C15   C     C_R   0.442114 0.968195 0.508325 0.174381
C16   C     C_R   0.556901 0.031696 0.495950 0.173622
C17   C     C_R   0.945582 0.604426 0.576302 -0.383207
C18   C     C_R   0.053539 0.400709 0.421874 -0.297640
C19   C     C_R   0.825174 0.592008 0.571340 0.385192
C20   C     C_R   0.170393 0.406557 0.430240 0.366802
C21   C     C_R   0.858193 0.456989 0.465928 -0.009304
C22   C     C_R   0.144639 0.548762 0.529701 0.007927
C23   C     C_R   0.426611 0.494999 0.668520 0.821685
C24   C     C_R   0.573164 0.502644 0.331657 0.820919
C25   C     C_R   0.978408 0.466125 0.470503 0.011912
C26   C     C_R   0.023414 0.540792 0.525825 0.044743
C27   C     C_R   0.382112 0.485542 0.765432 -0.170764
C28   C     C_R   0.616800 0.496113 0.234990 -0.151227
C29   C     C_R   0.222515 0.451333 0.901430 -0.275795
C30   C     C_R   0.772387 0.480341 0.099388 -0.274857
C31   C     C_R   0.258337 0.472694 0.811340 0.471021
C32   C     C_R   0.738091 0.490789 0.191052 0.450646
C33   C     C_R   0.467202 0.484971 0.812753 -0.316237
C34   C     C_R   0.532723 0.490799 0.186266 -0.335029
C35   C     C_R   0.432451 0.466310 0.903800 0.088754
C36   C     C_R   0.564543 0.474920 0.094968 0.093261
C37   C     C_R   0.307916 0.450558 0.947983 0.093129
C38   C     C_R   0.687223 0.473928 0.051281 0.095554
C39   C     C_R   0.517949 0.464864 0.952439 0.080923
C40   C     C_R   0.477913 0.462081 0.045885 0.083627
Cu1   Cu    Cu3+1 0.386820 0.492450 0.493500 0.944147
Cu2   Cu    Cu3+1 0.613180 0.507550 0.506500 0.964149
H1    H     H_    0.174163 0.418548 0.072415 0.140710
H2    H     H_    0.816425 0.461664 0.925959 0.143781
H3    H     H_    0.977027 0.662684 0.620021 0.131036
H4    H     H_    0.020229 0.341687 0.379420 0.153419
H5    H     H_    0.442475 0.501288 0.220780 0.174008
H6    H     H_    0.561115 0.501601 0.777310 0.176661
H7    H     H_    0.127116 0.438146 0.935545 0.142438
H8    H     H_    0.865492 0.475698 0.065983 0.135958
H9    H     H_    0.315660 0.429211 0.156867 0.148264
H10   H     H_    0.676651 0.456616 0.840945 0.145338
H11   H     H_    0.656123 0.188222 0.482202 0.150617
H12   H     H_    0.343155 0.811585 0.520368 0.145662
H13   H     H_    0.270928 0.155823 0.523918 0.151004
H14   H     H_    0.727551 0.843819 0.482964 0.153721
H15   H     H_    0.747471 0.034074 0.478244 0.136444
H16   H     H_    0.251220 0.965853 0.527874 0.133710
H17   H     H_    0.181064 0.608543 0.569776 0.107500
H18   H     H_    0.824188 0.400194 0.422372 0.149263
N1    N     N_R   0.216750 0.481110 0.483710 -0.185937
N2    N     N_R   0.783250 0.518890 0.516290 -0.178075
O1    O     O_R   0.419950 0.645670 0.495380 -0.597069
O2    O     O_R   0.580050 0.354330 0.504620 -0.588533
O3    O     O_R   0.611110 0.658410 0.506370 -0.567308
O4    O     O_R   0.388890 0.341590 0.493630 -0.597935
O5    O     O_R   0.350820 0.490050 0.621260 -0.549560
O6    O     O_R   0.649180 0.509950 0.378740 -0.549225
O7    O     O_R   0.541970 0.502800 0.632250 -0.562328
O8    O     O_R   0.458030 0.497200 0.367750 -0.603990
N3    N     N_3   0.234387 0.327771 0.384161 -0.615117
H19   H     H_    0.236728 0.271942 0.428267 0.232941
H20   H     H_    0.319244 0.358881 0.344890 0.251607
N4    N     N_3   0.746556 0.656680 0.624372 -0.531309
H21   H     H_    0.742164 0.645109 0.690204 0.185749
H22   H     H_    0.785219 0.734772 0.608662 0.188615
O9    O     O_3   0.820936 0.486352 0.237808 -0.608604
C41   C     C_3   0.901267 0.582946 0.232314 0.064533
H23   H     H_    0.892092 0.613692 0.300252 0.175297
H24   H     H_    0.883380 0.644800 0.193390 0.115288
C42   C     C_3   0.030516 0.564293 0.192907 -0.354049
H25   H     H_    0.047428 0.499871 0.229015 0.231200
H26   H     H_    0.042238 0.540949 0.122982 0.202205
C43   C     C_3   0.122516 0.662262 0.197676 -0.906312
H27   H     H_    0.108232 0.727596 0.161291 0.255660
H28   H     H_    0.214985 0.645951 0.167500 0.263399
H29   H     H_    0.114559 0.685708 0.267280 0.256264
O10   O     O_3   0.169864 0.474484 0.769180 -0.598178
C44   C     C_3   0.153449 0.578938 0.762788 0.080158
H30   H     H_    0.096569 0.577881 0.717128 0.168492
H31   H     H_    0.240303 0.632112 0.733652 0.118219
C45   C     C_3   0.086789 0.622104 0.851370 -0.401462
H32   H     H_    0.008724 0.562623 0.884621 0.221407
H33   H     H_    0.148410 0.640260 0.894408 0.212892
C46   C     C_3   0.041716 0.721853 0.838961 -0.903344
H34   H     H_    0.118515 0.782658 0.805584 0.255493
H35   H     H_    0.996286 0.752100 0.904129 0.261048
H36   H     H_    0.975854 0.705527 0.799083 0.249245

loop_
_geom_bond_atom_site_label_1
_geom_bond_atom_site_label_2
_ccdc_geom_bond_type
C8    C13   A    
C5    C37   A    
C1    C8    S    
Cu1   Cu2   S    
C23   O7    A    
C46   H34   S    
C43   H29   S    
Cu1   N1    S    
C42   H25   S    
C46   H36   S    
C24   O8    A    
Cu1   O5    S    
C29   H7    S    
O9    C41   S    
C27   C33   A    
N4    H22   S    
C4    H10   S    
C17   C26   A    
C35   C37   A    
C9    C16   A    
C43   H28   S    
C10   C15   A    
C41   H24   S    
C19   N2    A    
C15   C16   A    
C18   H4    S    
C30   C38   A    
C23   O5    A    
C20   N1    A    
C9    H15   S    
C33   C35   A    
C32   O9    S    
C7    C14   A    
C2    C7    S    
Cu2   O3    S    
C1    O3    A    
C6    C38   A    
C20   N3    S    
C23   C27   S    
C44   H31   S    
Cu2   N2    S    
C18   C20   A    
C30   H8    S    
C28   C34   A    
C6    H2    S    
Cu2   O6    S    
C18   C25   A    
C1    O1    A    
C42   H26   S    
C2    O2    A    
C7    C12   A    
N4    H21   S    
C27   C31   A    
C28   C32   A    
C43   H27   S    
C21   H18   S    
C4    C6    A    
C22   H17   S    
N3    H20   S    
C3    H9    S    
C41   H23   S    
C3    C5    A    
C25   C26   A    
C45   C46   S    
C35   C39   A    
C4    C39   A    
C36   C40   A    
C45   H33   S    
C44   C45   S    
C9    C11   A    
C21   N2    A    
C10   C12   A    
C3    C40   A    
C13   C15   A    
C14   C16   A    
Cu1   O1    S    
Cu2   O2    S    
C39   C40   A    
C42   C43   S    
C13   H12   S    
C21   C25   A    
C31   O10   S    
C10   H16   S    
C19   N4    S    
C24   C28   S    
C17   H3    S    
C2    O4    A    
C46   H35   S    
Cu1   O4    S    
C36   C38   A    
N3    H19   S    
C29   C31   A    
C22   N1    A    
C30   C32   A    
C41   C42   S    
C8    C11   A    
C45   H32   S    
C17   C19   A    
C34   C36   A    
Cu2   O7    S    
C5    H1    S    
C12   H13   S    
C24   O6    A    
C14   H11   S    
O10   C44   S    
C22   C26   A    
C29   C37   A    
C33   H6    S    
C34   H5    S    
C44   H30   S    
C11   H14   S    
Cu1   O8    S    
