data_mof_unit_59425.cif
_audit_creation_date              2013-03-05T16:17:53-0500
_audit_creation_method            fapswitch 2.2
_symmetry_space_group_name_H-M    P1
_symmetry_Int_Tables_number       1
_space_group_crystal_system       triclinic
_cell_length_a                    15.006674
_cell_length_b                    16.393107
_cell_length_c                    10.252846
_cell_angle_alpha                 87.921989
_cell_angle_beta                  90.140965
_cell_angle_gamma                 90.013321
_cell_volume                      2520.5954262

loop_
_atom_site_label
_atom_site_type_symbol
_atom_site_description
_atom_site_fract_x
_atom_site_fract_y
_atom_site_fract_z
_atom_type_partial_charge
O1    O     O_R   0.092530 0.407440 0.616040 -0.572040
O2    O     O_R   0.092530 0.407440 0.383960 -0.540502
O3    O     O_R   0.092530 0.592560 0.383960 -0.572798
O4    O     O_R   0.092530 0.592560 0.616040 -0.543103
O5    O     O_R   0.592530 0.907440 0.616040 -0.567462
O6    O     O_R   0.592530 0.907440 0.383960 -0.532830
O7    O     O_R   0.592530 0.092560 0.383960 -0.561392
O8    O     O_R   0.592530 0.092560 0.616040 -0.537772
C1    C     C_R   0.123578 0.381341 0.499958 0.962448
C2    C     C_R   0.124346 0.617806 0.500231 0.963723
C3    C     C_R   0.626210 0.884080 0.501050 0.813320
C4    C     C_R   0.626034 0.116217 0.498981 0.813406
O9    O     O_R   0.907330 0.407420 0.616040 -0.633157
O10   O     O_R   0.907330 0.407420 0.383960 -0.670850
O11   O     O_R   0.907330 0.592580 0.383960 -0.647765
O12   O     O_R   0.907330 0.592580 0.616040 -0.682843
O13   O     O_R   0.407330 0.907420 0.616040 -0.675256
O14   O     O_R   0.407330 0.907420 0.383960 -0.663810
O15   O     O_R   0.407330 0.092580 0.383960 -0.661448
O16   O     O_R   0.407330 0.092580 0.616040 -0.626630
C5    C     C_R   0.877461 0.381644 0.501544 0.760533
C6    C     C_R   0.877582 0.618552 0.498490 0.756192
C7    C     C_R   0.377797 0.881326 0.501474 0.774593
C8    C     C_R   0.378663 0.119224 0.498199 0.786835
Zn1   Zn    Zn3+2 0.999890 0.500000 0.654960 0.996674
Zn2   Zn    Zn3+2 0.999890 0.500000 0.345040 1.001984
Zn3   Zn    Zn3+2 0.499890 0.000000 0.654960 0.998896
Zn4   Zn    Zn3+2 0.499890 0.000000 0.345040 0.986775
C9    C     C_3   0.823252 0.254887 0.629170 -0.307438
C10   C     C_3   0.830724 0.257144 0.382741 -0.285189
C11   C     C_3   0.822355 0.745179 0.370311 -0.309058
C12   C     C_3   0.830744 0.742680 0.617862 -0.269743
C13   C     C_3   0.314472 0.761647 0.639201 -0.357381
C14   C     C_3   0.330829 0.753836 0.390907 -0.315422
C15   C     C_3   0.312740 0.237397 0.359725 -0.361310
C16   C     C_3   0.331703 0.246849 0.607203 -0.313296
H1    H     H_    0.810416 0.291931 0.714478 0.277445
H2    H     H_    0.811720 0.296113 0.297761 0.254682
H3    H     H_    0.805560 0.707752 0.286052 0.239343
H4    H     H_    0.813203 0.702756 0.702529 0.266294
H5    H     H_    0.280025 0.799528 0.711234 0.250714
H6    H     H_    0.328124 0.791609 0.300270 0.253242
H7    H     H_    0.277259 0.198911 0.289824 0.292106
H8    H     H_    0.329460 0.208844 0.697112 0.281553
C17   C     C_3   0.259213 0.681232 0.630883 0.423762
C18   C     C_3   0.254899 0.690809 0.376314 0.363648
C19   C     C_3   0.257138 0.317478 0.368281 0.406593
C20   C     C_3   0.255541 0.309462 0.622714 0.365723
C21   C     C_3   0.751491 0.185329 0.632625 0.373662
C22   C     C_3   0.767685 0.181889 0.381825 0.408286
C23   C     C_3   0.752620 0.816497 0.368064 0.384931
C24   C     C_3   0.766583 0.816938 0.619948 0.416507
H9    H     H_    0.115081 0.769557 0.609131 0.238817
H10   H     H_    0.090940 0.768937 0.439854 0.214688
H11   H     H_    0.114001 0.228710 0.394285 0.242700
H12   H     H_    0.091272 0.228825 0.562406 0.218719
H13   H     H_    0.596199 0.265789 0.557865 0.226226
H14   H     H_    0.610328 0.265410 0.389746 0.244271
H15   H     H_    0.598899 0.735310 0.431471 0.242959
H16   H     H_    0.606752 0.734798 0.600809 0.233892
C25   C     C_3   0.710570 0.341546 0.491523 -0.111122
C26   C     C_3   0.710786 0.659392 0.507044 -0.169567
C27   C     C_3   0.209463 0.843067 0.490585 -0.155133
C28   C     C_3   0.211228 0.155385 0.511144 -0.122824
C29   C     C_3   0.811965 0.310790 0.503164 -0.299327
C30   C     C_3   0.812096 0.689661 0.497087 -0.277768
C31   C     C_3   0.310625 0.811847 0.505561 -0.255334
C32   C     C_3   0.311132 0.188110 0.493762 -0.270680
C33   C     C_3   0.196794 0.685005 0.503943 -0.192810
C34   C     C_3   0.195985 0.313914 0.496328 -0.184362
C35   C     C_3   0.698951 0.183317 0.498712 -0.272898
C36   C     C_3   0.699035 0.817116 0.500792 -0.275632
C37   C     C_3   0.146317 0.767492 0.511409 -0.289873
C38   C     C_3   0.146290 0.230535 0.491057 -0.298618
C39   C     C_3   0.648196 0.265194 0.482366 -0.219565
C40   C     C_3   0.647866 0.735462 0.511610 -0.215121
C41   C     C_3   0.052846 0.432341 0.084420 -0.131381
C42   C     C_3   0.029579 0.420806 0.933308 -0.289959
C43   C     C_3   0.054292 0.566812 0.915521 -0.200041
C44   C     C_3   0.030322 0.579030 0.064806 -0.319759
C45   C     C_3   0.555738 0.934279 0.085061 -0.212330
C46   C     C_3   0.531740 0.921782 0.935629 -0.306789
C47   C     C_3   0.550891 0.068768 0.915532 -0.143337
C48   C     C_3   0.526891 0.079794 0.066650 -0.281105
H17   H     H_    0.039488 0.374953 0.140848 0.250047
H18   H     H_    0.974079 0.377251 0.928108 0.264650
H19   H     H_    0.041921 0.624582 0.859250 0.201399
H20   H     H_    0.975156 0.623279 0.060450 0.168042
H21   H     H_    0.544190 0.875988 0.139936 0.203161
H22   H     H_    0.476799 0.877585 0.942476 0.158037
H23   H     H_    0.536534 0.125739 0.859121 0.255173
H24   H     H_    0.469435 0.121437 0.069517 0.249677
C49   C     C_3   0.903641 0.490564 0.080963 -0.080121
C50   C     C_3   0.904011 0.508953 0.917871 -0.084278
C51   C     C_3   0.403889 0.988167 0.081823 -0.103057
C52   C     C_3   0.402933 0.008013 0.918607 -0.088534
N1    N     N_3   0.998760 0.500000 0.138610 -0.153769
N2    N     N_3   0.998760 0.500000 0.861390 -0.171966
N3    N     N_3   0.498760 0.000000 0.138610 -0.152635
N4    N     N_3   0.498760 0.000000 0.861390 -0.130719
C53   C     C_2   0.918278 0.225341 0.649975 0.500905
H25   H     H_    0.945255 0.177265 0.591939 0.030739
O17   O     O_2   0.963740 0.252050 0.737317 -0.424847
C54   C     C_2   0.928457 0.240432 0.354910 0.473249
H26   H     H_    0.978597 0.266158 0.415723 0.003491
O18   O     O_2   0.951611 0.204645 0.258217 -0.381554
C55   C     C_2   0.917652 0.772566 0.346423 0.487248
H27   H     H_    0.947147 0.819503 0.404465 0.064240
O19   O     O_2   0.960317 0.745698 0.256670 -0.460930
C56   C     C_2   0.928118 0.760090 0.646198 0.364429
H28   H     H_    0.978247 0.736809 0.583390 0.036837
O20   O     O_2   0.950997 0.792997 0.745905 -0.433196
C57   C     C_2   0.405742 0.749932 0.701300 0.463514
H29   H     H_    0.465660 0.760555 0.645542 0.080312
O21   O     O_2   0.411847 0.728663 0.816419 -0.428587
C58   C     C_2   0.423963 0.718203 0.390454 0.318356
H30   H     H_    0.449460 0.681949 0.472128 0.058479
O22   O     O_2   0.470197 0.726842 0.293036 -0.488075
C59   C     C_2   0.402871 0.248865 0.294723 0.542607
H31   H     H_    0.463861 0.241572 0.349852 0.054612
O23   O     O_2   0.406850 0.267019 0.178280 -0.390981
C60   C     C_2   0.424559 0.283066 0.606366 0.344562
H32   H     H_    0.448947 0.319357 0.524139 0.039379
O24   O     O_2   0.471827 0.274887 0.703101 -0.436646
C61   C     C_2   0.321410 0.608408 0.641961 0.627102
H33   H     H_    0.358007 0.587623 0.559610 0.030460
O25   O     O_2   0.340778 0.578088 0.748895 -0.427750
C62   C     C_2   0.288532 0.611002 0.327485 0.392933
H34   H     H_    0.327344 0.610097 0.238330 0.172067
O26   O     O_2   0.270809 0.547072 0.384573 -0.577201
C63   C     C_2   0.318976 0.390481 0.355309 0.611098
H35   H     H_    0.355607 0.412375 0.437066 0.037843
O27   O     O_2   0.338271 0.419517 0.247640 -0.429756
C64   C     C_2   0.289012 0.389873 0.669604 0.389303
H36   H     H_    0.329171 0.391651 0.757674 0.177405
O28   O     O_2   0.269571 0.453335 0.612257 -0.580225
C65   C     C_2   0.790957 0.103273 0.669929 0.499906
H37   H     H_    0.773636 0.050896 0.614423 -0.008549
O29   O     O_2   0.836720 0.093600 0.768114 -0.416020
C66   C     C_2   0.818926 0.103443 0.368410 0.500225
H38   H     H_    0.859415 0.077895 0.446875 -0.073506
O30   O     O_2   0.825318 0.073732 0.261440 -0.367743
C67   C     C_2   0.794097 0.898213 0.335624 0.497848
H39   H     H_    0.777378 0.949665 0.393278 -0.016404
O31   O     O_2   0.839974 0.908965 0.238124 -0.420104
C68   C     C_2   0.816498 0.895710 0.638799 0.487774
H40   H     H_    0.859239 0.921894 0.563743 -0.042415
O32   O     O_2   0.819146 0.924963 0.746448 -0.382685
F1    F     F_    0.205536 0.679727 0.740286 -0.617354
F2    F     F_    0.201614 0.722928 0.278195 -0.630699
F3    F     F_    0.202215 0.318183 0.259913 -0.611836
F4    F     F_    0.203765 0.277899 0.722572 -0.623741
F5    F     F_    0.691394 0.203512 0.730145 -0.625690
F6    F     F_    0.721157 0.194126 0.269079 -0.612407
F7    F     F_    0.693229 0.801810 0.267395 -0.622638
F8    F     F_    0.718881 0.801516 0.730311 -0.605244
C69   C     C_2   0.678736 0.388704 0.607429 0.382925
H41   H     H_    0.711668 0.384265 0.699886 0.153843
O33   O     O_2   0.608923 0.427164 0.601345 -0.504622
C70   C     C_2   0.699273 0.400203 0.373825 0.525328
H42   H     H_    0.743952 0.451544 0.363226 -0.002827
O34   O     O_2   0.640303 0.392820 0.292712 -0.449293
C71   C     C_2   0.684746 0.609864 0.391994 0.462954
H43   H     H_    0.735857 0.586970 0.331790 0.094418
O35   O     O_2   0.607447 0.590069 0.372411 -0.462298
C72   C     C_2   0.696926 0.601193 0.623491 0.607196
H44   H     H_    0.732270 0.544308 0.624706 -0.029972
O36   O     O_2   0.644894 0.614408 0.711710 -0.414894
C73   C     C_2   0.187241 0.906618 0.588572 0.412006
H45   H     H_    0.240225 0.941949 0.628161 0.062798
O37   O     O_2   0.110164 0.922670 0.616355 -0.457382
C74   C     C_2   0.190492 0.884462 0.359285 0.648301
H46   H     H_    0.244366 0.908005 0.302353 0.052006
O38   O     O_2   0.114427 0.897578 0.321065 -0.434295
C75   C     C_2   0.191173 0.088891 0.415908 0.491437
H47   H     H_    0.231853 0.034755 0.420837 -0.081905
O39   O     O_2   0.129840 0.093062 0.337381 -0.443837
C76   C     C_2   0.197702 0.112736 0.643319 0.569184
H48   H     H_    0.246781 0.069154 0.676443 -0.007482
O40   O     O_2   0.131593 0.122680 0.710214 -0.403267
C77   C     C_2   0.151667 0.442318 0.108352 0.476084
H49   H     H_    0.201244 0.415143 0.046790 0.121014
O41   O     O_2   0.178285 0.476857 0.203017 -0.498041
C78   C     C_2   0.097571 0.367193 0.875141 0.583095
H50   H     H_    0.154873 0.391248 0.827414 0.146914
O42   O     O_2   0.096231 0.293992 0.903108 -0.367013
C79   C     C_2   0.153123 0.555522 0.893411 0.521648
H51   H     H_    0.202765 0.579416 0.958718 0.104600
O43   O     O_2   0.179754 0.523899 0.796249 -0.494717
C80   C     C_2   0.097205 0.633428 0.124008 0.617522
H52   H     H_    0.154397 0.609746 0.172662 0.144979
O44   O     O_2   0.095248 0.706628 0.096062 -0.384883
C81   C     C_2   0.653266 0.946500 0.113470 0.508387
H53   H     H_    0.704779 0.913671 0.064041 0.143307
O45   O     O_2   0.675744 0.988803 0.202202 -0.543714
C82   C     C_2   0.596691 0.867612 0.873304 0.659475
H54   H     H_    0.665895 0.882790 0.873464 0.178907
O46   O     O_2   0.574202 0.800117 0.838364 -0.455983
C83   C     C_2   0.648877 0.062476 0.886899 0.444761
H55   H     H_    0.696506 0.104684 0.925987 0.160225
O47   O     O_2   0.675522 0.014213 0.809481 -0.550491
C84   C     C_2   0.593288 0.133456 0.127628 0.629690
H56   H     H_    0.662176 0.117372 0.125315 0.175252
O48   O     O_2   0.572576 0.201309 0.162597 -0.464713
C85   C     C_2   0.861292 0.407754 0.123726 0.549918
H57   H     H_    0.793213 0.405095 0.157314 0.138867
O49   O     O_2   0.896136 0.341668 0.109208 -0.526690
C86   C     C_2   0.839703 0.454786 0.845218 0.563644
H58   H     H_    0.815292 0.476740 0.752335 0.057816
O50   O     O_2   0.812812 0.388700 0.886314 -0.559051
C87   C     C_2   0.865983 0.594801 0.882745 0.319270
H59   H     H_    0.907429 0.646112 0.856322 0.120742
O51   O     O_2   0.786102 0.608644 0.889102 -0.450710
C88   C     C_2   0.838870 0.551248 0.138551 0.320246
H60   H     H_    0.861710 0.607915 0.174946 0.136131
O52   O     O_2   0.758374 0.543693 0.123243 -0.484564
C89   C     C_2   0.369280 0.900769 0.113671 0.274780
H61   H     H_    0.411210 0.853923 0.155865 0.148872
O53   O     O_2   0.292527 0.880931 0.090146 -0.461328
C90   C     C_2   0.339891 0.947184 0.855877 0.378846
H62   H     H_    0.364039 0.889505 0.825482 0.133457
O54   O     O_2   0.258879 0.955116 0.859975 -0.500664
C91   C     C_2   0.358132 0.091232 0.882789 0.515462
H63   H     H_    0.286394 0.094851 0.874419 0.176688
O55   O     O_2   0.395524 0.157042 0.883069 -0.536005
C92   C     C_2   0.337731 0.038610 0.158109 0.561050
H64   H     H_    0.317947 0.015851 0.252700 0.068609
O56   O     O_2   0.304803 0.102825 0.119049 -0.539575

loop_
_geom_bond_atom_site_label_1
_geom_bond_atom_site_label_2
_geom_bond_distance
_ccdc_geom_bond_type
C11   C30   1.567374 S    
C72   O36   1.221681 D    
C80   H52   1.058390 S    
C21   C65   1.506132 S    
C44   N1    1.551051 S    
C13   C17   1.562055 S    
C73   H45   1.071290 S    
C10   C29   1.567687 S    
C43   N2    1.497822 S    
C15   C59   1.517946 S    
C51   C52   1.693163 S    
C14   H6    1.098513 S    
C36   C40   1.543647 S    
C15   C19   1.560940 S    
C62   H34   1.085647 S    
C90   O54   1.223678 D    
C76   H48   1.072205 S    
C90   H62   1.069839 S    
C75   O39   1.221643 D    
C9    C21   1.567752 S    
C77   H49   1.083146 S    
C78   H50   1.059401 S    
C87   H59   1.073231 S    
C65   O29   1.222814 D    
C23   F7    1.389623 S    
C49   C50   1.688340 S    
C43   C79   1.513330 S    
C28   C32   1.600391 S    
O10   C5    1.341076 A    
C20   C64   1.505172 S    
C71   O35   1.222543 D    
C66   O30   1.220060 D    
C68   H40   1.079901 S    
C51   N3    1.551621 S    
C27   C73   1.511162 S    
C50   N2    1.545611 S    
C14   C58   1.515003 S    
C67   H39   1.077396 S    
C58   H30   1.078560 S    
C10   H2    1.098665 S    
C7    C31   1.520321 S    
C10   C54   1.521655 S    
C12   C56   1.518177 S    
C26   C71   1.506781 S    
O16   C8    1.339724 A    
C56   H28   1.070792 S    
C6    C30   1.524494 S    
C18   C33   1.574246 S    
O5    Zn3   2.107583 S    
H11   C38   1.104492 S    
C1    C34   1.551627 S    
O11   C6    1.341027 A    
O6    Zn4   2.085337 S    
C47   C48   1.608132 S    
C17   C61   1.516378 S    
C86   H58   1.069635 S    
C81   O45   1.210987 D    
C34   C38   1.559483 S    
O12   C6    1.339159 A    
C55   H27   1.083432 S    
C33   C37   1.554482 S    
C14   C18   1.548581 S    
C15   H7    1.107221 S    
C46   C82   1.480391 S    
C45   H21   1.105039 S    
C42   H18   1.099344 S    
C85   O49   1.217196 D    
C10   C22   1.554729 S    
C41   H17   1.104983 S    
C83   H55   1.081067 S    
C69   O33   1.223159 D    
C54   O18   1.221354 D    
O1    Zn1   2.107583 S    
C55   O19   1.217848 D    
C26   C40   1.566466 S    
C11   C55   1.516639 S    
C43   H19   1.106387 S    
C54   H26   1.072091 S    
C74   O38   1.222525 D    
H14   C39   1.105365 S    
C45   C46   1.593424 S    
C16   C20   1.548673 S    
C68   O32   1.219785 D    
C77   O41   1.208307 D    
O7    C4    1.350591 A    
C27   C31   1.607375 S    
Zn3   N4    2.116606 S    
H12   C38   1.104112 S    
C84   H56   1.067472 S    
C26   C30   1.601492 S    
C22   C66   1.509224 S    
C17   C33   1.601036 S    
O14   C7    1.340234 A    
O13   Zn3   2.105267 S    
C53   H25   1.083703 S    
C12   C24   1.553040 S    
O1    C1    1.362501 A    
C66   H38   1.079383 S    
C91   H63   1.081221 S    
C82   O46   1.222471 D    
C58   O22   1.221537 D    
C25   C70   1.524632 S    
C11   C23   1.568766 S    
O6    C3    1.344282 A    
C88   H60   1.069586 S    
O11   Zn2   2.107026 S    
C64   O28   1.211637 D    
C27   C37   1.568345 S    
C89   H61   1.071273 S    
C41   C42   1.605194 S    
H16   C40   1.104191 S    
C25   C39   1.568162 S    
O7    Zn4   2.105821 S    
C69   H41   1.068098 S    
C19   C63   1.516436 S    
C70   O34   1.221888 D    
C16   C60   1.514464 S    
C22   C35   1.583931 S    
C19   C34   1.602960 S    
C42   N2    1.540197 S    
C24   C36   1.585471 S    
C25   C69   1.519107 S    
H10   C37   1.106868 S    
C28   C76   1.516269 S    
C41   C77   1.512346 S    
C75   H47   1.076882 S    
C50   C86   1.522730 S    
O8    C4    1.346385 A    
C52   C91   1.552691 S    
C16   C32   1.566718 S    
O14   Zn4   2.085609 S    
O2    Zn2   2.085337 S    
O13   C7    1.339009 A    
O4    Zn1   2.086174 S    
O10   Zn2   2.085609 S    
C28   C75   1.519151 S    
C41   N1    1.498325 S    
O15   Zn4   2.107026 S    
C83   O47   1.209600 D    
C57   H29   1.077448 S    
C59   O23   1.221492 D    
C84   O48   1.221481 D    
C9    C53   1.518221 S    
C9    C29   1.565477 S    
Zn4   N3    2.116522 S    
C86   O50   1.217213 D    
C18   F2    1.373505 S    
C4    C35   1.551317 S    
C19   F3    1.381487 S    
C81   H53   1.079782 S    
C92   O56   1.217112 D    
C47   N4    1.494607 S    
C20   F4    1.372945 S    
C21   C35   1.582959 S    
C72   H44   1.072577 S    
C87   O51   1.222435 D    
C16   H8    1.094323 S    
C89   O53   1.222602 D    
C23   C36   1.582722 S    
C47   C83   1.504476 S    
C63   H35   1.073830 S    
C17   F1    1.382054 S    
C49   N1    1.553437 S    
C60   O24   1.221374 D    
C74   H46   1.062608 S    
C13   C31   1.573481 S    
C12   C30   1.563108 S    
C49   C85   1.548156 S    
C73   O37   1.222891 D    
C21   F5    1.388555 S    
O12   Zn1   2.084770 S    
C67   O31   1.222667 D    
C85   H57   1.079291 S    
C26   C72   1.515733 S    
C24   C68   1.510916 S    
C42   C78   1.486809 S    
C5    C29   1.521059 S    
C49   C88   1.526063 S    
C3    C36   1.549247 S    
C48   N3    1.537818 S    
C44   C80   1.485564 S    
C80   O44   1.223901 D    
O3    Zn2   2.105821 S    
H9    C37   1.108834 S    
O9    Zn1   2.105267 S    
C20   C34   1.571851 S    
C82   H54   1.067879 S    
C63   O27   1.221662 D    
C62   O26   1.211520 D    
C14   C31   1.568795 S    
C76   O40   1.221781 D    
C59   H31   1.078921 S    
C91   O55   1.216014 D    
O5    C3    1.351974 A    
C64   H36   1.085644 S    
O16   Zn3   2.084770 S    
C23   C67   1.503602 S    
C24   F8    1.356417 S    
C47   H23   1.101567 S    
C65   H37   1.078545 S    
C13   C57   1.518281 S    
C46   H22   1.098155 S    
C45   N3    1.496304 S    
C13   H5    1.110677 S    
C70   H42   1.078505 S    
H13   C39   1.100762 S    
O15   C8    1.336940 A    
C51   C92   1.527197 S    
C79   H51   1.083129 S    
C44   H20   1.100579 S    
O3    C2    1.361344 A    
C52   C90   1.531700 S    
O9    C5    1.338214 A    
C35   C39   1.547033 S    
C27   C74   1.511863 S    
C61   H33   1.074172 S    
C15   C32   1.568956 S    
C22   F6    1.357681 S    
C11   H3    1.106150 S    
C52   N4    1.561789 S    
C46   N4    1.547942 S    
C51   C89   1.547774 S    
C78   O42   1.223796 D    
C48   C84   1.481196 S    
C88   O52   1.224576 D    
C12   H4    1.100473 S    
C56   O20   1.221523 D    
C79   O43   1.208442 D    
C71   H43   1.062753 S    
C8    C32   1.516860 S    
Zn2   N1    2.116522 S    
C45   C81   1.506329 S    
C43   C44   1.592851 S    
C2    C33   1.548959 S    
C25   C29   1.605860 S    
Zn1   N2    2.116606 S    
C50   C87   1.548703 S    
C53   O17   1.218330 D    
C92   H64   1.069140 S    
C18   C62   1.505336 S    
C9    H1    1.100133 S    
C61   O25   1.221707 D    
O8    Zn3   2.086174 S    
C28   C38   1.578267 S    
C48   H24   1.100992 S    
C60   H32   1.078734 S    
O2    C1    1.332317 A    
O4    C2    1.332719 A    
H15   C40   1.101026 S    
C57   O21   1.221761 D    
