data_mof_unit_60680.cif
_audit_creation_date              2012-12-10T20:01:14-0500
_audit_creation_method            fapswitch 2.2
_symmetry_space_group_name_H-M    P1
_symmetry_Int_Tables_number       1
_space_group_crystal_system       triclinic
_cell_length_a                    32.150909
_cell_length_b                    32.15087
_cell_length_c                    23.560174
_cell_angle_alpha                 90.021711
_cell_angle_beta                  90.032211
_cell_angle_gamma                 90.002367
_cell_volume                      24353.6678716

loop_
_atom_site_label
_atom_site_type_symbol
_atom_type_description
_atom_site_fract_x
_atom_site_fract_y
_atom_site_fract_z
_atom_type_partial_charge
C1    C     C_R   0.000000 0.419374 0.499951 0.908507
C2    C     C_1   0.161879 0.000140 0.500486 -0.095620
C3    C     C_R   0.728047 0.961700 0.501959 -0.034411
C4    C     C_R   0.038172 0.271956 0.503554 -0.034203
C5    C     C_R   0.728050 0.038304 0.499841 -0.034318
C6    C     C_R   0.961873 0.728074 0.504921 -0.032876
C7    C     C_R   0.271956 0.962215 0.507886 -0.033535
C8    C     C_R   0.461689 0.771950 0.998774 -0.034266
C9    C     C_R   0.771924 0.538022 0.993776 -0.032734
C10   C     C_R   0.538028 0.228074 0.993742 -0.032364
C11   C     C_R   0.228047 0.461696 0.001605 -0.034407
C12   C     C_R   0.538308 0.771954 0.999339 -0.034320
C13   C     C_1   0.000000 0.838122 0.499971 -0.097625
C14   C     C_R   0.228050 0.538310 0.000238 -0.034278
C15   C     C_R   0.461976 0.228075 0.006203 -0.032566
C16   C     C_R   0.771927 0.461976 0.006326 -0.032426
C17   C     C_R   0.000088 0.293409 0.497691 -0.051981
C18   C     C_R   0.293408 0.999815 0.497782 -0.051467
C19   C     C_R   0.000002 0.706585 0.499997 -0.051257
C20   C     C_R   0.706593 0.000023 0.502250 -0.052163
C21   C     C_R   0.500003 0.793408 0.997711 -0.052033
C22   C     C_R   0.793415 0.499999 0.000044 -0.051312
C23   C     C_R   0.500002 0.206585 0.999977 -0.051351
C24   C     C_1   0.838120 0.999981 0.499502 -0.095452
C25   C     C_R   0.206593 0.500017 0.002269 -0.052068
C26   C     C_2   0.077254 0.296196 0.511992 0.521355
C27   C     C_2   0.296196 0.923779 0.520668 0.520480
C28   C     C_2   0.922821 0.704071 0.514735 0.520104
C29   C     C_2   0.703810 0.077706 0.494974 0.522134
C30   C     C_2   0.922276 0.296183 0.493560 0.522591
C31   C     C_2   0.703804 0.922185 0.499274 0.522300
C32   C     C_2   0.077185 0.704069 0.485269 0.518932
C33   C     C_2   0.296184 0.077114 0.484987 0.522147
C34   C     C_2   0.577761 0.796196 0.003407 0.522016
C35   C     C_1   0.499995 0.661880 0.000468 -0.095567
C36   C     C_2   0.795934 0.423122 0.017510 0.519099
C37   C     C_2   0.423117 0.204073 0.017350 0.519556
C38   C     C_2   0.203811 0.577737 0.995760 0.522017
C39   C     C_2   0.422209 0.796188 0.002256 0.522011
C40   C     C_2   0.203805 0.422196 0.998535 0.522219
C41   C     C_2   0.576888 0.204068 0.982604 0.519173
C42   C     C_2   0.795924 0.576876 0.982582 0.519896
C43   C     C_2   0.077710 0.203764 0.504871 0.525043
C44   C     C_2   0.203764 0.922888 0.513618 0.524975
C45   C     C_2   0.922060 0.795988 0.499466 0.525606
C46   C     C_1   0.661878 0.500000 0.000059 -0.097603
C47   C     C_2   0.796252 0.077814 0.502057 0.525589
C48   C     C_2   0.922727 0.203744 0.486530 0.527814
C49   C     C_2   0.796247 0.922290 0.506356 0.526875
C50   C     C_2   0.077942 0.795996 0.500517 0.527017
C51   C     C_2   0.203743 0.076240 0.478063 0.531707
C52   C     C_2   0.577788 0.703755 0.996308 0.526762
C53   C     C_2   0.704005 0.422076 0.002297 0.526152
C54   C     C_2   0.422075 0.295988 0.002104 0.525563
C55   C     C_2   0.296252 0.577808 0.002847 0.526239
C56   C     C_2   0.422234 0.703746 0.995168 0.526600
C57   C     C_1   0.500001 0.338122 0.999962 -0.097548
C58   C     C_2   0.296247 0.422264 0.005621 0.526871
C59   C     C_2   0.577926 0.295995 0.997823 0.526140
C60   C     C_2   0.704011 0.577925 0.997835 0.525623
C61   C     C_1   0.338120 0.499989 0.999512 -0.095589
C62   C     C_1   0.000037 0.338089 0.498546 -0.098644
C63   C     C_1   0.338089 0.999914 0.498603 -0.098804
C64   C     C_1   0.000003 0.661916 0.499999 -0.101270
C65   C     C_R   0.419374 0.999997 0.499952 0.908335
C66   C     C_1   0.661913 0.000011 0.501415 -0.098636
C67   C     C_1   0.500000 0.838087 0.998562 -0.098748
C68   C     C_1   0.838084 0.499998 0.000025 -0.101249
C69   C     C_1   0.500003 0.161915 0.999987 -0.101250
C70   C     C_1   0.161913 0.500009 0.001427 -0.098690
C71   C     C_1   0.000007 0.375289 0.499280 -0.159815
C72   C     C_1   0.375289 0.999976 0.499307 -0.159772
C73   C     C_1   0.000002 0.624711 0.500001 -0.160999
C74   C     C_1   0.624712 0.000004 0.500699 -0.159774
C75   C     C_1   0.499998 0.875288 0.999290 -0.159841
C76   C     C_R   0.000001 0.580625 0.500001 0.908993
C77   C     C_1   0.875288 0.499998 0.000011 -0.161006
C78   C     C_1   0.500002 0.124711 0.999994 -0.161047
C79   C     C_1   0.124712 0.500004 0.000705 -0.159808
C80   C     C_1   0.999957 0.124682 0.500138 -0.160365
C81   C     C_1   0.124682 0.000074 0.500158 -0.160447
C82   C     C_1   1.000000 0.875320 0.499973 -0.161211
C83   C     C_1   0.875318 0.999990 0.499839 -0.160617
C84   C     C_1   0.499997 0.624682 0.000143 -0.160587
C85   C     C_1   0.624680 0.500000 0.000045 -0.161489
C86   C     C_1   0.500000 0.375320 0.999970 -0.161496
C87   C     C_R   0.580626 0.000001 0.500047 0.908450
C88   C     C_1   0.375318 0.499994 0.999842 -0.160611
C89   C     C_R   0.999990 0.500001 0.390470 0.899941
C90   C     C_R   0.500001 0.999993 0.390470 0.901338
C91   C     C_R   0.000010 0.499999 0.609530 0.902793
C92   C     C_R   0.499999 0.000007 0.609530 0.900979
C93   C     C_R   0.499990 0.000001 0.890470 0.900076
C94   C     C_R   0.000001 0.499993 0.890470 0.902849
C95   C     C_R   0.500010 0.999999 0.109530 0.902751
C96   C     C_R   0.999999 0.500007 0.109530 0.899950
C97   C     C_R   0.080605 0.000008 0.500025 0.905408
C98   C     C_R   0.499999 0.919374 0.999953 0.908546
C99   C     C_R   1.000000 0.919396 0.499991 0.905445
C100  C     C_R   0.919395 0.999999 0.499974 0.905020
C101  C     C_R   0.999995 0.080605 0.500020 0.905079
C102  C     C_R   0.580604 0.500000 0.000014 0.905314
C103  C     C_R   0.500000 0.419396 0.999990 0.905289
C104  C     C_R   0.419395 0.499999 0.999975 0.905230
C105  C     C_R   0.500000 0.580605 0.000021 0.905246
C106  C     C_1   0.999970 0.500010 0.330324 -0.165025
C107  C     C_1   0.500013 0.999980 0.330324 -0.162790
C108  C     C_1   0.000030 0.499990 0.669676 -0.161530
C109  C     C_R   0.919375 0.499999 0.999999 0.909046
C110  C     C_1   0.499986 0.000020 0.669676 -0.163888
C111  C     C_1   0.499970 0.000010 0.830324 -0.164675
C112  C     C_1   0.000014 0.499980 0.830324 -0.161506
C113  C     C_1   0.500030 0.999990 0.169676 -0.161977
C114  C     C_1   0.999986 0.500020 0.169676 -0.165012
C115  C     C_1   0.999967 0.500018 0.279602 0.026461
C116  C     C_1   0.500025 0.999977 0.279602 0.028941
C117  C     C_1   0.000033 0.499982 0.720398 0.030030
C118  C     C_1   0.499975 0.000023 0.720398 0.027341
C119  C     C_1   0.499967 0.000017 0.779602 0.027022
C120  C     C_R   0.500001 0.080625 0.000001 0.909050
C121  C     C_1   0.000025 0.499977 0.779602 0.030040
C122  C     C_1   0.500033 0.999982 0.220398 0.029315
C123  C     C_1   0.999975 0.500023 0.220398 0.026468
C124  C     C_R   0.038146 0.228005 0.504005 -0.033137
C125  C     C_R   0.228005 0.962266 0.508333 -0.034515
C126  C     C_R   0.961730 0.771977 0.502054 -0.033028
C127  C     C_R   0.772002 0.038297 0.499369 -0.033568
C128  C     C_R   0.961808 0.227996 0.494961 -0.034645
C129  C     C_R   0.771999 0.961692 0.501487 -0.034554
C130  C     C_R   0.038273 0.771980 0.497922 -0.034470
C131  C     C_R   0.080626 0.500001 0.000048 0.908524
C132  C     C_R   0.227996 0.037800 0.490806 -0.037097
C133  C     C_R   0.538308 0.728002 0.999806 -0.034700
C134  C     C_R   0.728021 0.461780 0.003481 -0.033653
C135  C     C_R   0.461780 0.271978 0.003339 -0.033223
C136  C     C_R   0.272002 0.538306 0.999767 -0.034248
C137  C     C_R   0.461687 0.727997 0.999243 -0.034384
C138  C     C_R   0.271999 0.461691 0.001134 -0.034655
C139  C     C_R   0.538223 0.271980 0.996590 -0.033673
C140  C     C_R   0.728021 0.538220 0.996643 -0.033371
C141  C     C_R   0.999888 0.206553 0.500910 -0.050431
C142  C     C_1   0.999921 0.161879 0.500447 -0.094452
C143  C     C_R   0.206553 0.000207 0.500971 -0.050129
C144  C     C_R   0.000001 0.793461 0.499980 -0.050060
C145  C     C_R   0.793447 0.999973 0.499005 -0.050412
C146  C     C_R   0.499993 0.706553 0.000953 -0.050309
C147  C     C_R   0.706539 0.500000 0.000065 -0.050108
C148  C     C_R   0.500001 0.293461 0.999960 -0.050162
C149  C     C_R   0.293447 0.499984 0.999024 -0.050302
C150  C     C_R   0.961836 0.271949 0.494489 -0.034538
C151  C     C_R   0.271949 0.037744 0.490331 -0.034672
C152  C     C_R   0.038131 0.728074 0.495069 -0.032260
H1    H     H_    0.081603 0.325678 0.490386 0.064654
H2    H     H_    0.826362 0.418654 0.998569 0.066407
H3    H     H_    0.418657 0.173629 0.998409 0.066004
H4    H     H_    0.174329 0.580913 0.017740 0.063661
H5    H     H_    0.419330 0.825676 0.980205 0.063810
H6    H     H_    0.174322 0.419455 0.020619 0.063345
H7    H     H_    0.581347 0.173638 0.001552 0.066460
H8    H     H_    0.826372 0.581344 0.001513 0.065838
H9    H     H_    0.079292 0.174280 0.527175 0.053336
H10   H     H_    0.174279 0.922667 0.536012 0.058539
H11   H     H_    0.919874 0.826428 0.519143 0.059440
H12   H     H_    0.325672 0.918129 0.499615 0.064876
H13   H     H_    0.825721 0.080455 0.479913 0.058445
H14   H     H_    0.918356 0.174287 0.508196 0.057912
H15   H     H_    0.825717 0.918982 0.484378 0.058017
H16   H     H_    0.080131 0.826423 0.480833 0.059573
H17   H     H_    0.174296 0.081908 0.499186 0.055919
H18   H     H_    0.580686 0.674280 0.018388 0.058094
H19   H     H_    0.673580 0.420261 0.022052 0.058846
H20   H     H_    0.420251 0.326431 0.021844 0.059492
H21   H     H_    0.325722 0.580566 0.980730 0.058722
H22   H     H_    0.419179 0.674274 0.017212 0.058525
H23   H     H_    0.918712 0.673627 0.495648 0.065673
H24   H     H_    0.325716 0.419070 0.983610 0.058127
H25   H     H_    0.579751 0.326423 0.978073 0.058800
H26   H     H_    0.673566 0.579740 0.978094 0.059693
H27   H     H_    0.674328 0.080999 0.516923 0.063720
H28   H     H_    0.920726 0.325676 0.471274 0.063220
H29   H     H_    0.674322 0.919560 0.521386 0.063235
H30   H     H_    0.081292 0.673637 0.504360 0.066477
H31   H     H_    0.325672 0.077308 0.462598 0.063216
H32   H     H_    0.580797 0.825684 0.981398 0.063545
O1    O     O_R   0.965560 0.438990 0.499980 -0.611509
O2    O     O_R   0.938990 0.534440 0.999980 -0.612411
O3    O     O_R   0.534440 0.061010 0.999980 -0.612452
O4    O     O_R   0.061010 0.465560 0.999980 -0.611935
O5    O     O_R   0.534440 0.938990 0.000020 -0.612036
O6    O     O_R   0.061010 0.534440 0.000020 -0.612026
O7    O     O_R   0.465560 0.061010 0.000020 -0.612458
O8    O     O_R   0.938990 0.465560 0.000020 -0.612476
O9    O     O_R   0.060930 0.999970 0.453240 -0.606728
O10   O     O_R   0.999970 0.939070 0.453240 -0.610440
O11   O     O_R   0.939070 0.000030 0.453240 -0.612128
O12   O     O_R   0.438990 0.034440 0.499980 -0.611130
O13   O     O_R   0.000030 0.060930 0.453240 -0.606832
O14   O     O_R   0.939070 0.999970 0.546760 -0.608172
O15   O     O_R   0.000030 0.939070 0.546760 -0.610116
O16   O     O_R   0.060930 0.000030 0.546760 -0.613791
O17   O     O_R   0.999970 0.060930 0.546760 -0.613380
O18   O     O_R   0.560930 0.499970 0.953240 -0.610038
O19   O     O_R   0.499970 0.439070 0.953240 -0.610531
O20   O     O_R   0.439070 0.500030 0.953240 -0.612023
O21   O     O_R   0.500030 0.560930 0.953240 -0.608221
O22   O     O_R   0.439070 0.499970 0.046760 -0.608307
O23   O     O_R   0.034440 0.561010 0.499980 -0.612477
O24   O     O_R   0.500030 0.439070 0.046760 -0.610082
O25   O     O_R   0.560930 0.500030 0.046760 -0.610589
O26   O     O_R   0.499970 0.560930 0.046760 -0.612118
O27   O     O_R   0.965560 0.499980 0.417220 -0.610093
O28   O     O_R   0.499980 0.034440 0.417220 -0.608910
O29   O     O_R   0.034440 0.500020 0.417220 -0.609464
O30   O     O_R   0.500020 0.965560 0.417220 -0.608704
O31   O     O_R   0.034440 0.499980 0.582780 -0.608764
O32   O     O_R   0.500020 0.034440 0.582780 -0.608902
O33   O     O_R   0.965560 0.500020 0.582780 -0.607732
O34   O     O_R   0.561010 0.965560 0.499980 -0.611949
O35   O     O_R   0.499980 0.965560 0.582780 -0.609508
O36   O     O_R   0.465560 0.999980 0.917220 -0.609785
O37   O     O_R   0.999980 0.534440 0.917220 -0.607747
O38   O     O_R   0.534440 0.000020 0.917220 -0.609572
O39   O     O_R   0.000020 0.465560 0.917220 -0.608749
O40   O     O_R   0.534440 0.999980 0.082780 -0.608532
O41   O     O_R   0.000020 0.534440 0.082780 -0.610180
O42   O     O_R   0.465560 0.000020 0.082780 -0.608233
O43   O     O_R   0.999980 0.465560 0.082780 -0.609374
O44   O     O_2   0.104012 0.284497 0.545140 -0.511533
O45   O     O_R   0.034440 0.438990 0.500020 -0.612413
O46   O     O_2   0.284505 0.899131 0.556705 -0.510337
O47   O     O_2   0.895718 0.717202 0.546294 -0.508421
O48   O     O_2   0.715504 0.106003 0.464334 -0.508050
O49   O     O_2   0.891730 0.284471 0.519854 -0.507742
O50   O     O_2   0.715496 0.892984 0.470226 -0.508005
O51   O     O_2   0.104293 0.717183 0.453714 -0.510563
O52   O     O_2   0.284479 0.109151 0.507783 -0.508673
O53   O     O_2   0.606411 0.784500 0.033465 -0.508361
O54   O     O_2   0.782826 0.396622 0.050020 -0.510098
O55   O     O_2   0.396603 0.217206 0.049827 -0.509222
O56   O     O_R   0.561010 0.034440 0.500020 -0.612030
O57   O     O_2   0.215506 0.606196 0.965403 -0.508134
O58   O     O_2   0.393345 0.784488 0.031886 -0.508430
O59   O     O_2   0.215498 0.393147 0.969205 -0.508092
O60   O     O_2   0.603403 0.217181 0.950125 -0.510373
O61   O     O_2   0.782785 0.603375 0.950076 -0.508746
O62   O     O_2   0.108227 0.215465 0.478505 -0.503776
O63   O     O_2   0.215467 0.890871 0.490765 -0.504116
O64   O     O_2   0.892081 0.782868 0.473131 -0.507782
O65   O     O_2   0.784581 0.107003 0.531143 -0.508494
O66   O     O_2   0.895991 0.215404 0.453324 -0.508064
O67   O     O_R   0.965560 0.561010 0.500020 -0.612353
O68   O     O_2   0.784574 0.894003 0.537029 -0.507038
O69   O     O_2   0.107916 0.782899 0.526867 -0.504465
O70   O     O_2   0.215390 0.100874 0.441982 -0.503914
O71   O     O_2   0.606636 0.715435 0.966633 -0.506249
O72   O     O_2   0.717100 0.391613 0.977023 -0.505451
O73   O     O_2   0.391623 0.282866 0.976804 -0.507043
O74   O     O_2   0.284581 0.606841 0.032220 -0.507475
O75   O     O_2   0.393599 0.715419 0.965065 -0.507134
O76   O     O_2   0.284573 0.393819 0.036019 -0.506676
O77   O     O_2   0.608377 0.282895 0.023131 -0.505288
O78   O     O_R   0.438990 0.965560 0.500020 -0.612726
O79   O     O_2   0.717137 0.608388 0.023101 -0.506971
O80   O     O_R   0.465560 0.938990 0.999980 -0.611939
Zn1   Zn    Zn3+2 0.954010 0.500000 0.500000 1.018876
Zn2   Zn    Zn3+2 0.000000 0.000000 0.562390 1.014426
Zn3   Zn    Zn3+2 0.500000 0.500000 0.937610 1.017136
Zn4   Zn    Zn3+2 0.500000 0.500000 0.062390 1.016893
Zn5   Zn    Zn3+2 0.500000 0.045990 0.500000 1.019569
Zn6   Zn    Zn3+2 0.045990 0.500000 0.500000 1.017642
Zn7   Zn    Zn3+2 0.500000 0.954010 0.500000 1.017939
Zn8   Zn    Zn3+2 0.454010 0.000000 0.000000 1.018212
Zn9   Zn    Zn3+2 0.000000 0.545990 0.000000 1.018301
Zn10  Zn    Zn3+2 0.545990 0.000000 0.000000 1.018029
Zn11  Zn    Zn3+2 0.000000 0.454010 0.000000 1.018140
Zn12  Zn    Zn3+2 1.000000 0.000000 0.437610 1.020293

loop_
_geom_bond_atom_site_label_1
_geom_bond_atom_site_label_2
_ccdc_geom_bond_type
O25   Zn4   S    
C90   O28   A    
O5    Zn10  S    
C42   O61   D    
C91   O33   A    
C2    C143  S    
C6    C28   S    
C99   O15   A    
C82   C99   S    
C37   H3    S    
C17   C150  A    
C60   O79   D    
C38   H4    S    
C16   C134  A    
C110  C118  T    
C65   O78   A    
C136  C149  A    
C32   H30   S    
O2    Zn9   S    
C36   H2    S    
C89   O27   A    
C5    C20   A    
O9    Zn12  S    
C6    C19   A    
C99   O10   A    
C9    C42   S    
C1    C71   S    
C116  C122  S    
O30   Zn7   S    
C93   O36   A    
C104  O20   A    
C40   H6    S    
C24   C83   T    
C95   C113  S    
C90   C107  S    
C49   H15   S    
C24   C145  S    
O8    Zn11  S    
C47   H13   S    
C9    C140  A    
C101  O13   A    
C9    C22   A    
C37   O55   D    
O23   Zn6   S    
C15   C135  A    
C11   C25   A    
C109  O8    A    
C60   H26   S    
C55   C136  S    
C66   C74   T    
C14   C25   A    
O27   Zn1   S    
C7    C27   S    
C57   C86   T    
C4    C124  A    
C111  C119  T    
C87   O34   A    
C97   O9    A    
C34   O53   D    
O43   Zn11  S    
C118  C119  S    
C55   H21   S    
C91   O31   A    
C50   C130  S    
C44   O63   D    
O42   Zn8   S    
O78   Zn7   S    
C41   H7    S    
C49   O68   D    
C15   C37   S    
C113  C122  T    
O21   Zn3   S    
C26   O44   D    
O6    Zn9   S    
O22   Zn4   S    
C89   C106  S    
C33   H31   S    
C94   O37   A    
O26   Zn4   S    
C64   C73   T    
O37   Zn9   S    
C93   O38   A    
C8    C39   S    
C104  O22   A    
C74   C87   S    
C130  C144  A    
O18   Zn3   S    
O67   Zn1   S    
C129  C145  A    
C76   O23   A    
C3    C31   S    
C39   O58   D    
C131  O4    A    
C58   C138  S    
C132  C143  A    
O16   Zn2   S    
O80   Zn8   S    
C140  C147  A    
C39   H5    S    
C10   C41   S    
C48   O66   D    
C52   C133  S    
C97   O16   A    
C96   C114  S    
C69   C78   T    
C44   H10   S    
C98   O5    A    
O36   Zn8   S    
C86   C103  S    
C91   C108  S    
C45   O64   D    
C88   C104  S    
C59   O77   D    
C19   C152  A    
O15   Zn2   S    
C5    C29   S    
C138  C149  A    
C36   O54   D    
C139  C148  A    
C31   O50   D    
C42   H8    S    
C44   C125  S    
C115  C123  S    
C41   O60   D    
O1    Zn1   S    
C96   O43   A    
C54   H20   S    
C137  C146  A    
C59   H25   S    
C103  O24   A    
C6    C126  A    
C33   C151  S    
C120  O7    A    
C52   H18   S    
O13   Zn12  S    
C100  O11   A    
O24   Zn4   S    
C49   C129  S    
C23   C69   S    
C75   C98   S    
C105  O26   A    
O28   Zn5   S    
C56   H22   S    
C8    C137  A    
C35   C146  S    
O56   Zn5   S    
O38   Zn10  S    
C92   O35   A    
C78   C120  S    
O19   Zn3   S    
C30   O49   D    
C134  C147  A    
C61   C88   T    
C1    O45   A    
C17   C62   S    
C14   C38   S    
O45   Zn6   S    
C27   O46   D    
C46   C147  S    
C32   C152  S    
C59   C139  S    
C45   C126  S    
O7    Zn8   S    
C7    C18   A    
C79   C131  S    
C5    C127  A    
C8    C21   A    
C48   H14   S    
O12   Zn5   S    
C35   C84   T    
C7    C125  A    
C34   H32   S    
C28   O47   D    
C22   C68   S    
C33   O52   D    
C12   C21   A    
C27   H12   S    
C93   C111  S    
C4    C17   A    
C43   H9    S    
C128  C150  A    
C53   O72   D    
C127  C145  A    
O33   Zn1   S    
C83   C100  S    
C130  C152  A    
C94   O39   A    
C109  O2    A    
C73   C76   S    
C124  C141  A    
C126  C144  A    
C56   O75   D    
C67   C75   T    
O17   Zn2   S    
C114  C123  T    
C12   C34   S    
C18   C151  A    
C120  O3    A    
O32   Zn5   S    
C90   O30   A    
C89   O29   A    
C128  C141  A    
O20   Zn3   S    
C20   C66   S    
C68   C77   T    
C132  C151  A    
C38   O57   D    
C77   C109  S    
C80   C142  T    
C16   C22   A    
C87   O56   A    
C70   C79   T    
C3    C129  A    
O41   Zn9   S    
C108  C117  T    
C52   O71   D    
C31   H29   S    
C58   H24   S    
C53   C134  S    
O34   Zn7   S    
C29   O48   D    
C26   H1    S    
C60   C140  S    
C4    C26   S    
C51   C132  S    
C28   H23   S    
C47   C127  S    
C133  C146  A    
O4    Zn11  S    
C1    O1    A    
C10   C23   A    
C65   C72   S    
O40   Zn10  S    
C80   C101  S    
O10   Zn12  S    
C95   O40   A    
C65   O12   A    
O14   Zn2   S    
C106  C115  T    
C12   C133  A    
C55   O74   D    
C11   C138  A    
C96   O41   A    
C46   C85   T    
C29   H27   S    
C45   H11   S    
C95   O42   A    
C112  C121  T    
C15   C23   A    
C3    C20   A    
C141  C142  S    
C16   C36   S    
O29   Zn6   S    
C50   H16   S    
C56   C137  S    
C131  O6    A    
C92   C110  S    
C14   C136  A    
C48   C128  S    
C125  C143  A    
C25   C70   S    
C84   C105  S    
C13   C82   T    
C94   C112  S    
C81   C97   S    
C19   C64   S    
C62   C71   T    
C92   O32   A    
O35   Zn7   S    
O31   Zn6   S    
C102  O18   A    
C11   C40   S    
C18   C63   S    
C105  O21   A    
C103  O19   A    
C107  C116  T    
C47   O65   D    
C40   O59   D    
C30   C150  S    
C53   H19   S    
C54   C135  S    
O3    Zn10  S    
C98   O80   A    
C51   O70   D    
O39   Zn11  S    
C63   C72   T    
C135  C148  A    
C10   C139  A    
C57   C148  S    
C58   O76   D    
O11   Zn12  S    
C50   O69   D    
C54   O73   D    
C30   H28   S    
C2    C81   T    
C101  O17   A    
C117  C121  S    
C43   O62   D    
C76   O67   A    
C61   C149  S    
C43   C124  S    
C13   C144  S    
C21   C67   S    
C85   C102  S    
C51   H17   S    
C102  O25   A    
C32   O51   D    
C100  O14   A    
