data_mof_unit_33431.cif
_audit_creation_date              2012-12-10T16:57:47-0500
_audit_creation_method            fapswitch 2.2
_symmetry_space_group_name_H-M    P1
_symmetry_Int_Tables_number       1
_space_group_crystal_system       triclinic
_cell_length_a                    7.74075
_cell_length_b                    8.577206
_cell_length_c                    19.084413
_cell_angle_alpha                 90.912622
_cell_angle_beta                  86.120632
_cell_angle_gamma                 93.642982
_cell_volume                      1261.54684469

loop_
_atom_site_label
_atom_site_type_symbol
_atom_type_description
_atom_site_fract_x
_atom_site_fract_y
_atom_site_fract_z
_atom_type_partial_charge
C1    C     C_R   0.545875 0.794845 0.498170 0.963818
C2    C     C_R   0.649690 0.481558 0.176895 -0.169812
C3    C     C_R   0.550769 0.571624 0.852395 0.046429
C4    C     C_R   0.541976 0.580696 0.145368 0.051692
C5    C     C_R   0.651801 0.461766 0.816657 -0.181062
C6    C     C_R   0.412604 0.653759 0.186211 -0.191166
C7    C     C_R   0.633058 0.427820 0.745777 0.157615
C8    C     C_R   0.390446 0.630095 0.258646 0.156836
C9    C     C_R   0.512705 0.509600 0.710156 -0.069279
C10   C     C_R   0.500049 0.527971 0.289806 -0.063060
C11   C     C_R   0.557570 0.598957 0.069281 0.299751
C12   C     C_R   0.454120 0.205151 0.501805 0.967167
C13   C     C_R   0.562296 0.595083 0.927817 0.298487
C14   C     C_3   0.736879 0.299188 0.711914 -0.432772
C15   C     C_3   0.926668 0.355384 0.696352 -0.772456
C16   C     C_3   0.255089 0.721200 0.299832 -0.424003
C17   C     C_3   0.079187 0.629221 0.305044 -0.776280
C18   C     C_2   0.570111 0.958240 0.497154 -0.391537
C19   C     C_2   0.429870 0.041743 0.502756 -0.398066
C20   C     C_R   0.502433 0.497365 0.634525 0.854001
C21   C     C_R   0.498447 0.506148 0.365473 0.853058
C22   C     C_R   0.410244 0.617478 0.746458 -0.237856
C23   C     C_R   0.628181 0.454924 0.248188 -0.241084
C24   C     C_R   0.429057 0.648364 0.817032 -0.168381
H1    H     H_    0.318515 0.681499 0.719671 0.162303
H2    H     H_    0.986512 0.619566 0.551544 0.186997
H3    H     H_    0.997602 0.261603 0.668565 0.242790
H4    H     H_    0.936578 0.460182 0.662656 0.265652
H5    H     H_    0.989248 0.385071 0.745938 0.244971
H6    H     H_    0.730601 0.198014 0.747913 0.199058
H7    H     H_    0.681515 0.253237 0.663029 0.215834
H8    H     H_    0.029822 0.611856 0.251972 0.247232
H9    H     H_    0.089392 0.513186 0.328754 0.259367
H10   H     H_    0.984554 0.694954 0.338196 0.250527
H11   H     H_    0.296340 0.755540 0.352715 0.223319
H12   H     H_    0.713636 0.377340 0.271061 0.163772
H13   H     H_    0.239448 0.833527 0.273337 0.193686
H14   H     H_    0.348641 0.732672 0.843762 0.158336
H15   H     H_    0.749621 0.422415 0.146463 0.159821
H16   H     H_    0.742390 0.398279 0.844320 0.156180
H17   H     H_    0.328845 0.730403 0.161784 0.152644
H18   H     H_    0.702556 0.009303 0.491870 0.180554
H19   H     H_    0.297424 0.990676 0.508029 0.179770
H20   H     H_    0.013519 0.380672 0.448346 0.187769
N1    N     N_R   0.690044 0.531876 0.960911 -0.178765
N2    N     N_R   0.433237 0.667463 0.036152 -0.176699
N3    N     N_R   0.687746 0.533829 0.030413 -0.176716
N4    N     N_R   0.435558 0.665556 0.966550 -0.173875
N5    N     N_2   0.950330 0.457950 0.481240 -0.175189
N6    N     N_2   0.049670 0.542050 0.518760 -0.176797
O1    O     O_R   0.389250 0.738570 0.504600 -0.615871
O2    O     O_R   0.610750 0.261430 0.495400 -0.611990
O3    O     O_R   0.678400 0.711620 0.492580 -0.629067
O4    O     O_R   0.321600 0.288380 0.507420 -0.628448
O5    O     O_R   0.355380 0.513500 0.607880 -0.617915
O6    O     O_R   0.644620 0.486500 0.392120 -0.618879
O7    O     O_R   0.644530 0.486550 0.595850 -0.616181
O8    O     O_R   0.355470 0.513450 0.404150 -0.620284
Zn1   Zn    Zn3+2 0.306930 0.517990 0.508030 0.925672
Zn2   Zn    Zn3+2 0.693070 0.482010 0.491970 0.928381

loop_
_geom_bond_atom_site_label_1
_geom_bond_atom_site_label_2
_ccdc_geom_bond_type
H20   N5    S    
C21   O6    A    
C2    C4    A    
C10   C21   S    
O5    Zn1   S    
C10   C23   A    
C13   N4    A    
C5    C7    A    
C14   H7    S    
C9    C20   S    
C24   H14   S    
C3    C13   S    
C16   H13   S    
C18   H18   S    
C1    C18   S    
C21   O8    A    
C8    C16   S    
C4    C11   S    
C13   N1    A    
C1    O1    A    
C15   H4    S    
N5    Zn2   S    
C17   H9    S    
C14   H6    S    
C20   O5    A    
N6    Zn1   S    
C12   C19   S    
C4    C6    A    
C12   O2    A    
O3    Zn2   S    
C19   H19   S    
C15   H5    S    
N2    N4    A    
O4    Zn1   S    
H2    N6    S    
C16   H11   S    
C15   H3    S    
C22   C24   A    
C9    C22   A    
C5    H16   S    
O1    Zn1   S    
C17   H10   S    
C23   H12   S    
C20   O7    A    
C8    C10   A    
N5    N6    D    
N1    N3    A    
C2    C23   A    
C7    C9    A    
C17   H8    S    
C1    O3    A    
C14   C15   S    
C18   C19   D    
C11   N2    A    
C6    C8    A    
O2    Zn2   S    
C3    C5    A    
O8    Zn1   S    
C11   N3    A    
C2    H15   S    
C6    H17   S    
C7    C14   S    
C12   O4    A    
O6    Zn2   S    
C3    C24   A    
C16   C17   S    
O7    Zn2   S    
C22   H1    S    
