data_mof_unit_11722.cif
_audit_creation_date              2012-12-10T17:10:28-0500
_audit_creation_method            fapswitch 2.2
_symmetry_space_group_name_H-M    P1
_symmetry_Int_Tables_number       1
_space_group_crystal_system       triclinic
_cell_length_a                    10.722307
_cell_length_b                    13.070646
_cell_length_c                    11.741101
_cell_angle_alpha                 98.420225
_cell_angle_beta                  96.199133
_cell_angle_gamma                 89.30853
_cell_volume                      1618.21870276

loop_
_atom_site_label
_atom_site_type_symbol
_atom_type_description
_atom_site_fract_x
_atom_site_fract_y
_atom_site_fract_z
_atom_type_partial_charge
C1    C     C_R   0.498429 0.299820 0.480446 0.878029
C2    C     C_R   0.501570 0.700180 0.519554 0.878028
C3    C     C_R   0.507426 0.812286 0.528331 -0.084983
C4    C     C_R   0.492574 0.187714 0.471669 -0.084982
C5    C     C_R   0.407239 0.027843 0.364886 -0.071200
C6    C     C_R   0.592761 0.972156 0.635114 -0.071200
C7    C     C_R   0.421701 0.133678 0.375376 -0.192211
C8    C     C_R   0.578299 0.866322 0.624624 -0.192211
C9    C     C_R   0.553307 0.134555 0.558198 0.264945
C10   C     C_R   0.446693 0.865445 0.441802 0.264945
C11   C     C_R   0.537029 0.026994 0.548787 0.042770
C12   C     C_R   0.462971 0.973005 0.451213 0.042770
C13   C     C_R   0.417764 0.380687 0.024324 0.388157
C14   C     C_R   0.582236 0.619313 0.975676 0.388156
C15   C     C_R   0.416553 0.398456 0.144594 0.018496
C16   C     C_R   0.583447 0.601544 0.855406 0.018496
C17   C     C_R   0.539999 0.549677 0.157675 0.608292
C18   C     C_R   0.460001 0.450323 0.842325 0.608291
C19   C     C_R   0.530844 0.543509 0.034194 -0.196319
C20   C     C_R   0.469156 0.456491 0.965806 -0.196319
C21   C     C_R   0.261309 0.511770 0.497753 0.849792
C22   C     C_R   0.738691 0.488230 0.502247 0.849792
C23   C     C_R   0.124095 0.642094 0.678308 0.180779
C24   C     C_R   0.875905 0.357906 0.321692 0.180779
C25   C     C_R   0.081059 0.659983 0.788252 0.202941
C26   C     C_R   0.918942 0.340017 0.211747 0.202941
C27   C     C_R   0.983923 0.598818 0.812948 0.187358
C28   C     C_R   0.016077 0.401182 0.187052 0.187358
C29   C     C_R   0.923444 0.526062 0.725006 0.309575
C30   C     C_R   0.076556 0.473938 0.274994 0.309575
C31   C     C_R   0.954347 0.519528 0.609489 -0.099897
C32   C     C_R   0.045653 0.480471 0.390511 -0.099897
C33   C     C_R   0.068876 0.563250 0.592598 -0.071654
C34   C     C_R   0.931124 0.436750 0.407402 -0.071654
C35   C     C_R   0.876831 0.471251 0.510401 -0.006115
C36   C     C_R   0.123169 0.528749 0.489599 -0.006115
Cu1   Cu    Cu3+1 0.509250 0.507730 0.615930 1.079681
Cu2   Cu    Cu3+1 0.490750 0.492270 0.384070 1.079681
H1    H     H_    0.624905 0.826163 0.691698 0.182091
H2    H     H_    0.375095 0.173837 0.308302 0.182091
H3    H     H_    0.351402 0.990567 0.288347 0.216055
H4    H     H_    0.648598 0.009433 0.711653 0.216055
H5    H     H_    0.626273 0.657932 0.812827 0.169497
H6    H     H_    0.373727 0.342068 0.187173 0.169497
N1    N     N_R   0.523180 0.519350 0.790130 -0.241190
N2    N     N_R   0.476820 0.480650 0.209870 -0.241190
O1    O     O_R   0.506570 0.354460 0.582000 -0.507522
O2    O     O_R   0.493430 0.645540 0.418000 -0.507522
O3    O     O_R   0.490940 0.341410 0.386200 -0.598884
O4    O     O_R   0.509060 0.658590 0.613800 -0.598884
O5    O     O_R   0.327470 0.506520 0.597900 -0.538158
O6    O     O_R   0.672530 0.493480 0.402100 -0.538158
O7    O     O_R   0.311840 0.493460 0.402100 -0.564951
O8    O     O_R   0.688160 0.506540 0.597900 -0.564951
Br1   Br    Br    0.070938 0.381848 0.034417 -0.228678
Br2   Br    Br    0.929062 0.618152 0.965583 -0.228678
Cl1   Cl    Cl    0.370330 0.254661 0.959753 -0.411916
Cl2   Cl    Cl    0.629670 0.745339 0.040247 -0.411916
Br3   Br    Br    0.233727 0.742722 0.637036 -0.389820
Br4   Br    Br    0.766273 0.257278 0.362964 -0.389820
Br5   Br    Br    0.159286 0.764484 0.906594 -0.219098
Br6   Br    Br    0.840714 0.235515 0.093407 -0.219098
Cl3   Cl    Cl    0.837670 0.426326 0.767757 -0.419293
Cl4   Cl    Cl    0.162329 0.573673 0.232243 -0.419293
Br7   Br    Br    0.335202 0.793652 0.315279 -0.286211
Br8   Br    Br    0.664797 0.206348 0.684721 -0.286211
Cl5   Cl    Cl    0.348838 0.366098 0.755700 -0.450358
Cl6   Cl    Cl    0.651161 0.633902 0.244300 -0.450358

loop_
_geom_bond_atom_site_label_1
_geom_bond_atom_site_label_2
_ccdc_geom_bond_type
C16   N1    A    
C23   Br3   S    
C7    H2    S    
C31   C33   A    
Cu1   Cu2   S    
Cu1   O4    S    
C8    H1    S    
C30   Cl4   S    
C27   C29   A    
C26   C28   A    
C19   C20   A    
C3    C10   A    
C13   C15   A    
C4    C9    A    
C24   Br4   S    
C1    C4    S    
C2    O2    A    
C27   Br2   S    
C28   C30   A    
C2    C3    S    
C26   Br6   S    
C22   O8    A    
C21   C36   S    
C25   Br5   S    
C21   O7    A    
C22   C35   S    
C9    C11   A    
C16   H5    S    
Cu2   O7    S    
C10   C12   A    
C4    C7    A    
Cu1   O5    S    
Cu1   O8    S    
C32   C36   A    
C22   O6    A    
C29   Cl3   S    
C17   C19   A    
C28   Br1   S    
C24   C26   A    
C15   H6    S    
C3    C8    A    
C18   C20   A    
C23   C25   A    
C25   C27   A    
C14   Cl2   S    
C31   C35   A    
Cu2   N2    S    
Cu1   O1    S    
Cu1   N1    S    
C30   C32   A    
C18   N1    A    
C21   O5    A    
C33   C36   A    
Cu2   O6    S    
C17   N2    A    
C18   Cl5   S    
C5    C12   A    
C5    C7    A    
C34   C35   A    
C6    H4    S    
C10   Br7   S    
C6    C11   A    
Cu2   O3    S    
C5    H3    S    
C9    Br8   S    
C1    O1    A    
C17   Cl6   S    
C6    C8    A    
C2    O4    A    
C15   N2    A    
C13   Cl1   S    
C14   C16   A    
C29   C31   A    
Cu2   O2    S    
C14   C19   A    
C13   C20   A    
C24   C34   A    
C11   C12   A    
C32   C34   A    
C23   C33   A    
C1    O3    A    
