data_mof_unit_33654.cif
_audit_creation_date              2012-12-11T15:41:32-0500
_audit_creation_method            fapswitch 2.2
_symmetry_space_group_name_H-M    P1
_symmetry_Int_Tables_number       1
_space_group_crystal_system       triclinic
_cell_length_a                    14.861338
_cell_length_b                    15.142992
_cell_length_c                    15.05272
_cell_angle_alpha                 109.487775
_cell_angle_beta                  109.622547
_cell_angle_gamma                 109.935049
_cell_volume                      2587.16950907

loop_
_atom_site_label
_atom_site_type_symbol
_atom_type_description
_atom_site_fract_x
_atom_site_fract_y
_atom_site_fract_z
_atom_type_partial_charge
C1    C     C_R   0.252863 0.065874 0.976625 -0.108493
C2    C     C_R   0.653363 0.774375 0.343650 -0.108915
C3    C     C_R   0.405573 0.244388 0.684122 -0.168540
C4    C     C_R   0.592423 0.701219 0.231188 -0.182521
C5    C     C_R   0.360703 0.296436 0.736121 -0.113615
C6    C     C_R   0.645879 0.671068 0.175875 -0.111838
C7    C     C_R   0.244734 0.254459 0.681351 0.353886
C8    C     C_R   0.762329 0.717136 0.234663 0.346490
C9    C     C_R   0.176527 0.163425 0.574876 0.457191
C10   C     C_R   0.822795 0.790212 0.348080 0.451074
C11   C     C_R   0.222736 0.112523 0.524952 -0.179137
C12   C     C_R   0.806879 0.008495 0.097308 -0.084228
C13   C     C_R   0.767973 0.818401 0.401952 -0.145872
C14   C     C_R   0.439279 0.491621 0.866647 -0.096652
C15   C     C_R   0.576263 0.485124 0.040524 -0.116114
C16   C     C_R   0.747366 0.223385 0.313649 -0.043961
C17   C     C_R   0.192981 0.791657 0.702086 -0.016528
C18   C     C_R   0.507438 0.582574 0.972403 0.076933
C19   C     C_R   0.506580 0.393093 0.936056 0.072932
C20   C     C_R   0.577786 0.580583 0.060384 0.118577
C21   C     C_R   0.436160 0.394243 0.847472 0.107480
C22   C     C_R   0.869062 0.526722 0.427922 -0.131994
C23   C     C_R   0.772230 0.324890 0.324396 -0.000506
C24   C     C_R   0.958815 0.523523 0.621227 -0.113812
C25   C     C_R   0.960079 0.620754 0.522105 -0.104154
C26   C     C_R   0.867824 0.429490 0.526972 -0.082167
C27   C     C_R   0.012147 0.616592 0.616292 0.089256
C28   C     C_R   0.830707 0.427960 0.427314 0.105621
C29   C     C_R   0.455863 0.851321 0.488730 0.558592
C30   C     C_R   0.552316 0.050798 0.495691 0.529055
C31   C     C_R   0.452278 0.851332 0.395883 -0.329910
C32   C     C_R   0.556050 0.050524 0.587394 -0.311735
C33   C     C_R   0.501397 0.950750 0.400727 -0.036263
C34   C     C_R   0.128731 0.698864 0.698899 -0.009920
C35   C     C_R   0.508288 0.951640 0.583851 -0.049742
C36   C     C_R   0.135684 0.068231 0.168767 0.040419
C37   C     C_R   0.051343 0.172831 0.073606 0.021658
C38   C     C_R   0.043110 0.071478 0.168156 -0.181789
C39   C     C_R   0.139293 0.163251 0.068192 -0.192819
C40   C     C_R   0.407175 0.914040 0.211999 -0.175357
C41   C     C_R   0.594346 0.028812 0.780577 -0.182639
C42   C     C_R   0.991373 0.110947 0.108077 0.062348
C43   C     C_R   0.171642 0.098040 0.102058 0.057326
C44   C     C_R   0.591971 0.293917 0.989889 0.404044
C45   C     C_R   0.499705 0.951649 0.307013 0.007660
C46   C     C_R   0.409336 0.686068 0.960908 0.452858
C47   C     C_R   0.591889 0.003151 0.302478 0.480269
C48   C     C_R   0.408878 0.941777 0.685021 0.485200
C49   C     C_R   0.408405 0.207007 0.904125 -0.187517
C50   C     C_R   0.595566 0.780890 0.047139 -0.139647
C51   C     C_R   0.746582 0.313239 0.222138 -0.082715
C52   C     C_R   0.193633 0.701168 0.791011 -0.047793
C53   C     C_R   0.248478 0.970534 0.062931 -0.096372
C54   C     C_R   0.805094 0.096746 0.005359 -0.101537
C55   C     C_R   0.226158 0.049856 0.052884 0.052576
C56   C     C_R   0.502794 0.958075 0.677600 0.026531
C57   C     C_R   0.872442 0.072956 0.070539 0.040541
C58   C     C_1   0.190651 0.034770 0.238353 0.086036
C59   C     C_1   0.027958 0.247312 0.044421 0.113814
C60   C     C_R   0.501088 0.295800 0.930330 -0.044301
C61   C     C_R   0.503815 0.678632 0.988706 -0.082326
C62   C     C_R   0.336789 0.152634 0.579446 -0.102612
Cl1   Cl    Cl    0.183169 0.310705 0.746999 -0.509821
Cl2   Cl    Cl    0.280371 0.899953 0.577290 -0.620789
Cl3   Cl    Cl    0.832536 0.683605 0.166820 -0.526306
Cl4   Cl    Cl    0.032719 0.111879 0.501711 -0.491182
Cl5   Cl    Cl    0.966675 0.844228 0.425325 -0.545835
Cl6   Cl    Cl    0.394431 0.726467 0.483943 -0.587642
Cl7   Cl    Cl    0.605397 0.177426 0.501275 -0.667148
Cl8   Cl    Cl    0.724098 0.362569 0.007004 -0.614018
Cl9   Cl    Cl    0.279073 0.586025 0.924362 -0.622651
Cl10  Cl    Cl    0.723674 0.024444 0.380516 -0.618105
H1    H     H_    0.244714 0.120105 0.947165 0.114259
H2    H     H_    0.992798 0.518834 0.694088 0.156901
H3    H     H_    0.995271 0.692642 0.516599 0.179077
H4    H     H_    0.835140 0.356368 0.531214 0.175527
H5    H     H_    0.412590 0.774999 0.320878 0.189465
H6    H     H_    0.592092 0.127475 0.660458 0.196557
H7    H     H_    0.757256 0.203993 0.377278 0.179704
H8    H     H_    0.161149 0.826243 0.656609 0.168930
H9    H     H_    0.008927 0.037551 0.209921 0.153443
H10   H     H_    0.177741 0.202141 0.031767 0.140959
H11   H     H_    0.322025 0.859244 0.185033 0.156536
H12   H     H_    0.834788 0.985715 0.157492 0.130886
H13   H     H_    0.680442 0.066217 0.802227 0.154207
H14   H     H_    0.322709 0.179922 0.851144 0.158271
H15   H     H_    0.682252 0.804624 0.085647 0.157647
H16   H     H_    0.754521 0.375227 0.200428 0.151487
H17   H     H_    0.162766 0.653508 0.824359 0.167167
H18   H     H_    0.232218 0.931881 0.108232 0.117806
H19   H     H_    0.828592 0.153640 0.978520 0.124274
H20   H     H_    0.169855 0.041411 0.443808 0.213020
H21   H     H_    0.814157 0.874267 0.489335 0.195128
H22   H     H_    0.372047 0.112781 0.540322 0.186788
H23   H     H_    0.611644 0.796003 0.386217 0.169348
H24   H     H_    0.494085 0.275056 0.724740 0.183404
H25   H     H_    0.503090 0.665427 0.187773 0.175517
H26   H     H_    0.387820 0.496574 0.799731 0.169752
H27   H     H_    0.625665 0.481124 0.109459 0.139877
H28   H     H_    0.837523 0.530322 0.354014 0.143633
N1    N     N_R   0.293810 0.002730 0.945950 -0.049982
N2    N     N_R   0.443210 0.997250 0.791090 -0.098430
N3    N     N_R   0.443180 0.152110 0.945950 -0.069567
N4    N     N_R   0.556820 0.847890 0.054050 -0.070230
N5    N     N_R   0.706170 0.208950 0.152090 -0.043268
N6    N     N_R   0.293830 0.791050 0.847910 -0.058002
N7    N     N_R   0.293800 0.945910 0.002760 -0.050876
N8    N     N_R   0.706200 0.054090 0.997240 -0.044970
N9    N     N_1   0.234934 0.008232 0.294398 -0.056880
N10   N     N_1   0.010768 0.307975 0.021492 -0.000167
N11   N     N_R   0.706190 0.997270 0.054050 -0.049010
N12   N     N_R   0.706160 0.152130 0.208910 -0.049577
N13   N     N_R   0.293840 0.847870 0.791090 -0.060854
N14   N     N_R   0.443140 0.945920 0.152090 -0.071709
N15   N     N_R   0.556860 0.054080 0.847910 -0.064704
N16   N     N_R   0.556830 0.208940 0.002760 -0.090950
N17   N     N_R   0.443170 0.791060 0.997240 -0.092429
N18   N     N_R   0.556790 0.002750 0.208910 -0.095784
Ni1   Ni    Ni4+2 0.369690 0.999990 0.869700 0.244645
Ni2   Ni    Ni4+2 0.630310 0.000010 0.130300 0.275320
Ni3   Ni    Ni4+2 0.369670 0.869670 0.000000 0.243524
Ni4   Ni    Ni4+2 0.630330 0.130330 0.000000 0.273500

loop_
_geom_bond_atom_site_label_1
_geom_bond_atom_site_label_2
_ccdc_geom_bond_type
N1    N7    A    
C50   N4    A    
C58   N9    T    
C33   C45   S    
C14   C18   A    
C24   C27   A    
C11   C62   A    
C17   N13   A    
C10   Cl5   S    
C15   C19   A    
C49   C60   A    
N16   Ni4   S    
C14   C21   A    
C2    H23   S    
C19   C21   A    
C24   C26   A    
C38   C42   A    
C36   C58   S    
C48   Cl2   S    
C59   N10   T    
C12   H12   S    
C48   C56   A    
C37   C42   A    
C2    C13   A    
N17   Ni3   S    
C9    Cl4   S    
N2    N15   A    
N13   Ni1   S    
N14   Ni3   S    
C11   H20   S    
C47   N18   A    
C40   N14   A    
C22   C25   A    
C26   H4    S    
C31   C33   A    
C44   Cl8   S    
C3    H24   S    
C45   C47   A    
C52   N6    A    
C8    Cl3   S    
N15   Ni4   S    
C22   C28   A    
C4    H25   S    
C40   H11   S    
C52   H17   S    
C40   C45   A    
C41   N15   A    
C42   C57   S    
C14   H26   S    
C53   C55   A    
C27   C34   S    
C15   C20   A    
C22   H28   S    
N6    N13   A    
N1    Ni1   S    
C32   C35   A    
C4    C6    A    
C15   H27   S    
C5    C7    A    
C39   C43   A    
C46   C61   A    
C17   H8    S    
C46   N17   A    
C13   H21   S    
N11   Ni2   S    
C25   H3    S    
C2    C4    A    
C41   C56   A    
C29   Cl6   S    
C53   N7    A    
C23   C51   A    
C51   N5    A    
C48   N2    A    
C37   C59   S    
C23   C28   S    
C9    C11   A    
C7    Cl1   S    
C46   Cl9   S    
N14   N18   A    
C50   H15   S    
C12   C57   A    
C43   C55   S    
N5    N12   A    
C16   C23   A    
C62   H22   S    
C38   H9    S    
C17   C34   A    
N7    Ni3   S    
C1    N1    A    
C30   Cl7   S    
C6    C20   S    
C16   N12   A    
N12   Ni2   S    
N4    N17   A    
C3    C62   A    
C7    C9    A    
C31   H5    S    
C30   C33   A    
C35   C56   S    
C34   C52   A    
C49   H14   S    
C8    C10   A    
N3    Ni1   S    
C39   H10   S    
N8    Ni4   S    
C3    C5    A    
C10   C13   A    
C51   H16   S    
C49   N3    A    
C6    C8    A    
C18   C61   S    
C19   C60   S    
C25   C27   A    
C41   H13   S    
C29   C35   A    
C26   C28   A    
N8    N11   A    
C54   N8    A    
C16   H7    S    
C1    H1    S    
C36   C38   A    
N3    N16   A    
C1    C55   A    
C54   H19   S    
C29   C31   A    
C30   C32   A    
C24   H2    S    
C44   C60   A    
N6    Ni3   S    
N5    Ni4   S    
C18   C20   A    
N18   Ni2   S    
C47   Cl10  S    
C32   H6    S    
C5    C21   S    
C44   N16   A    
C37   C39   A    
C53   H18   S    
C50   C61   A    
C36   C43   A    
C12   N11   A    
N2    Ni1   S    
N4    Ni2   S    
C54   C57   A    
