data_mof_unit_12743.cif
_audit_creation_date              2012-12-10T16:47:52-0500
_audit_creation_method            fapswitch 2.2
_symmetry_space_group_name_H-M    P1
_symmetry_Int_Tables_number       1
_space_group_crystal_system       triclinic
_cell_length_a                    7.764451
_cell_length_b                    8.560888
_cell_length_c                    10.594298
_cell_angle_alpha                 89.63906
_cell_angle_beta                  90.56346
_cell_angle_gamma                 92.313009
_cell_volume                      703.589243252

loop_
_atom_site_label
_atom_site_type_symbol
_atom_type_description
_atom_site_fract_x
_atom_site_fract_y
_atom_site_fract_z
_atom_type_partial_charge
C1    C     C_R   0.542417 0.793645 0.485430 0.941849
C2    C     C_2   0.433327 0.042781 0.492225 -0.412785
C3    C     C_R   0.510750 0.502092 0.737116 0.940030
C4    C     C_R   0.454832 0.206195 0.494690 0.942642
C5    C     C_R   0.487648 0.495690 0.261600 0.844807
C6    C     C_2   0.548376 0.372150 0.067347 -0.207733
C7    C     C_2   0.447488 0.469153 0.129620 -0.035915
C8    C     C_2   0.549094 0.368001 0.930698 -0.176454
C9    C     C_2   0.541847 0.502999 0.868489 -0.338731
C10   C     C_2   0.555593 0.952900 0.446152 -0.073770
H1    H     H_    0.642971 0.304348 0.117167 0.153653
H2    H     H_    0.552016 0.256721 0.882060 0.160215
H3    H     H_    0.550685 0.615422 0.915719 0.146327
H4    H     H_    0.325681 0.995661 0.547627 0.184327
H5    H     H_    0.010437 0.400496 0.395533 0.177550
N1    N     N_2   0.950320 0.457950 0.466680 -0.213272
N2    N     N_2   0.049680 0.542050 0.533320 -0.148959
O1    O     O_R   0.389250 0.738570 0.508180 -0.617766
O2    O     O_R   0.678390 0.711630 0.486820 -0.599520
O3    O     O_R   0.355470 0.513470 0.691600 -0.628086
O4    O     O_R   0.644610 0.486520 0.670240 -0.633478
O5    O     O_R   0.321610 0.288370 0.513180 -0.628159
O6    O     O_R   0.610750 0.261430 0.491820 -0.616941
O7    O     O_R   0.355390 0.513480 0.329760 -0.635920
O8    O     O_R   0.644530 0.486530 0.308400 -0.646559
Zn1   Zn    Zn3+2 0.306940 0.517990 0.514260 0.938334
Zn2   Zn    Zn3+2 0.693060 0.482010 0.485740 0.931217
C11   C     C_3   0.289212 0.545928 0.068514 -0.402779
C12   C     C_3   0.116409 0.518396 0.136810 -0.316024
C13   C     C_3   0.964520 0.554931 0.050191 -0.902940
H6    H     H_    0.986683 0.670343 0.003436 0.270809
H7    H     H_    0.946602 0.463445 0.976809 0.266375
H8    H     H_    0.845375 0.558935 0.106531 0.275513
H9    H     H_    0.101819 0.394873 0.169273 0.223166
H10   H     H_    0.110068 0.597828 0.218939 0.247775
H11   H     H_    0.317391 0.673977 0.060941 0.177552
H12   H     H_    0.263996 0.500759 0.972214 0.246677
C14   C     C_3   0.693077 0.003532 0.349470 -0.364466
C15   C     C_3   0.678144 0.905245 0.228602 -0.396879
C16   C     C_3   0.817192 0.954334 0.133769 -0.882513
H13   H     H_    0.812250 0.080698 0.110978 0.256552
H14   H     H_    0.946823 0.929761 0.172594 0.269435
H15   H     H_    0.796180 0.887387 0.045189 0.256586
H16   H     H_    0.692723 0.779940 0.250681 0.248423
H17   H     H_    0.549131 0.919175 0.184386 0.216496
H18   H     H_    0.681652 0.126033 0.317586 0.225038
H19   H     H_    0.822781 0.991925 0.393088 0.228575
C17   C     C_2   0.982231 0.604020 0.644669 0.729116
H20   H     H_    0.944744 0.526631 0.721866 0.001686
O9    O     O_2   0.979463 0.745254 0.658355 -0.621073

loop_
_geom_bond_atom_site_label_1
_geom_bond_atom_site_label_2
_ccdc_geom_bond_type
C10   C14   S    
C8    C9    D    
C2    C4    S    
C3    O4    A    
C15   H16   S    
C3    C9    S    
O6    Zn2   S    
O8    Zn2   S    
C4    O5    A    
C12   H10   S    
O1    Zn1   S    
N2    C17   S    
C8    H2    S    
C13   H6    S    
C15   H17   S    
N1    Zn2   S    
C17   O9    D    
O4    Zn2   S    
C3    O3    A    
C13   H7    S    
C11   C12   S    
C1    O1    A    
C12   C13   S    
C5    O7    A    
O3    Zn1   S    
C11   H12   S    
C5    O8    A    
N2    Zn1   S    
C16   H14   S    
C16   H13   S    
O7    Zn1   S    
C6    C7    D    
C14   C15   S    
C2    H4    S    
C14   H18   S    
C1    O2    A    
C1    C10   S    
H5    N1    S    
C2    C10   D    
C15   C16   S    
O2    Zn2   S    
C11   H11   S    
O5    Zn1   S    
C6    H1    S    
C5    C7    S    
C4    O6    A    
C9    H3    S    
C17   H20   S    
C6    C8    S    
C13   H8    S    
C12   H9    S    
C16   H15   S    
C7    C11   S    
N1    N2    D    
C14   H19   S    
