data_mof_unit_64910.cif
_audit_creation_date              2012-12-10T18:49:16-0500
_audit_creation_method            fapswitch 2.2
_symmetry_space_group_name_H-M    P1
_symmetry_Int_Tables_number       1
_space_group_crystal_system       triclinic
_cell_length_a                    19.44206
_cell_length_b                    18.142945
_cell_length_c                    15.898502
_cell_angle_alpha                 90.000748
_cell_angle_beta                  90.343026
_cell_angle_gamma                 89.995807
_cell_volume                      5607.87706331

loop_
_atom_site_label
_atom_site_type_symbol
_atom_type_description
_atom_site_fract_x
_atom_site_fract_y
_atom_site_fract_z
_atom_type_partial_charge
C1    C     C_R   0.367493 0.500002 0.499832 0.781991
C2    C     C_3   0.575065 0.494706 0.951767 0.983625
C3    C     C_3   0.574703 0.494729 0.049468 -0.381474
C4    C     C_1   0.500098 0.500000 0.825038 0.244555
C5    C     C_1   0.499964 0.499999 0.174931 0.173842
C6    C     C_1   0.499946 0.499999 0.250413 -0.105167
C7    C     C_R   0.744462 0.433630 0.509822 -0.214233
C8    C     C_R   0.744419 0.566338 0.491323 -0.214128
C9    C     C_R   0.816110 0.433541 0.510146 0.667388
C10   C     C_R   0.816066 0.566375 0.491185 0.664713
C11   C     C_R   0.852299 0.499938 0.500654 -0.097840
C12   C     C_R   0.708060 0.499989 0.500439 -0.243385
C13   C     C_R   0.964465 0.540283 0.561319 0.669624
C14   C     C_R   0.963633 0.459500 0.439432 0.663126
C15   C     C_R   0.499945 0.499999 0.340007 0.794354
C16   C     C_R   0.036109 0.540405 0.560832 -0.231722
C17   C     C_R   0.035280 0.459426 0.439444 -0.236762
C18   C     C_R   0.071967 0.499936 0.500009 -0.106494
C19   C     C_R   0.927833 0.499886 0.500490 -0.102731
C20   C     C_R   0.183878 0.433670 0.490332 -0.119080
C21   C     C_R   0.183942 0.566296 0.509029 -0.121024
C22   C     C_R   0.255514 0.433631 0.490542 -0.161535
C23   C     C_R   0.255573 0.566371 0.508713 -0.159447
C24   C     C_R   0.291947 0.500003 0.499681 -0.040677
C25   C     C_R   0.147619 0.499969 0.499765 0.167601
C26   C     C_R   0.455380 0.720080 0.448405 -0.167947
C27   C     C_R   0.455402 0.279928 0.448374 -0.165899
C28   C     C_R   0.453286 0.797996 0.446359 0.339169
C29   C     C_R   0.453305 0.202013 0.446331 0.339452
C30   C     C_R   0.498264 0.838591 0.498586 0.125484
C31   C     C_R   0.498259 0.161410 0.498588 0.125449
C32   C     C_R   0.632511 0.499997 0.500163 0.908123
C33   C     C_R   0.544269 0.799965 0.551533 0.242908
C34   C     C_R   0.544240 0.200029 0.551567 0.243962
C35   C     C_R   0.543975 0.721765 0.551080 0.674290
C36   C     C_R   0.543942 0.278229 0.551123 0.673608
C37   C     C_R   0.480973 0.961233 0.571445 0.541327
C38   C     C_R   0.480968 0.038770 0.571445 0.541545
C39   C     C_R   0.497221 0.078565 0.498100 -0.235032
C40   C     C_R   0.497225 0.921435 0.498100 -0.234807
C41   C     C_R   0.513094 0.038787 0.424605 0.543484
C42   C     C_R   0.513095 0.961210 0.424605 0.543259
C43   C     C_R   0.500056 0.500000 0.659969 0.843738
C44   C     C_3   0.466572 0.571871 0.048691 0.321739
C45   C     C_3   0.458076 0.433446 0.048622 0.320973
C46   C     C_3   0.458764 0.432870 0.950974 0.388872
C47   C     C_3   0.467327 0.572352 0.951044 0.390199
C48   C     C_1   0.500090 0.500001 0.749557 -0.044751
C49   C     C_3   0.500003 0.499999 0.082773 -0.236815
C50   C     C_3   0.500077 0.499999 0.917248 -0.302090
Cu1   Cu    Cu3+1 0.500000 0.573360 0.499980 1.048537
Cu2   Cu    Cu3+1 0.500000 0.426640 0.499980 1.049396
H1    H     H_    0.063631 0.571195 0.608726 0.199012
H2    H     H_    0.062145 0.428655 0.391370 0.194072
H3    H     H_    0.156764 0.381808 0.483869 0.162635
H4    H     H_    0.156867 0.618144 0.515538 0.162661
H5    H     H_    0.282289 0.381671 0.483403 0.166196
H6    H     H_    0.282391 0.618348 0.515772 0.171093
H7    H     H_    0.420994 0.688369 0.408741 0.172682
H8    H     H_    0.421031 0.311646 0.408690 0.170725
H9    H     H_    0.412536 0.575463 0.071102 0.165845
H10   H     H_    0.404067 0.437475 0.071035 0.165101
H11   H     H_    0.482898 0.380911 0.928487 0.206938
H12   H     H_    0.497604 0.620474 0.928608 0.207395
H13   H     H_    0.605663 0.541853 0.073684 0.248863
H14   H     H_    0.599637 0.443661 0.073635 0.249975
H15   H     H_    0.717577 0.381797 0.517468 0.232680
H16   H     H_    0.717496 0.618194 0.483641 0.223464
N1    N     N_R   0.500020 0.683620 0.499990 -0.249177
N2    N     N_R   0.500020 0.316380 0.499990 -0.247853
O1    O     O_R   0.400180 0.561980 0.499960 -0.592602
O2    O     O_R   0.400180 0.438020 0.499960 -0.590928
O3    O     O_R   0.500000 0.561980 0.379420 -0.571437
O4    O     O_R   0.500000 0.438020 0.379420 -0.570482
O5    O     O_R   0.599810 0.561930 0.500000 -0.537070
O6    O     O_R   0.599810 0.438070 0.500000 -0.538688
O7    O     O_R   0.499990 0.561930 0.620540 -0.523731
O8    O     O_R   0.499990 0.438070 0.620540 -0.523654
F1    F     F_    0.400864 0.580767 0.920318 -0.572294
F2    F     F_    0.391846 0.433871 0.920246 -0.573583
O9    O     O_3   0.407260 0.835192 0.395281 -0.636930
H17   H     H_    0.379616 0.798762 0.363151 0.345548
O10   O     O_3   0.407295 0.164826 0.395228 -0.636778
H18   H     H_    0.379669 0.201262 0.363077 0.345356
O11   O     O_3   0.589256 0.839694 0.601603 -0.625195
H19   H     H_    0.618175 0.805272 0.634776 0.398003
O12   O     O_3   0.589208 0.160294 0.601663 -0.625504
H20   H     H_    0.618130 0.194713 0.634832 0.397320
F3    F     F_    0.587703 0.683839 0.601857 -0.623547
F4    F     F_    0.587619 0.316148 0.601965 -0.629274
F5    F     F_    0.464100 0.924856 0.643033 -0.531842
F6    F     F_    0.464088 0.075148 0.643031 -0.531707
F7    F     F_    0.530178 0.075182 0.353111 -0.525661
F8    F     F_    0.530176 0.924811 0.353109 -0.525915
F9    F     F_    0.485105 0.367815 0.079054 -0.595410
F10   F     F_    0.501388 0.633137 0.079189 -0.594334
F11   F     F_    0.613590 0.553942 0.923289 -0.594753
F12   F     F_    0.606017 0.430570 0.923227 -0.594648
F13   F     F_    0.850159 0.368864 0.521019 -0.577591
F14   F     F_    0.850055 0.631026 0.480372 -0.580878
F15   F     F_    0.930872 0.578458 0.621967 -0.573418
F16   F     F_    0.929212 0.421323 0.378986 -0.583972

loop_
_geom_bond_atom_site_label_1
_geom_bond_atom_site_label_2
_ccdc_geom_bond_type
C44   C49   S    
C23   H6    S    
O12   H20   S    
C27   C29   A    
C41   C42   A    
C47   F1    S    
C22   H5    S    
O9    H17   S    
C3    C49   S    
C39   C41   A    
C45   C46   S    
C43   O8    A    
C11   C19   S    
C1    O1    A    
Cu2   O2    S    
Cu1   O5    S    
C29   O10   S    
C37   C40   A    
Cu2   O4    S    
C27   H8    S    
C5    C6    T    
C14   F16   S    
C20   C25   A    
C38   F6    S    
C45   H10   S    
C33   O11   S    
C16   H1    S    
C2    C50   S    
C6    C15   S    
C41   F7    S    
C2    F11   S    
C23   C24   A    
C43   C48   S    
C44   C47   S    
C40   C42   A    
C9    F13   S    
C12   C32   S    
C14   C17   A    
C5    C49   S    
C3    H13   S    
C18   C25   S    
Cu1   O1    S    
C32   O5    A    
C20   H3    S    
Cu2   O8    S    
C36   N2    A    
C47   C50   S    
C7    C12   A    
C1    O2    A    
C37   F5    S    
Cu1   Cu2   S    
C47   H12   S    
C13   C19   A    
O11   H19   S    
C4    C50   S    
Cu1   O7    S    
C37   C38   A    
C44   F10   S    
O10   H18   S    
C45   C49   S    
C8    C12   A    
C17   C18   A    
C31   C34   A    
C30   C40   S    
C10   F14   S    
C9    C11   A    
C2    F12   S    
C27   N2    A    
C35   F3    S    
C16   C18   A    
C15   O3    A    
C20   C22   A    
C8    H16   S    
C21   C23   A    
C22   C24   A    
C3    H14   S    
C13   F15   S    
C45   F9    S    
C4    C48   T    
C36   F4    S    
C7    C9    A    
C21   C25   A    
C30   C33   A    
C28   O9    S    
C42   F8    S    
C14   C19   A    
Cu1   O3    S    
Cu2   O6    S    
C32   O6    A    
C21   H4    S    
C44   H9    S    
C43   O7    A    
C46   C50   S    
C26   C28   A    
C46   H11   S    
C28   C30   A    
C2    C3    S    
C29   C31   A    
C46   F2    S    
C38   C39   A    
C33   C35   A    
C31   C39   S    
C34   C36   A    
C34   O12   S    
Cu2   N2    S    
C10   C11   A    
C7    H15   S    
C15   O4    A    
C35   N1    A    
C1    C24   S    
C8    C10   A    
C13   C16   A    
C26   N1    A    
C26   H7    S    
Cu1   N1    S    
C17   H2    S    
