data_mof_unit_29632.cif
_audit_creation_date              2013-03-05T16:42:22-0500
_audit_creation_method            fapswitch 2.2
_symmetry_space_group_name_H-M    P1
_symmetry_Int_Tables_number       1
_space_group_crystal_system       triclinic
_cell_length_a                    9.857509
_cell_length_b                    10.748363
_cell_length_c                    15.441367
_cell_angle_alpha                 90.487559
_cell_angle_beta                  68.112227
_cell_angle_gamma                 90.282718
_cell_volume                      1518.05437752

loop_
_atom_site_label
_atom_site_type_symbol
_atom_site_description
_atom_site_fract_x
_atom_site_fract_y
_atom_site_fract_z
_atom_type_partial_charge
O1    O     O_R   0.385310 0.683210 0.499990 -0.613490
O2    O     O_R   0.614650 0.683240 0.500000 -0.576384
C1    C     C_R   0.504964 0.739286 0.493318 0.912241
O3    O     O_R   0.319830 0.499970 0.632240 -0.575919
O4    O     O_R   0.549170 0.500000 0.632250 -0.628827
C2    C     C_R   0.408250 0.502078 0.676348 0.889315
Zn1   Zn    Zn3+2 0.346870 0.499980 0.499990 0.979644
Zn2   Zn    Zn3+2 0.653130 0.500020 0.500010 0.986677
O5    O     O_R   0.385350 0.316760 0.500000 -0.626406
O6    O     O_R   0.614690 0.316790 0.500010 -0.631899
O7    O     O_R   0.450830 0.500000 0.367750 -0.604612
O8    O     O_R   0.680170 0.500030 0.367760 -0.606587
C3    C     C_R   0.500833 0.260387 0.498498 0.903003
C4    C     C_R   0.591014 0.501549 0.323840 0.877468
C5    C     C_R   0.348038 0.511854 0.778510 -0.169584
C6    C     C_R   0.644156 0.525618 0.223859 -0.060838
C7    C     C_R   0.156111 0.479974 0.930032 -0.289390
C8    C     C_R   0.204322 0.474060 0.832788 0.494509
C9    C     C_R   0.438449 0.559293 0.822148 -0.325021
C10   C     C_R   0.393925 0.561539 0.919328 0.135917
C11   C     C_R   0.251774 0.517621 0.973314 0.098674
C12   C     C_R   0.491625 0.595756 0.963651 0.026454
C13   C     C_R   0.454992 0.563501 0.057997 0.069648
C14   C     C_R   0.309315 0.527949 0.111462 -0.158737
C15   C     C_R   0.208489 0.508011 0.069677 -0.198139
C16   C     C_R   0.623852 0.660777 0.917395 -0.295366
C17   C     C_R   0.723901 0.683740 0.960658 0.312020
C18   C     C_R   0.699781 0.629523 0.047890 0.035096
C19   C     C_R   0.565062 0.568154 0.095986 0.062973
C20   C     C_R   0.807098 0.633508 0.088151 -0.129393
C21   C     C_R   0.777691 0.584828 0.176825 -0.195124
C22   C     C_R   0.544866 0.509705 0.180193 -0.185711
H1    H     H_    0.098725 0.478337 0.112305 0.147410
H2    H     H_    0.449420 0.453115 0.214810 0.144978
H3    H     H_    0.856631 0.597346 0.209679 0.182787
H4    H     H_    0.045939 0.449802 0.971417 0.158155
H5    H     H_    0.546573 0.588485 0.778782 0.169579
H6    H     H_    0.269763 0.517360 0.186296 0.161084
H7    H     H_    0.646656 0.702113 0.849941 0.187018
H8    H     H_    0.913112 0.675434 0.052486 0.195756
C23   C     C_R   0.398618 0.936669 0.477725 0.010640
C24   C     C_R   0.516940 0.870375 0.480445 -0.232931
C25   C     C_R   0.643791 0.937838 0.476662 0.315140
C26   C     C_R   0.636059 0.067009 0.484226 -0.271279
H9    H     H_    0.731575 0.117918 0.483644 0.201374
C27   C     C_R   0.507782 0.129345 0.490272 -0.139490
C28   C     C_R   0.393606 0.060871 0.483219 0.068845
C29   C     C_3   0.242615 0.069315 0.483297 -0.496004
C30   C     C_3   0.248092 0.926146 0.476747 0.198785
H10   H     H_    0.163185 0.104813 0.550817 0.183127
H11   H     H_    0.239920 0.116689 0.420273 0.225474
H12   H     H_    0.168986 0.878640 0.538722 0.111775
C31   C     C_R   0.905347 0.595031 0.541412 0.355427
N1    N     N_R   0.856900 0.500860 0.500610 -0.117778
C32   C     C_R   0.955716 0.412348 0.451750 -0.128245
H13   H     H_    0.922848 0.340272 0.414257 0.155731
C33   C     C_R   0.099757 0.412339 0.451767 -0.128318
H14   H     H_    0.175704 0.340477 0.414140 0.150504
N2    N     N_R   0.142540 0.500820 0.500610 -0.115991
C34   C     C_R   0.048363 0.595443 0.540692 0.245636
C35   C     C_3   0.998446 0.633376 0.640218 -0.438675
C36   C     C_3   0.843666 0.629886 0.642251 -0.532494
H15   H     H_    0.019696 0.561426 0.684580 0.270717
H16   H     H_    0.036636 0.728370 0.648495 0.236920
H17   H     H_    0.778837 0.553059 0.686145 0.205638
H18   H     H_    0.789762 0.722457 0.654748 0.242692
N3    N     N_R   0.781222 0.879140 0.462046 0.224848
O9    O     O_R   0.843166 0.810471 0.388012 -0.338142
O10   O     O_R   0.857825 0.914924 0.510569 -0.417648
N4    N     N_R   0.249317 0.878195 0.387401 0.254824
O11   O     O_R   0.342277 0.920196 0.308673 -0.363184
O12   O     O_R   0.159070 0.790238 0.386198 -0.338336
N5    N     N_R   0.846229 0.765010 0.916525 0.208043
O13   O     O_R   0.877587 0.852512 0.964846 -0.383050
O14   O     O_R   0.908406 0.767431 0.826091 -0.413973
O15   O     O_3   0.108754 0.435456 0.791474 -0.613752
C37   C     C_3   0.112590 0.304476 0.784500 0.100454
H19   H     H_    0.066922 0.261972 0.855101 0.160274
H20   H     H_    0.226201 0.270050 0.746824 0.128404
C38   C     C_3   0.019934 0.262882 0.729761 -0.774545
H21   H     H_    0.064943 0.302181 0.658282 0.251710
H22   H     H_    0.020193 0.159763 0.724690 0.221327
H23   H     H_    0.905595 0.295431 0.765434 0.256545

loop_
_geom_bond_atom_site_label_1
_geom_bond_atom_site_label_2
_geom_bond_distance
_ccdc_geom_bond_type
C5    C8    1.410428 A    
C32   H13   1.081690 S    
C1    C24   1.422788 S    
C23   C24   1.383881 A    
C9    C10   1.397664 A    
C31   N1    1.363174 A    
C6    C21   1.397151 A    
Zn1   O7    1.913017 S    
C16   C17   1.402095 A    
C13   C19   1.413287 A    
C18   C19   1.419361 A    
C19   C22   1.394519 A    
C38   H23   1.110802 S    
C3    C27   1.412830 S    
O7    C4    1.292650 A    
C16   H7    1.079418 S    
C33   N2    1.368254 A    
N5    O13   1.301540 A    
Zn1   N2    2.010699 S    
C35   H15   1.108498 S    
O5    C3    1.284700 A    
C9    H5    1.072847 S    
C2    C5    1.466832 S    
C27   C28   1.379172 A    
C29   H11   1.111271 S    
C14   H6    1.079863 S    
C13   C14   1.416255 A    
N4    O11   1.302327 A    
C7    H4    1.084254 S    
C29   H10   1.110489 S    
N2    C34   1.359961 A    
N5    O14   1.299479 A    
O3    Zn1   1.958438 S    
C23   C30   1.493238 S    
C31   C34   1.405658 A    
C26   C27   1.405649 A    
C37   H20   1.115459 S    
C36   H18   1.111339 S    
N3    O9    1.301588 A    
O15   C37   1.410638 S    
O3    C2    1.290828 A    
Zn2   N1    2.012113 S    
C37   H19   1.113725 S    
C7    C11   1.400415 A    
C34   C35   1.482462 S    
N3    O10   1.301383 A    
C22   H2    1.079732 S    
C35   H16   1.109241 S    
C5    C9    1.394887 A    
C25   C26   1.392375 A    
C25   N3    1.436082 S    
C31   C36   1.490322 S    
C28   C29   1.491156 S    
C20   C21   1.395489 A    
Zn2   O8    1.958435 S    
C30   H12   1.110235 S    
C7    C8    1.396874 A    
C23   C28   1.336919 A    
C20   H8    1.081178 S    
C14   C15   1.386982 A    
C38   H22   1.110410 S    
C29   C30   1.541180 S    
O8    C4    1.295114 A    
C30   N4    1.464475 S    
C32   C33   1.419982 A    
C21   H3    1.083109 S    
C24   C25   1.424816 A    
C26   H9    1.083834 S    
C37   C38   1.521068 S    
Zn1   O5    2.007362 S    
C11   C15   1.391277 A    
N1    C32   1.368258 A    
C8    O15   1.380701 S    
C36   H17   1.109516 S    
O1    Zn1   2.003707 S    
O2    Zn2   2.007362 S    
C10   C12   1.419460 A    
C38   H21   1.111077 S    
O6    C3    1.280745 A    
O4    Zn2   1.913017 S    
C6    C22   1.389334 A    
C18   C20   1.413108 A    
O2    C1    1.277993 A    
C33   H14   1.080930 S    
O4    C2    1.299474 A    
C4    C6    1.458518 S    
C35   C36   1.514608 S    
C10   C11   1.417923 A    
Zn2   O6    2.003707 S    
C12   C16   1.415231 A    
C17   C18   1.408428 A    
C12   C13   1.409979 A    
N4    O12   1.299707 A    
O1    C1    1.291712 A    
C17   N5    1.438248 S    
C15   H1    1.083916 S    
