data_mof_unit_8962.cif
_audit_creation_date              2012-10-26T20:00:06-0400
_audit_creation_method            fapswitch 2.2
_symmetry_space_group_name_H-M    P1
_symmetry_Int_Tables_number       1
_space_group_crystal_system       triclinic
_cell_length_a                    23.585834
_cell_length_b                    10.921776
_cell_length_c                    9.749995
_cell_angle_alpha                 87.457964
_cell_angle_beta                  90.071571
_cell_angle_gamma                 91.008774
_cell_volume                      2508.73017887

loop_
_atom_site_label
_atom_site_type_symbol
_atom_type_description
_atom_site_fract_x
_atom_site_fract_y
_atom_site_fract_z
_atom_type_partial_charge
C1    C     C_R   0.499304 0.265549 0.503997 0.523062
C2    C     C_R   0.120446 0.619007 0.452998 0.441900
C3    C     C_R   0.237977 0.496067 0.373107 -0.079688
C4    C     C_R   0.390736 0.499687 0.499864 0.543512
C5    C     C_R   0.297312 0.495283 0.372825 0.200608
C6    C     C_R   0.327474 0.502153 0.498507 -0.020377
C7    C     C_R   0.296326 0.514069 0.621939 0.212283
C8    C     C_R   0.237082 0.525424 0.617581 0.146821
C9    C     C_R   0.208087 0.512753 0.493606 0.155771
C10   C     C_R   0.760818 0.446969 0.393519 0.287375
C11   C     C_R   0.701569 0.436873 0.399302 0.036247
C12   C     C_R   0.968406 0.293019 0.549586 0.259653
C13   C     C_R   0.671517 0.498414 0.500280 -0.067762
C14   C     C_R   0.701789 0.561412 0.601862 0.243355
C15   C     C_R   0.761372 0.566112 0.599703 0.296223
C16   C     C_R   0.498895 0.733887 0.496124 0.547149
C17   C     C_R   0.790743 0.509658 0.494406 0.168841
C18   C     C_2   0.538683 0.936864 0.466863 0.104968
C19   C     C_2   0.491678 0.865417 0.480475 0.339102
C20   C     C_2   0.533554 0.069580 0.442419 -0.037095
C21   C     C_2   0.498892 0.132585 0.520393 0.297022
C22   C     C_2   0.487684 0.588858 0.923122 0.225685
C23   C     C_R   0.027719 0.294877 0.557223 0.273375
C24   C     C_2   0.508773 0.590005 0.066554 0.194844
C25   C     C_R   0.608898 0.498515 0.500102 0.600572
C26   C     C_R   0.880228 0.617333 0.453680 0.426422
C27   C     C_R   0.879344 0.405780 0.525353 0.427737
C28   C     C_R   0.938919 0.402431 0.519729 -0.020925
C29   C     C_R   0.969573 0.511656 0.483391 -0.140073
C30   C     C_R   0.940059 0.619648 0.446269 0.007723
C31   C     C_3   0.932345 0.123341 0.453539 -0.005296
C32   C     C_3   0.671108 0.560062 0.824160 -0.037857
C33   C     C_3   0.819330 0.558616 0.789125 -0.097266
C34   C     C_R   0.058768 0.403506 0.520869 -0.000540
C35   C     C_3   0.392891 0.833938 0.463701 -0.091571
C36   C     C_3   0.418992 0.115723 0.659259 -0.048029
C37   C     C_3   0.056830 0.173260 0.737528 -0.030071
C38   C     C_3   0.935284 0.825911 0.213359 -0.079078
C39   C     C_3   0.319473 0.580893 0.161625 -0.060767
C40   C     C_3   0.323521 0.400098 0.809046 -0.057519
C41   C     C_3   0.798810 0.469597 0.180142 -0.098053
C42   C     C_R   0.029641 0.512543 0.483654 -0.119306
C43   C     C_R   0.060513 0.622574 0.449079 -0.002843
C44   C     C_R   0.030352 0.730654 0.411367 0.124568
C45   C     C_R   0.970853 0.726643 0.402862 0.279332
C46   C     C_R   0.118405 0.406391 0.520976 0.439490
Cu1   Cu    Cu3+1 0.500010 0.500020 0.638630 1.027583
Cu2   Cu    Cu3+1 0.499990 0.499980 0.361370 1.081145
H1    H     H_    0.560733 0.116110 0.365995 0.131739
H2    H     H_    0.863649 0.547458 0.754702 0.144099
H3    H     H_    0.798466 0.467040 0.808897 0.102753
H4    H     H_    0.821397 0.603863 0.888686 0.122301
H5    H     H_    0.391421 0.791223 0.569110 0.155216
H6    H     H_    0.394103 0.763117 0.385537 0.128512
H7    H     H_    0.353067 0.885149 0.447664 0.156411
H8    H     H_    0.395465 0.137675 0.562246 0.120327
H9    H     H_    0.420572 0.195990 0.724955 0.139331
H10   H     H_    0.394665 0.041934 0.716089 0.166226
H11   H     H_    0.079096 0.252356 0.783493 0.129238
H12   H     H_    0.528172 0.437347 0.888325 0.216380
H13   H     H_    0.080975 0.089707 0.766182 0.171471
H14   H     H_    0.013582 0.160952 0.781939 0.143293
H15   H     H_    0.912682 0.909238 0.176297 0.159459
H16   H     H_    0.908935 0.744924 0.186300 0.124899
H17   H     H_    0.976632 0.825015 0.158619 0.125606
H18   H     H_    0.349305 0.573485 0.074888 0.186580
H19   H     H_    0.330373 0.667473 0.212646 0.117016
H20   H     H_    0.275999 0.584969 0.117869 0.147657
H21   H     H_    0.346359 0.335366 0.744940 0.101592
H22   H     H_    0.279771 0.364639 0.830062 0.146261
H23   H     H_    0.214741 0.483754 0.278693 0.153077
H24   H     H_    0.345700 0.403446 0.908817 0.177315
H25   H     H_    0.757881 0.502247 0.136277 0.129231
H26   H     H_    0.820947 0.420794 0.099034 0.136499
H27   H     H_    0.826121 0.549041 0.206853 0.123773
H28   H     H_    0.907134 0.179208 0.378037 0.138665
H29   H     H_    0.908515 0.036285 0.475517 0.220440
H30   H     H_    0.973782 0.100565 0.407843 0.165564
H31   H     H_    0.665057 0.459398 0.813496 0.105789
H32   H     H_    0.634530 0.591597 0.883727 0.163474
H33   H     H_    0.709873 0.578720 0.884673 0.138498
I1    I     I_    0.661036 0.317917 0.259017 -0.268272
I2    I     I_    0.622595 0.868614 0.478604 -0.169540
I3    I     I_    0.429283 0.727090 0.864882 -0.243672
I4    I     I_    0.562027 0.740050 0.114540 -0.231179
I5    I     I_    0.446103 0.352123 0.097672 -0.223615
I6    I     I_    0.068775 0.908551 0.369835 -0.194439
I7    I     I_    0.191361 0.563507 0.798781 -0.309400
N1    N     N_R   0.851643 0.511497 0.491566 -0.393367
N2    N     N_R   0.147341 0.512960 0.489644 -0.391082
N3    N     N_2   0.499380 0.498660 0.846910 -0.338925
N4    N     N_2   0.499370 0.498630 0.153040 -0.157508
O1    O     O_R   0.500010 0.321960 0.617040 -0.504284
O2    O     O_R   0.582130 0.500060 0.617050 -0.480265
O3    O     O_R   0.582110 0.500020 0.382900 -0.465414
O4    O     O_2   0.850508 0.719662 0.424582 -0.411265
O5    O     O_3   0.939734 0.183208 0.577718 -0.517405
O6    O     O_3   0.672804 0.627146 0.696893 -0.490353
O7    O     O_3   0.789794 0.635710 0.694319 -0.491105
O8    O     O_3   0.439116 0.917049 0.446895 -0.570105
O9    O     O_3   0.474363 0.073773 0.636480 -0.528701
O10   O     O_3   0.054983 0.186907 0.593000 -0.488447
O11   O     O_3   0.942876 0.830845 0.356730 -0.533456
O12   O     O_2   0.848891 0.305305 0.567455 -0.418886
O13   O     O_3   0.325539 0.476875 0.251271 -0.530459
O14   O     O_3   0.323578 0.519346 0.747042 -0.523939
O15   O     O_3   0.790239 0.387461 0.294315 -0.506126
O16   O     O_2   0.147804 0.303848 0.551568 -0.426946
O17   O     O_2   0.152367 0.719252 0.420004 -0.438642
O18   O     O_R   0.499990 0.321920 0.382900 -0.481046
O19   O     O_R   0.417890 0.499980 0.617100 -0.460480
O20   O     O_R   0.417870 0.499940 0.382950 -0.446174
O21   O     O_R   0.500010 0.678080 0.617100 -0.470916
O22   O     O_R   0.499990 0.678040 0.382960 -0.501525

loop_
_geom_bond_atom_site_label_1
_geom_bond_atom_site_label_2
_ccdc_geom_bond_type
Cu2   O18   S    
C2    O17   S    
C1    C21   S    
Cu2   O3    S    
C29   C42   A    
C35   H5    S    
C39   H20   S    
C30   C45   A    
C34   C42   A    
C16   O21   A    
C37   H14   S    
C7    C8    A    
C5    O13   S    
C33   H4    S    
C32   H33   S    
C12   C23   A    
C29   C30   A    
C40   H22   S    
C12   C28   A    
C3    C9    A    
C40   O14   S    
C28   C29   A    
C36   H10   S    
C37   O10   S    
C23   O10   S    
C32   H32   S    
C10   C17   A    
C27   O12   S    
C39   O13   S    
C18   C19   D    
C2    N2    A    
C45   O11   S    
C41   H26   S    
C8    C9    A    
C46   O16   S    
C22   N3    D    
C31   H29   S    
C34   C46   A    
C44   I6    S    
C40   H24   S    
C24   I4    S    
C21   O9    S    
C4    O20   A    
C25   O2    A    
C13   C14   A    
C35   H6    S    
C13   C25   S    
C10   O15   S    
Cu1   N3    S    
C24   N4    D    
C14   O6    S    
C38   H16   S    
C11   I1    S    
C26   O4    S    
C40   H21   S    
C35   H7    S    
C17   N1    S    
C4    C6    S    
C36   H9    S    
C33   H2    S    
C36   O9    S    
C33   O7    S    
C22   I3    S    
C3    H23   S    
C43   C44   A    
C38   O11   S    
C36   H8    S    
C1    O18   A    
C41   H27   S    
C20   H1    S    
Cu1   Cu2   S    
C38   H17   S    
C2    C43   A    
C23   C34   A    
C18   I2    S    
Cu1   O1    S    
C7    O14   S    
C12   O5    S    
C37   H11   S    
Cu2   O20   S    
C4    O19   A    
C25   O3    A    
C39   H18   S    
C22   C24   S    
C42   C43   A    
C35   O8    S    
C44   C45   A    
C31   H30   S    
Cu2   O22   S    
C38   H15   S    
H12   N3    S    
Cu1   O21   S    
C41   O15   S    
C39   H19   S    
C15   O7    S    
C3    C5    A    
C16   O22   A    
C9    N2    S    
C37   H13   S    
C19   O8    S    
C26   C30   A    
C6    C7    A    
C46   N2    A    
C33   H3    S    
C26   N1    A    
I5    N4    S    
C32   H31   S    
C11   C13   A    
C31   H28   S    
C5    C6    A    
C16   C19   S    
Cu1   O19   S    
Cu1   O2    S    
C32   O6    S    
C27   N1    A    
C18   C20   S    
C31   O5    S    
C10   C11   A    
C41   H25   S    
C20   C21   D    
C1    O1    A    
Cu2   N4    S    
C27   C28   A    
C14   C15   A    
C8    I7    S    
C15   C17   A    
