data_mof_unit_13473.cif
_audit_creation_date              2012-12-10T19:15:22-0500
_audit_creation_method            fapswitch 2.2
_symmetry_space_group_name_H-M    P1
_symmetry_Int_Tables_number       1
_space_group_crystal_system       triclinic
_cell_length_a                    10.638216
_cell_length_b                    9.69688
_cell_length_c                    23.425112
_cell_angle_alpha                 89.752213
_cell_angle_beta                  90.977171
_cell_angle_gamma                 89.854024
_cell_volume                      2416.09375575

loop_
_atom_site_label
_atom_site_type_symbol
_atom_type_description
_atom_site_fract_x
_atom_site_fract_y
_atom_site_fract_z
_atom_type_partial_charge
C1    C     C_R   0.257536 0.499884 0.501160 0.802168
C2    C     C_R   0.630281 0.452574 0.119531 0.511022
C3    C     C_R   0.564037 0.614172 0.237433 -0.244400
C4    C     C_R   0.503949 0.500551 0.389175 0.899896
C5    C     C_R   0.556576 0.620555 0.297356 0.515475
C6    C     C_R   0.514335 0.501747 0.326862 -0.158094
C7    C     C_R   0.483017 0.381464 0.296718 -0.319847
C8    C     C_R   0.488423 0.378791 0.237767 -0.117564
C9    C     C_R   0.527703 0.495358 0.208361 0.287678
C10   C     C_R   0.463049 0.382202 0.763751 0.089557
C11   C     C_R   0.452452 0.384096 0.703842 0.488990
C12   C     C_R   0.307355 0.596312 0.970777 -0.161360
C13   C     C_R   0.497383 0.499206 0.673037 -0.192609
C14   C     C_R   0.543036 0.615011 0.702154 -0.308296
C15   C     C_R   0.547912 0.615867 0.761167 -0.130760
C16   C     C_R   0.742524 0.499581 0.501330 0.830995
C17   C     C_R   0.509353 0.500482 0.791875 0.232215
C18   C     C_3   0.073749 0.588460 0.552189 -0.398550
C19   C     C_3   0.071814 0.349535 0.510101 -0.395573
C20   C     C_3   0.929286 0.589556 0.551705 -0.399968
C21   C     C_3   0.929057 0.349267 0.510683 -0.402332
C22   C     C_3   0.068970 0.559145 0.445116 -0.420604
C23   C     C_R   0.309257 0.593347 0.030170 -0.162022
C24   C     C_3   0.121014 0.499153 0.502158 0.195660
C25   C     C_3   0.878638 0.498497 0.502134 0.183201
C26   C     C_3   0.925019 0.555380 0.444458 -0.380691
C27   C     C_3   0.389890 0.082648 0.465619 0.502745
C28   C     C_3   0.392791 0.918446 0.463653 0.483973
C29   C     C_3   0.616260 0.080910 0.473739 -0.281513
C30   C     C_3   0.618247 0.918686 0.475637 -0.252422
C31   C     C_3   0.491583 0.080608 0.557466 -0.362076
C32   C     C_3   0.487949 0.918300 0.557322 -0.407932
C33   C     C_R   0.498833 0.499657 0.610727 0.907524
C34   C     C_R   0.416441 0.546218 0.060153 -0.018825
C35   C     C_R   0.622025 0.462692 0.880395 0.516494
C36   C     C_R   0.412052 0.551831 0.880874 0.491933
C37   C     C_R   0.412569 0.552100 0.940436 -0.018234
C38   C     C_R   0.520924 0.505273 0.970141 -0.021959
C39   C     C_R   0.627111 0.460904 0.940019 -0.021536
C40   C     C_3   0.273668 0.299314 0.663195 -0.346403
C41   C     C_3   0.268705 0.175203 0.389503 -0.300374
C42   C     C_3   0.290749 0.823527 0.382821 -0.212037
C43   C     C_3   0.586125 0.860248 0.299452 -0.244109
C44   C     C_3   0.424691 0.254532 0.796885 -0.356376
C45   C     C_R   0.522849 0.502288 0.030106 -0.020952
C46   C     C_3   0.521861 0.139470 0.791192 -0.798429
C47   C     C_R   0.630986 0.455033 0.059886 -0.021046
C48   C     C_R   0.736557 0.411844 0.029505 -0.159999
C49   C     C_R   0.734649 0.414801 0.970047 -0.162161
C50   C     C_R   0.420360 0.541832 0.119696 0.508293
H1    H     H_    0.223162 0.632682 0.948776 0.192930
H2    H     H_    0.895259 0.697653 0.546571 0.170699
H3    H     H_    0.893536 0.280777 0.475942 0.169764
H4    H     H_    0.099162 0.668068 0.440404 0.162248
H5    H     H_    0.105395 0.499841 0.408298 0.149881
H6    H     H_    0.887508 0.661246 0.436584 0.177040
H7    H     H_    0.890884 0.488945 0.408796 0.167482
H8    H     H_    0.226551 0.627734 0.052447 0.192814
H9    H     H_    0.303257 0.114210 0.488678 -0.020992
H10   H     H_    0.303956 0.880309 0.482995 -0.018395
H11   H     H_    0.625847 0.117423 0.428968 0.191995
H12   H     H_    0.576603 0.704585 0.679253 0.179813
H13   H     H_    0.635105 0.876997 0.432368 0.221814
H14   H     H_    0.573118 0.116214 0.583834 0.208053
H15   H     H_    0.565408 0.877854 0.585208 0.196914
H16   H     H_    0.406052 0.120806 0.578336 0.202820
H17   H     H_    0.398845 0.882006 0.576457 0.167465
H18   H     H_    0.699923 0.120269 0.497538 0.151880
H19   H     H_    0.699589 0.883783 0.502512 0.145247
H20   H     H_    0.820707 0.375425 0.051523 0.192126
H21   H     H_    0.817301 0.380356 0.947747 0.191278
H22   H     H_    0.597912 0.700056 0.212503 0.135724
H23   H     H_    0.582988 0.706076 0.783347 0.156080
H24   H     H_    0.453204 0.289353 0.318634 0.220054
H25   H     H_    0.461181 0.286594 0.214801 0.145468
H26   H     H_    0.263663 0.383056 0.630946 0.153364
H27   H     H_    0.220477 0.326243 0.702139 0.166444
H28   H     H_    0.230327 0.205245 0.644746 0.179581
H29   H     H_    0.252265 0.285968 0.398248 0.177901
H30   H     H_    0.191821 0.112561 0.407899 0.108224
H31   H     H_    0.263673 0.160993 0.342575 0.178775
H32   H     H_    0.206427 0.880471 0.397248 0.093920
H33   H     H_    0.281389 0.712487 0.392880 0.167911
H34   H     H_    0.108588 0.696210 0.548273 0.171997
H35   H     H_    0.293661 0.833613 0.335707 0.176712
H36   H     H_    0.592175 0.945288 0.330877 0.209253
H37   H     H_    0.493169 0.869628 0.277179 0.160730
H38   H     H_    0.664544 0.874903 0.269340 0.150135
H39   H     H_    0.530662 0.107830 0.745943 0.278083
H40   H     H_    0.614939 0.174395 0.807627 0.277797
H41   H     H_    0.492339 0.048353 0.816468 0.242514
H42   H     H_    0.331681 0.217430 0.781322 0.224262
H43   H     H_    0.413661 0.276361 0.842967 0.198855
H44   H     H_    0.103309 0.282628 0.474730 0.166724
H45   H     H_    0.109621 0.546656 0.593658 0.152340
H46   H     H_    0.109054 0.304346 0.550770 0.160069
H47   H     H_    0.894729 0.550272 0.593306 0.162123
H48   H     H_    0.896610 0.306122 0.552031 0.169163
N1    N     N_R   0.515119 0.505993 0.852509 -0.347233
N2    N     N_R   0.526035 0.495583 0.147739 -0.348035
N3    N     N_3   0.499750 0.138610 0.498760 -0.086910
N4    N     N_3   0.499750 0.861390 0.498760 -0.082771
O1    O     O_R   0.314910 0.616040 0.499990 -0.639737
O2    O     O_2   0.309282 0.595412 0.851322 -0.563001
O3    O     O_2   0.319776 0.583492 0.149545 -0.561894
O4    O     O_2   0.732505 0.408118 0.149225 -0.555871
O5    O     O_3   0.401437 0.271413 0.675845 -0.611170
O6    O     O_3   0.390423 0.137140 0.409190 -0.571569
O7    O     O_3   0.404817 0.874141 0.406163 -0.551377
O8    O     O_3   0.599516 0.733472 0.328906 -0.595316
O9    O     O_R   0.314910 0.383960 0.499990 -0.631602
O10   O     O_R   0.500080 0.616070 0.416130 -0.530023
O11   O     O_R   0.500080 0.383930 0.416130 -0.581595
O12   O     O_R   0.685320 0.616040 0.499970 -0.634251
O13   O     O_R   0.685320 0.383960 0.499970 -0.641342
O14   O     O_R   0.500150 0.616010 0.583820 -0.637985
O15   O     O_R   0.500150 0.383990 0.583820 -0.582340
O16   O     O_2   0.722215 0.420751 0.850384 -0.565806
Zn1   Zn    Zn3+2 0.500150 0.654960 0.499970 0.946861
Zn2   Zn    Zn3+2 0.500150 0.345040 0.499970 0.947116

loop_
_geom_bond_atom_site_label_1
_geom_bond_atom_site_label_2
_ccdc_geom_bond_type
C23   H8    S    
C33   O15   A    
C41   O6    S    
C31   H16   S    
C42   H32   S    
C12   H1    S    
C41   H30   S    
C7    C8    A    
C22   H4    S    
C46   H39   S    
C12   C23   A    
C29   C30   S    
C18   C24   S    
C43   H38   S    
C31   N3    S    
C36   C37   A    
C19   C21   S    
C42   O7    S    
C38   C39   A    
C20   C25   S    
C10   C17   A    
O11   Zn2   S    
C12   C37   A    
C38   C45   A    
C44   H43   S    
C20   H47   S    
C47   C48   A    
C8    C9    A    
C50   O3    S    
C18   H34   S    
C43   O8    S    
C1    O1    A    
C18   C20   S    
O12   Zn1   S    
C44   H42   S    
C28   H10   S    
C4    O10   A    
C2    N2    A    
C30   H13   S    
C18   H45   S    
C43   H36   S    
C35   N1    A    
C44   C46   S    
C7    H24   S    
C45   C47   A    
C29   H11   S    
C34   C50   A    
C10   C44   S    
C4    O11   A    
C4    C6    S    
O15   Zn2   S    
C42   H35   S    
C46   H41   S    
C25   C26   S    
C2    O4    S    
C8    H25   S    
C40   H26   S    
C16   O12   A    
O9    Zn2   S    
C35   C39   A    
C13   C33   S    
C37   C38   A    
C3    C9    A    
C29   H18   S    
C31   C32   S    
C23   C34   A    
C41   H31   S    
C30   N4    S    
C29   N3    S    
C34   C45   A    
C17   N1    S    
C6    C7    A    
C19   H44   S    
C32   H17   S    
C48   C49   A    
C15   H23   S    
C9    N2    S    
C40   O5    S    
C11   O5    S    
C2    C47   A    
C40   H28   S    
C16   O13   A    
C30   H19   S    
C16   C25   S    
C15   C17   A    
C21   C25   S    
C33   O14   A    
C39   C49   A    
C14   C15   A    
N3    Zn2   S    
C31   H14   S    
O1    Zn1   S    
C42   H33   S    
C48   H20   S    
C3    C5    A    
C26   H6    S    
C41   H29   S    
O10   Zn1   S    
C22   H5    S    
C46   H40   S    
C32   N4    S    
C28   O7    S    
C50   N2    A    
O14   Zn1   S    
C36   O2    S    
C43   H37   S    
C3    H22   S    
C20   H2    S    
C27   H9    S    
C1    O9    A    
C21   H3    S    
C21   H48   S    
C11   C13   A    
C5    C6    A    
C49   H21   S    
C27   O6    S    
C27   N3    S    
C19   C24   S    
C36   N1    A    
C22   C24   S    
C26   H7    S    
C10   C11   A    
N4    Zn1   S    
C22   C26   S    
C28   N4    S    
C1    C24   S    
O13   Zn2   S    
C5    O8    S    
C27   C28   S    
C40   H27   S    
C35   O16   S    
C13   C14   A    
C19   H46   S    
C32   H15   S    
C14   H12   S    
