data_mof_unit_64078.cif
_audit_creation_date              2013-03-05T16:12:37-0500
_audit_creation_method            fapswitch 2.2
_symmetry_space_group_name_H-M    P1
_symmetry_Int_Tables_number       1
_space_group_crystal_system       triclinic
_cell_length_a                    22.560577
_cell_length_b                    22.522942
_cell_length_c                    14.694711
_cell_angle_alpha                 90.094073
_cell_angle_beta                  89.965787
_cell_angle_gamma                 90.001585
_cell_volume                      7466.82043779

loop_
_atom_site_label
_atom_site_type_symbol
_atom_site_description
_atom_site_fract_x
_atom_site_fract_y
_atom_site_fract_z
_atom_type_partial_charge
O1    O     O_R   0.060270 0.439640 0.575970 -0.555242
O2    O     O_R   0.060270 0.439640 0.424030 -0.549973
O3    O     O_R   0.060270 0.560360 0.424030 -0.554785
O4    O     O_R   0.060270 0.560360 0.575970 -0.549360
O5    O     O_R   0.560270 0.939640 0.575970 -0.555150
O6    O     O_R   0.560270 0.939640 0.424030 -0.549465
O7    O     O_R   0.560270 0.060360 0.424030 -0.554101
O8    O     O_R   0.560270 0.060360 0.575970 -0.549755
C1    C     C_R   0.079988 0.420013 0.499915 0.813302
C2    C     C_R   0.079993 0.579982 0.500051 0.811910
C3    C     C_R   0.579958 0.919988 0.499903 0.813774
C4    C     C_R   0.579989 0.079985 0.500053 0.813221
O9    O     O_R   0.939710 0.439640 0.575970 -0.553185
O10   O     O_R   0.939710 0.439640 0.424030 -0.547893
O11   O     O_R   0.939710 0.560360 0.424030 -0.556130
O12   O     O_R   0.939710 0.560360 0.575970 -0.538725
O13   O     O_R   0.439710 0.939640 0.575970 -0.552894
O14   O     O_R   0.439710 0.939640 0.424030 -0.547880
O15   O     O_R   0.439710 0.060360 0.424030 -0.553595
O16   O     O_R   0.439710 0.060360 0.575970 -0.543890
C5    C     C_R   0.920030 0.419967 0.499945 0.814089
C6    C     C_R   0.920059 0.580059 0.500119 0.812192
C7    C     C_R   0.420031 0.919966 0.499945 0.813248
C8    C     C_R   0.420033 0.080035 0.500087 0.814166
Cu1   Cu    Cu3+1 0.999990 0.500000 0.589920 1.173908
Cu2   Cu    Cu3+1 0.999990 0.500000 0.410080 1.166888
Cu3   Cu    Cu3+1 0.499990 1.000000 0.589920 1.171773
Cu4   Cu    Cu3+1 0.499990 1.000000 0.410080 1.168485
C9    C     C_3   0.815405 0.236068 0.554067 -0.017519
C10   C     C_3   0.773772 0.272938 0.399042 0.012067
C11   C     C_3   0.815033 0.763864 0.447302 -0.015404
C12   C     C_3   0.771961 0.727015 0.603828 0.034186
C13   C     C_3   0.316971 0.734507 0.548405 -0.017392
C14   C     C_3   0.270775 0.775941 0.399256 0.011733
C15   C     C_3   0.315368 0.263833 0.445641 -0.017515
C16   C     C_3   0.273856 0.227253 0.600972 0.011352
C17   C     C_3   0.231796 0.717231 0.398616 0.390613
C18   C     C_3   0.266571 0.685991 0.561789 0.403199
C19   C     C_3   0.234867 0.285952 0.600108 0.390178
C20   C     C_3   0.264546 0.311905 0.432368 0.403348
C21   C     C_3   0.734788 0.214232 0.399782 0.390159
C22   C     C_3   0.764601 0.187956 0.567282 0.403556
C23   C     C_3   0.733258 0.785569 0.599827 0.376841
C24   C     C_3   0.763943 0.812213 0.434905 0.406393
H1    H     H_    0.744120 0.309260 0.376742 0.209377
H2    H     H_    0.827174 0.252430 0.622983 0.228516
H3    H     H_    0.742049 0.690904 0.625952 0.207232
H4    H     H_    0.824906 0.746127 0.378623 0.220579
H5    H     H_    0.240522 0.812865 0.381655 0.209314
H6    H     H_    0.330806 0.748802 0.617489 0.228366
H7    H     H_    0.244226 0.190969 0.623549 0.209547
H8    H     H_    0.327104 0.247343 0.376760 0.228734
C25   C     C_1   0.125050 0.623958 0.500367 0.066294
C26   C     C_1   0.125011 0.375999 0.499519 0.066733
C27   C     C_1   0.625014 0.123993 0.500388 0.066960
C28   C     C_1   0.624694 0.875694 0.499433 0.064939
C29   C     C_3   0.792226 0.291267 0.498886 -0.315559
C30   C     C_3   0.792159 0.708630 0.503930 -0.310784
C31   C     C_3   0.292215 0.791280 0.498868 -0.315552
C32   C     C_3   0.292232 0.208735 0.501148 -0.315810
C33   C     C_3   0.209796 0.706661 0.502106 -0.383115
C34   C     C_3   0.209698 0.293234 0.497691 -0.382975
C35   C     C_3   0.709700 0.206754 0.502254 -0.383190
C36   C     C_3   0.708752 0.792288 0.497630 -0.390901
C37   C     C_3   0.181982 0.768358 0.542753 0.303535
C38   C     C_3   0.180747 0.230346 0.463832 0.303051
C39   C     C_3   0.680771 0.269572 0.536507 0.302739
C40   C     C_3   0.680588 0.729468 0.463449 0.312566
C41   C     C_3   0.734750 0.316394 0.548059 0.438049
C42   C     C_3   0.734934 0.682824 0.454109 0.424420
C43   C     C_3   0.236295 0.814848 0.553761 0.438050
C44   C     C_3   0.234722 0.183509 0.452295 0.438032
C45   C     C_1   0.163268 0.660947 0.501320 0.293654
C46   C     C_1   0.163190 0.338970 0.498499 0.293591
C47   C     C_1   0.663195 0.161018 0.501408 0.293633
C48   C     C_1   0.662538 0.838348 0.498331 0.281336
C49   C     C_1   0.838182 0.337595 0.499035 0.244004
C50   C     C_1   0.838248 0.662469 0.502718 0.258253
C51   C     C_1   0.338167 0.837611 0.499031 0.243785
C52   C     C_1   0.338191 0.162411 0.501046 0.244338
C53   C     C_1   0.875604 0.375330 0.499663 0.019211
C54   C     C_1   0.875676 0.624731 0.500821 0.025721
C55   C     C_1   0.375600 0.875335 0.499666 0.019044
C56   C     C_1   0.375611 0.124675 0.500426 0.021070
C57   C     C_3   0.957432 0.555318 0.056930 0.360011
C58   C     C_3   0.966293 0.561532 0.947132 0.367904
C59   C     C_3   0.955383 0.445040 0.943451 0.370662
C60   C     C_3   0.965497 0.438808 0.053600 0.358810
C61   C     C_3   0.456590 0.054670 0.056934 0.359781
C62   C     C_3   0.465361 0.061029 0.947138 0.369050
C63   C     C_3   0.456210 0.944381 0.943443 0.370403
C64   C     C_3   0.466417 0.938296 0.053592 0.358196
N1    N     N_1   0.000150 0.500000 0.724970 -0.109370
N2    N     N_1   0.000150 0.500000 0.275030 -0.112527
N3    N     N_1   0.500150 0.000000 0.724970 -0.109618
N4    N     N_1   0.500150 0.000000 0.275030 -0.112427
C65   C     C_3   0.995809 0.499650 0.092603 -0.513476
C66   C     C_3   0.995104 0.500152 0.907465 -0.517267
C67   C     C_3   0.495806 0.999590 0.092603 -0.513793
C68   C     C_3   0.495094 0.000092 0.907464 -0.516841
C69   C     C_3   0.061787 0.493772 0.945878 0.495791
C70   C     C_3   0.062378 0.504784 0.053215 0.504468
C71   C     C_3   0.561867 0.994720 0.945879 0.495513
C72   C     C_3   0.562291 0.005736 0.053218 0.504226
C73   C     C_1   0.998346 0.500125 0.804482 0.566662
C74   C     C_1   0.998651 0.499834 0.195517 0.547743
C75   C     C_1   0.498339 0.000108 0.804481 0.567010
C76   C     C_1   0.498648 0.999814 0.195517 0.548002
N5    N     N_R   0.288033 0.624973 0.541997 0.210272
O17   O     O_R   0.340229 0.609662 0.571702 -0.137594
O18   O     O_R   0.249863 0.581902 0.535080 -0.238936
N6    N     N_R   0.262504 0.664119 0.361298 0.193949
O19   O     O_R   0.300498 0.669439 0.295207 -0.122225
O20   O     O_R   0.235341 0.613234 0.365386 -0.225092
N7    N     N_R   0.286515 0.373455 0.445909 0.210332
O21   O     O_R   0.337699 0.387737 0.411171 -0.137595
O22   O     O_R   0.248549 0.416733 0.452454 -0.238671
N8    N     N_R   0.266624 0.340148 0.631085 0.193851
O23   O     O_R   0.306584 0.336893 0.694645 -0.122808
O24   O     O_R   0.239319 0.390875 0.625177 -0.225796
N9    N     N_R   0.786564 0.126437 0.553345 0.210345
O25   O     O_R   0.837794 0.112089 0.587759 -0.137077
O26   O     O_R   0.748593 0.083167 0.546777 -0.240634
N10   N     N_R   0.766522 0.160095 0.368453 0.193865
O27   O     O_R   0.806464 0.163469 0.304809 -0.122479
O28   O     O_R   0.739209 0.109360 0.374200 -0.224825
N11   N     N_R   0.781345 0.875041 0.453290 0.196334
O29   O     O_R   0.833940 0.890747 0.480085 -0.138040
O30   O     O_R   0.745185 0.917631 0.430774 -0.231594
N12   N     N_R   0.765496 0.840044 0.627955 0.188123
O31   O     O_R   0.821996 0.840622 0.645304 -0.155636
O32   O     O_R   0.736053 0.889119 0.640620 -0.211068
N13   N     N_R   0.872223 0.213504 0.518140 0.198001
O33   O     O_R   0.875026 0.178402 0.448080 -0.163501
O34   O     O_R   0.921197 0.226404 0.560624 -0.201607
N14   N     N_R   0.820947 0.274162 0.329370 0.212551
O35   O     O_R   0.876969 0.276847 0.349867 -0.221573
O36   O     O_R   0.805874 0.279580 0.244272 -0.138617
N15   N     N_R   0.873595 0.786564 0.475234 0.196575
O37   O     O_R   0.897602 0.771976 0.552350 -0.197249
O38   O     O_R   0.907746 0.809894 0.413350 -0.160237
N16   N     N_R   0.817070 0.727401 0.676967 0.235594
O39   O     O_R   0.860784 0.689776 0.676175 -0.228580
O40   O     O_R   0.801923 0.748726 0.756065 -0.131609
N17   N     N_R   0.372632 0.713101 0.506960 0.197925
O41   O     O_R   0.373300 0.680150 0.434371 -0.163732
O42   O     O_R   0.422838 0.724737 0.546829 -0.201902
N18   N     N_R   0.315818 0.779300 0.326493 0.212692
O43   O     O_R   0.372399 0.781446 0.343180 -0.220650
O44   O     O_R   0.298217 0.787233 0.243027 -0.138314
N19   N     N_R   0.372199 0.286482 0.481296 0.197949
O45   O     O_R   0.375026 0.321789 0.551107 -0.163658
O46   O     O_R   0.421167 0.273413 0.438829 -0.201488
N20   N     N_R   0.321094 0.226168 0.670463 0.213483
O47   O     O_R   0.377101 0.223513 0.649749 -0.218411
O48   O     O_R   0.306106 0.220839 0.755637 -0.137912
Cl1   Cl    Cl    0.171362 0.727658 0.319433 -0.302824
Cl2   Cl    Cl    0.249485 0.682114 0.681612 -0.296723
Cl3   Cl    Cl    0.176948 0.278133 0.684384 -0.300859
Cl4   Cl    Cl    0.243791 0.311949 0.313793 -0.296275
Cl5   Cl    Cl    0.676803 0.222207 0.315754 -0.300646
Cl6   Cl    Cl    0.743938 0.187657 0.685931 -0.296157
Cl7   Cl    Cl    0.674752 0.778843 0.683731 -0.302274
Cl8   Cl    Cl    0.745326 0.813008 0.315326 -0.293170
Cl9   Cl    Cl    0.752261 0.331803 0.666451 -0.317872
Cl10  Cl    Cl    0.717819 0.391025 0.510733 -0.312492
Cl11  Cl    Cl    0.752895 0.666016 0.336190 -0.322304
Cl12  Cl    Cl    0.717968 0.608563 0.493151 -0.312324
Cl13  Cl    Cl    0.257352 0.826719 0.671737 -0.317257
Cl14  Cl    Cl    0.218331 0.890504 0.522962 -0.313386
Cl15  Cl    Cl    0.252150 0.167876 0.333911 -0.316936
Cl16  Cl    Cl    0.217823 0.108948 0.490013 -0.313988
N21   N     N_R   0.152278 0.761657 0.632624 0.215045
O49   O     O_R   0.128061 0.711688 0.656969 -0.234323
O50   O     O_R   0.132043 0.809407 0.672019 -0.117152
N22   N     N_R   0.133705 0.788752 0.480958 0.175709
O51   O     O_R   0.139143 0.832042 0.423109 -0.184674
O52   O     O_R   0.082669 0.761750 0.483890 -0.219944
N23   N     N_R   0.148301 0.234198 0.375875 0.214889
O53   O     O_R   0.126940 0.185271 0.341659 -0.117556
O54   O     O_R   0.123295 0.283350 0.349639 -0.236122
N24   N     N_R   0.134455 0.212003 0.530609 0.175623
O55   O     O_R   0.083358 0.238943 0.529467 -0.214747
O56   O     O_R   0.141718 0.170599 0.591152 -0.184440
N25   N     N_R   0.648395 0.265543 0.624566 0.214948
O57   O     O_R   0.623420 0.216335 0.650675 -0.235307
O58   O     O_R   0.627052 0.314399 0.659080 -0.117288
N26   N     N_R   0.634424 0.288038 0.469986 0.175583
O59   O     O_R   0.641638 0.329557 0.409599 -0.184482
O60   O     O_R   0.583329 0.261091 0.471195 -0.214511
N27   N     N_R   0.649345 0.733292 0.374514 0.214767
O61   O     O_R   0.628050 0.684431 0.339984 -0.117678
O62   O     O_R   0.624915 0.782552 0.347479 -0.232223
N28   N     N_R   0.633456 0.711307 0.528969 0.176504
O63   O     O_R   0.582278 0.738017 0.525792 -0.213819
O64   O     O_R   0.640203 0.670633 0.590794 -0.185991
N29   N     N_R   0.910717 0.580285 0.901707 0.201531
O65   O     O_R   0.906731 0.577127 0.813494 -0.241251
O66   O     O_R   0.880025 0.622599 0.939825 -0.129884
N30   N     N_R   0.894738 0.548142 0.086956 0.174966
O67   O     O_R   0.852498 0.530087 0.033779 -0.197649
O68   O     O_R   0.880050 0.561979 0.170193 -0.190413
N31   N     N_R   0.910642 0.420297 0.102126 0.194233
O69   O     O_R   0.893541 0.445464 0.177319 -0.266656
O70   O     O_R   0.889528 0.367369 0.086202 -0.115671
N32   N     N_R   0.892648 0.453267 0.914345 0.167993
O71   O     O_R   0.849632 0.425788 0.955300 -0.130196
O72   O     O_R   0.882440 0.465601 0.829315 -0.240084
N33   N     N_R   0.409514 0.078950 0.901700 0.201253
O73   O     O_R   0.405614 0.075806 0.813474 -0.250252
O74   O     O_R   0.378161 0.120756 0.939863 -0.129717
N34   N     N_R   0.394010 0.046538 0.086949 0.174943
O75   O     O_R   0.352057 0.027825 0.033768 -0.197542
O76   O     O_R   0.379107 0.060150 0.170181 -0.190072
N35   N     N_R   0.411849 0.918953 0.102116 0.194537
O77   O     O_R   0.394372 0.943854 0.177313 -0.266097
O78   O     O_R   0.391539 0.865711 0.086192 -0.114135
N36   N     N_R   0.393357 0.951659 0.914346 0.168367
O79   O     O_R   0.350776 0.923473 0.955241 -0.129493
O80   O     O_R   0.382956 0.963907 0.829342 -0.239669
Cl17  Cl    Cl    0.013735 0.376553 0.079129 -0.258857
Cl18  Cl    Cl    0.973326 0.376200 0.885140 -0.272855
Cl19  Cl    Cl    0.014087 0.623485 0.918755 -0.250593
Cl20  Cl    Cl    0.978159 0.624564 0.113235 -0.270775
Cl21  Cl    Cl    0.515592 0.876780 0.079111 -0.258939
Cl22  Cl    Cl    0.475189 0.875825 0.885119 -0.272215
Cl23  Cl    Cl    0.512221 0.123698 0.918791 -0.251809
Cl24  Cl    Cl    0.476262 0.124218 0.113259 -0.268784
Cl25  Cl    Cl    0.097386 0.574252 0.082262 -0.248790
Cl26  Cl    Cl    0.114593 0.540280 0.886280 -0.260429
Cl27  Cl    Cl    0.094914 0.423557 0.915824 -0.250495
Cl28  Cl    Cl    0.114892 0.457600 0.111963 -0.256694
Cl29  Cl    Cl    0.596242 0.075727 0.082276 -0.248379
Cl30  Cl    Cl    0.613967 0.042024 0.886290 -0.260554
Cl31  Cl    Cl    0.596050 0.925015 0.915819 -0.249652
Cl32  Cl    Cl    0.615513 0.959352 0.111962 -0.255715

loop_
_geom_bond_atom_site_label_1
_geom_bond_atom_site_label_2
_geom_bond_distance
_ccdc_geom_bond_type
Cu2   N2    1.984522 S    
C9    N13   1.475962 S    
C59   C60   1.641000 S    
C24   N11   1.492782 S    
Cu1   N1    1.984526 S    
C69   C70   1.596333 S    
C28   C48   1.198623 T    
C21   Cl5   1.808556 S    
C9    C22   1.589324 S    
C14   H5    1.106948 S    
C14   C17   1.588040 S    
N15   O38   1.302831 A    
C59   Cl18  1.815857 S    
C10   H1    1.106943 S    
Cu3   N3    1.984526 S    
C12   C30   1.590994 S    
C52   C56   1.197980 T    
N8    O24   1.301078 A    
N6    O20   1.301086 A    
O4    Cu1   1.933952 S    
N36   O79   1.299050 A    
C16   N20   1.476653 S    
N21   O49   1.301600 A    
C24   C36   1.612843 S    
C67   C76   1.513693 S    
N31   O70   1.304577 A    
N28   O63   1.302846 A    
O13   C7    1.280801 A    
C66   C73   1.515029 S    
C7    C55   1.419584 S    
O14   Cu4   1.933952 S    
C61   C67   1.612234 S    
C44   Cl16  1.809812 S    
C21   N10   1.486295 S    
N18   O44   1.302021 A    
O5    C3    1.280797 A    
N35   O78   1.304574 A    
N32   O72   1.301127 A    
N25   O58   1.303010 A    
C20   N7    1.485324 S    
C32   C44   1.587878 S    
N7    O21   1.302813 A    
C10   C29   1.579583 S    
C20   C34   1.621515 S    
C13   N17   1.475953 S    
C64   N35   1.487880 S    
N26   O60   1.302862 A    
C17   Cl1   1.808533 S    
N29   O66   1.303565 A    
C2    C25   1.419270 S    
N8    O23   1.300653 A    
C17   N6    1.486297 S    
N26   O59   1.300354 A    
N1    C73   1.169085 T    
C41   Cl10  1.809824 S    
N12   O31   1.300131 A    
C14   N18   1.476680 S    
O11   C6    1.281153 A    
C38   C44   1.619762 S    
C38   N24   1.491423 S    
O16   C8    1.280262 A    
N30   O67   1.297670 A    
N7    O22   1.301034 A    
C70   Cl25  1.803373 S    
C71   Cl31  1.803331 S    
N19   O45   1.298533 A    
C43   Cl13  1.817168 S    
C10   C21   1.588040 S    
C69   Cl26  1.812512 S    
C63   C68   1.620216 S    
C12   N16   1.480587 S    
C65   C70   1.613411 S    
O5    Cu3   1.933533 S    
C18   C33   1.621489 S    
C27   C47   1.198983 T    
N22   O52   1.302870 A    
C67   C72   1.613426 S    
N4    C76   1.168928 T    
C13   C31   1.574946 S    
C26   C46   1.199031 T    
N23   O54   1.301588 A    
C70   Cl28  1.811780 S    
O9    Cu1   1.933650 S    
C15   N19   1.475978 S    
N11   O30   1.302538 A    
C62   C68   1.634172 S    
N6    O19   1.300640 A    
N17   O42   1.301971 A    
C23   C36   1.607967 S    
N17   O41   1.298523 A    
C61   N34   1.490250 S    
N24   O56   1.300357 A    
N21   O50   1.303006 A    
O7    C4    1.280713 A    
C35   C39   1.636582 S    
N9    O25   1.302795 A    
C11   C24   1.596418 S    
C34   C38   1.636584 S    
O14   C7    1.280212 A    
O13   Cu3   1.933650 S    
C44   Cl15  1.817145 S    
C29   C49   1.470943 S    
C62   Cl23  1.812403 S    
O1    C1    1.280682 A    
N18   O43   1.300866 A    
C18   Cl2   1.804502 S    
N33   O73   1.301303 A    
C31   C51   1.470931 S    
C63   C64   1.641004 S    
C30   C50   1.470529 S    
N32   O71   1.299050 A    
C30   C42   1.593807 S    
O11   Cu2   1.933530 S    
C40   N27   1.487837 S    
C33   C45   1.470384 S    
C13   H6    1.109489 S    
C57   C58   1.631902 S    
C19   Cl3   1.808552 S    
C16   C19   1.588061 S    
C68   C71   1.613652 S    
O7    Cu4   1.933650 S    
N27   O61   1.302990 A    
C15   C32   1.574960 S    
C39   C41   1.619748 S    
N12   O32   1.302621 A    
N35   O77   1.299417 A    
N27   O62   1.301621 A    
C59   N32   1.490449 S    
N2    C74   1.168926 T    
C42   Cl12  1.809980 S    
C50   C54   1.198396 T    
C57   N30   1.490256 S    
N36   O80   1.301119 A    
C49   C53   1.197974 T    
O8    C4    1.280169 A    
N28   O64   1.300264 A    
C36   C48   1.470842 S    
C43   Cl14  1.809819 S    
O9    C5    1.280812 A    
O2    Cu2   1.934178 S    
O10   Cu2   1.933952 S    
C18   N5    1.485370 S    
O15   Cu4   1.933530 S    
N20   O47   1.300862 A    
C16   H7    1.106948 S    
N3    C75   1.169085 T    
C65   C74   1.513685 S    
N14   O36   1.302017 A    
N22   O51   1.300355 A    
C5    C53   1.419599 S    
C64   Cl21  1.814765 S    
C71   Cl30  1.812517 S    
C10   N14   1.476640 S    
C11   H4    1.107300 S    
C63   Cl22  1.815855 S    
C14   C31   1.579580 S    
C12   H3    1.105968 S    
N16   O40   1.302368 A    
C58   Cl19  1.812408 S    
C21   C35   1.617377 S    
C61   Cl24  1.825334 S    
C11   N15   1.474911 S    
N11   O29   1.299302 A    
C66   C69   1.613635 S    
C36   C40   1.629702 S    
O6    C3    1.280039 A    
C39   N26   1.491432 S    
O10   C5    1.280208 A    
N10   O28   1.301087 A    
C39   N25   1.488439 S    
O12   Cu1   1.934175 S    
C19   C34   1.617455 S    
C32   C52   1.470968 S    
C68   C75   1.515029 S    
O12   C6    1.279827 A    
C69   Cl27  1.803326 S    
C37   N21   1.488461 S    
C60   Cl17  1.814772 S    
N20   O48   1.302021 A    
C20   Cl4   1.804525 S    
C23   N12   1.484530 S    
C25   C45   1.198996 T    
C60   C65   1.634574 S    
C9    C29   1.574943 S    
N14   O35   1.300861 A    
C16   C32   1.579510 S    
C11   C30   1.584040 S    
C62   N33   1.482602 S    
C17   C33   1.617403 S    
N15   O37   1.298996 A    
C22   Cl6   1.804512 S    
C72   Cl29  1.803373 S    
O16   Cu3   1.934175 S    
C19   N8    1.486268 S    
C38   N23   1.488428 S    
O3    Cu2   1.933650 S    
C13   C18   1.589333 S    
C6    C54   1.419532 S    
C9    H2    1.109490 S    
Cu4   N4    1.984522 S    
C59   C66   1.620196 S    
C63   N36   1.490437 S    
N5    O18   1.301037 A    
C15   C20   1.589329 S    
Cu1   Cu2   2.642695 S    
C37   N22   1.491442 S    
O3    C2    1.280695 A    
C37   C43   1.619750 S    
N5    O17   1.302789 A    
C51   C55   1.197968 T    
C15   H8    1.109504 S    
N25   O57   1.301594 A    
N13   O33   1.298525 A    
C35   C47   1.470363 S    
N33   O74   1.303564 A    
C12   C23   1.582895 S    
O15   C8    1.280764 A    
N19   O46   1.301965 A    
C60   N31   1.487854 S    
C8    C56   1.419609 S    
N29   O65   1.301261 A    
C58   C66   1.634133 S    
C57   Cl20  1.825322 S    
C41   Cl9   1.817147 S    
N9    O26   1.301033 A    
C4    C27   1.419246 S    
C57   C65   1.612214 S    
N34   O76   1.304317 A    
C58   N29   1.482566 S    
N23   O53   1.303024 A    
C33   C37   1.636584 S    
O6    Cu4   1.934178 S    
C72   Cl32  1.811773 S    
N34   O75   1.297670 A    
C64   C67   1.634577 S    
C40   C42   1.620259 S    
C71   C72   1.596341 S    
N13   O34   1.301973 A    
O8    Cu3   1.933952 S    
N16   O39   1.300333 A    
C34   C46   1.470441 S    
C40   N28   1.491636 S    
C1    C26   1.419327 S    
C24   Cl8   1.807046 S    
N31   O69   1.299418 A    
C29   C41   1.587892 S    
C61   C62   1.631935 S    
C42   Cl11  1.818522 S    
O2    C1    1.280241 A    
O4    C2    1.280197 A    
C22   C35   1.621506 S    
O1    Cu1   1.933533 S    
N30   O68   1.304320 A    
C3    C28   1.419140 S    
N24   O55   1.302856 A    
C22   N9    1.485359 S    
C31   C43   1.587904 S    
N10   O27   1.300638 A    
Cu3   Cu4   2.642695 S    
C23   Cl7   1.812176 S    
