data_mof_unit_32483.cif
_audit_creation_date              2012-12-10T19:04:48-0500
_audit_creation_method            fapswitch 2.2
_symmetry_space_group_name_H-M    P1
_symmetry_Int_Tables_number       1
_space_group_crystal_system       triclinic
_cell_length_a                    15.847781
_cell_length_b                    10.816515
_cell_length_c                    9.556275
_cell_angle_alpha                 90.09544
_cell_angle_beta                  90.266446
_cell_angle_gamma                 89.855628
_cell_volume                      1638.09010916

loop_
_atom_site_label
_atom_site_type_symbol
_atom_type_description
_atom_site_fract_x
_atom_site_fract_y
_atom_site_fract_z
_atom_type_partial_charge
C1    C     C_R   0.495962 0.262543 0.499816 0.798825
C2    C     C_3   0.082765 0.505307 0.497816 0.038886
C3    C     C_3   0.971284 0.620614 0.529643 -0.222491
C4    C     C_3   0.916556 0.505011 0.503189 0.067492
C5    C     C_3   0.026376 0.585513 0.400814 -0.326194
C6    C     C_3   0.970690 0.470446 0.376212 0.426633
C7    C     C_1   0.174532 0.503381 0.497544 0.014600
C8    C     C_1   0.825045 0.503546 0.502879 0.003045
C9    C     C_R   0.504270 0.063632 0.620810 0.077777
C10   C     C_R   0.483188 0.129663 0.500593 -0.166570
C11   C     C_R   0.444932 0.065299 0.387433 -0.089987
C12   C     C_R   0.339849 0.500216 0.499605 0.820130
C13   C     C_R   0.445031 0.934622 0.387528 -0.094822
C14   C     C_R   0.483326 0.870488 0.500880 -0.168141
C15   C     C_R   0.504319 0.936888 0.621067 0.081025
C16   C     C_3   0.579318 0.929511 0.716574 -0.275991
C17   C     C_3   0.579079 0.071681 0.716398 -0.277507
C18   C     C_R   0.571099 0.532044 0.074358 0.136210
C19   C     C_R   0.428019 0.479381 0.073568 -0.000852
C20   C     C_R   0.427994 0.479497 0.925316 -0.019308
C21   C     C_R   0.571213 0.530558 0.926677 0.201957
C22   C     C_3   0.654130 0.465177 0.918806 -0.540127
C23   C     C_R   0.496111 0.737511 0.499967 0.793184
C24   C     C_3   0.654702 0.465029 0.077730 0.263580
C25   C     C_R   0.660045 0.500350 0.500401 0.813871
C26   C     C_3   0.972521 0.425515 0.601222 -0.361912
C27   C     C_3   0.026537 0.391740 0.472396 0.402487
C28   C     C_1   0.250117 0.501734 0.498472 -0.157343
C29   C     C_1   0.749576 0.501956 0.501647 -0.154488
C30   C     C_3   0.028653 0.540541 0.624614 0.022046
Cu1   Cu    Cu3+1 0.500000 0.499980 0.640670 0.961077
Cu2   Cu    Cu3+1 0.500000 0.500020 0.359330 0.974828
H1    H     H_    0.635531 0.887929 0.665373 0.127599
H2    H     H_    0.635179 0.113030 0.665206 0.129066
H3    H     H_    0.370042 0.458683 0.127495 0.154178
H4    H     H_    0.369971 0.458730 0.870621 0.146476
H5    H     H_    0.648755 0.371225 0.872546 0.191307
H6    H     H_    0.704004 0.523217 0.870970 0.202394
H7    H     H_    0.648669 0.370319 0.121690 0.144457
H8    H     H_    0.948937 0.361841 0.683039 0.146852
H9    H     H_    0.049482 0.650647 0.320040 0.161445
H10   H     H_    0.946837 0.714222 0.555154 0.148867
N1    N     N_R   0.500530 0.500930 0.147930 -0.204669
N2    N     N_R   0.500530 0.500890 0.852020 -0.175388
O1    O     O_R   0.500000 0.319640 0.618810 -0.572679
O2    O     O_R   0.500010 0.319680 0.381230 -0.573742
O3    O     O_R   0.379070 0.499970 0.618770 -0.586044
O4    O     O_R   0.379080 0.500010 0.381190 -0.582146
O5    O     O_R   0.499990 0.680320 0.618770 -0.568094
O6    O     O_R   0.500000 0.680360 0.381190 -0.575799
O7    O     O_R   0.620920 0.499990 0.618810 -0.590251
O8    O     O_R   0.620930 0.500030 0.381230 -0.559820
O9    O     O_3   0.061204 0.275059 0.439355 -0.583111
C31   C     C_3   0.997048 0.184962 0.441210 0.062750
H11   H     H_    0.942644 0.211905 0.373551 0.171553
H12   H     H_    0.974715 0.169808 0.550026 0.143289
C32   C     C_3   0.032291 0.063433 0.386185 -0.771644
H13   H     H_    0.086089 0.032635 0.452508 0.257120
H14   H     H_    0.982490 0.991393 0.388085 0.192936
H15   H     H_    0.054296 0.075284 0.276844 0.250991
C33   C     C_1   0.556948 0.132249 0.849889 0.321552
N3    N     N_1   0.539447 0.179494 0.954599 -0.296381
O10   O     O_3   0.725758 0.527522 0.136794 -0.531415
C34   C     C_3   0.720705 0.658174 0.131013 0.122783
H16   H     H_    0.672602 0.692695 0.206030 0.160929
H17   H     H_    0.705067 0.691504 0.023973 0.126779
C35   C     C_3   0.805815 0.712274 0.172125 -0.767701
H18   H     H_    0.822416 0.685114 0.280754 0.255423
H19   H     H_    0.855505 0.678013 0.100070 0.259004
H20   H     H_    0.803122 0.814728 0.166153 0.186639
O11   O     O_3   0.932834 0.432522 0.249365 -0.568190
C36   C     C_3   0.995146 0.420143 0.145587 0.079988
H21   H     H_    0.045429 0.354143 0.178511 0.173735
H22   H     H_    0.023836 0.511360 0.121534 0.160564
C37   C     C_3   0.954510 0.370560 0.012511 -0.755097
H23   H     H_    0.906366 0.436957 0.973164 0.259679
H24   H     H_    0.003485 0.357163 0.931176 0.198928
H25   H     H_    0.923832 0.280318 0.033621 0.243692
C38   C     C_1   0.062152 0.581149 0.760390 0.243759
N4    N     N_1   0.088730 0.613368 0.867316 -0.311486
C39   C     C_1   0.405990 0.131205 0.271710 0.312802
N5    N     N_1   0.374732 0.183433 0.179362 -0.274648
C40   C     C_1   0.406405 0.868382 0.271653 0.306088
N6    N     N_1   0.375508 0.815674 0.179271 -0.256222
C41   C     C_1   0.557903 0.870170 0.850690 0.323411
N7    N     N_1   0.540996 0.824276 0.956158 -0.304427

loop_
_geom_bond_atom_site_label_1
_geom_bond_atom_site_label_2
_ccdc_geom_bond_type
C3    H10   S    
C18   C21   A    
C2    C7    S    
C12   O4    A    
C1    O1    A    
C39   N5    T    
O9    C31   S    
C11   C39   S    
C26   C27   S    
C12   C28   S    
C18   C24   S    
C8    C29   T    
C12   O3    A    
C5    C6    S    
C1    O2    A    
C23   O5    A    
C15   C16   S    
C22   H6    S    
C24   H7    S    
Cu2   O8    S    
C17   C33   S    
C40   N6    T    
C16   C17   S    
C2    C27   S    
C9    C10   A    
C4    C8    S    
Cu1   O3    S    
C13   C14   A    
Cu2   O4    S    
Cu1   O5    S    
C36   C37   S    
C20   N2    A    
C19   N1    A    
C25   C29   S    
C6    O11   S    
C31   H12   S    
Cu1   N2    S    
C35   H18   S    
C34   C35   S    
C4    C6    S    
C32   H15   S    
C3    C5    S    
C41   N7    T    
C22   H5    S    
C7    C28   T    
O10   C34   S    
C35   H19   S    
C34   H17   S    
C14   C23   S    
C3    C30   S    
C37   H23   S    
C25   O7    A    
C16   H1    S    
C21   N2    A    
C6    C27   S    
C37   H24   S    
Cu2   O6    S    
C30   C38   S    
C9    C17   S    
C26   C30   S    
C24   O10   S    
C16   C41   S    
C22   C24   S    
C2    C5    S    
C17   H2    S    
C3    C4    S    
C36   H22   S    
C5    H9    S    
C31   H11   S    
Cu2   O2    S    
Cu1   Cu2   S    
C1    C10   S    
Cu1   O7    S    
C36   H21   S    
C23   O6    A    
C4    C26   S    
C27   O9    S    
C13   C40   S    
C2    C30   S    
C35   H20   S    
C34   H16   S    
C19   C20   A    
C9    C15   A    
C25   O8    A    
O11   C36   S    
C19   H3    S    
C18   N1    A    
C11   C13   A    
C26   H8    S    
C32   H13   S    
Cu2   N1    S    
C33   N3    T    
C37   H25   S    
C32   H14   S    
C10   C11   A    
C38   N4    T    
C20   H4    S    
Cu1   O1    S    
C14   C15   A    
C21   C22   S    
C31   C32   S    
