data_mof_unit_58728.cif
_audit_creation_date              2012-12-10T16:52:40-0500
_audit_creation_method            fapswitch 2.2
_symmetry_space_group_name_H-M    P1
_symmetry_Int_Tables_number       1
_space_group_crystal_system       triclinic
_cell_length_a                    7.864872
_cell_length_b                    8.55929
_cell_length_c                    13.741273
_cell_angle_alpha                 93.78819
_cell_angle_beta                  93.047268
_cell_angle_gamma                 93.971439
_cell_volume                      919.243502682

loop_
_atom_site_label
_atom_site_type_symbol
_atom_type_description
_atom_site_fract_x
_atom_site_fract_y
_atom_site_fract_z
_atom_type_partial_charge
C1    C     C_R   0.044920 0.794525 0.497705 0.950079
C2    C     C_R   0.937150 0.489156 0.317847 0.853658
C3    C     C_R   0.099960 0.546972 0.786115 -0.064113
C4    C     C_R   0.907940 0.482396 0.212372 -0.054501
C5    C     C_R   0.079835 0.715257 0.932376 -0.189968
C6    C     C_R   0.965222 0.378558 0.050944 -0.189199
C7    C     C_R   0.013608 0.658018 0.839773 -0.188169
C8    C     C_R   0.013861 0.404009 0.149913 -0.194169
C9    C     C_R   0.246914 0.489863 0.825868 -0.253542
C10   C     C_R   0.762706 0.546432 0.175057 -0.256727
C11   C     C_R   0.326367 0.558919 0.912675 0.091339
C12   C     C_R   0.955099 0.205483 0.502367 0.949041
C13   C     C_R   0.711699 0.523760 0.076169 0.083203
C14   C     C_R   0.237377 0.668486 0.968518 0.171209
C15   C     C_R   0.811480 0.432416 0.014498 0.179382
C16   C     C_R   0.492188 0.522564 0.944438 0.062551
C17   C     C_R   0.557006 0.578766 0.039193 0.061724
C18   C     C_R   0.465106 0.687721 0.093721 -0.223420
C19   C     C_R   0.597173 0.435902 0.883427 -0.228266
C20   C     C_R   0.308530 0.732405 0.058329 -0.223611
C21   C     C_R   0.754707 0.392888 0.918003 -0.224778
C22   C     C_2   0.068337 0.958163 0.496297 -0.378669
C23   C     C_2   0.931705 0.041852 0.503873 -0.381259
C24   C     C_R   0.063485 0.513825 0.682050 0.850448
H1    H     H_    0.242980 0.817479 0.101503 0.147286
H2    H     H_    0.563491 0.403345 0.807375 0.164508
H3    H     H_    0.197212 0.009174 0.488977 0.190765
H4    H     H_    0.802833 0.990840 0.511203 0.190948
H5    H     H_    0.394354 0.290286 0.381402 0.329552
H6    H     H_    0.605645 0.709084 0.619043 0.329896
H7    H     H_    0.830801 0.325465 0.869450 0.149319
H8    H     H_    0.684647 0.604478 0.226193 0.163509
H9    H     H_    0.300876 0.395564 0.784756 0.148301
H10   H     H_    0.128640 0.355643 0.178227 0.158657
H11   H     H_    0.899188 0.703925 0.809009 0.158181
H12   H     H_    0.011833 0.800456 0.973869 0.138919
H13   H     H_    0.044274 0.312103 0.003697 0.140697
H14   H     H_    0.514143 0.745778 0.162513 0.150505
N1    N     N_2   0.440860 0.456490 0.474790 0.180293
N2    N     N_2   0.559140 0.543510 0.525210 0.179072
O1    O     O_R   0.891570 0.738930 0.506190 -0.634746
O2    O     O_3   0.501369 0.653415 0.586280 -0.664372
O3    O     O_R   0.108430 0.261070 0.493810 -0.634251
O4    O     O_R   0.174650 0.711050 0.490030 -0.575880
O5    O     O_R   0.825350 0.288950 0.509970 -0.576550
O6    O     O_R   0.909850 0.521900 0.644940 -0.641631
O7    O     O_R   0.090150 0.478100 0.355060 -0.638101
O8    O     O_R   0.192930 0.494020 0.628780 -0.566067
O9    O     O_R   0.807070 0.505980 0.371220 -0.571143
O10   O     O_3   0.498632 0.346256 0.413960 -0.665161
Zn1   Zn    Zn3+2 0.810990 0.518620 0.510790 1.020590
Zn2   Zn    Zn3+2 0.189010 0.481380 0.489210 1.024663

loop_
_geom_bond_atom_site_label_1
_geom_bond_atom_site_label_2
_ccdc_geom_bond_type
C2    C4    S    
O7    Zn2   S    
C3    C9    A    
C2    O9    A    
C14   C20   A    
C2    O7    A    
N2    Zn1   S    
C9    C11   A    
C11   C16   A    
C1    O4    A    
C18   C20   A    
C13   C17   A    
C4    C8    A    
C24   O6    A    
O4    Zn2   S    
N2    O2    S    
N1    Zn2   S    
C5    C14   A    
C6    H13   S    
C1    C22   S    
C8    H10   S    
C23   H4    S    
C9    H9    S    
C21   H7    S    
C12   C23   S    
C3    C24   S    
C16   C17   A    
C16   C19   A    
C1    O1    A    
C19   C21   A    
C17   C18   A    
C12   O3    A    
C3    C7    A    
H5    O10   S    
C13   C15   A    
C18   H14   S    
C22   H3    S    
C11   C14   A    
O3    Zn2   S    
C20   H1    S    
O5    Zn1   S    
C4    C10   A    
C24   O8    A    
C5    H12   S    
C10   H8    S    
C15   C21   A    
N1    O10   S    
N1    N2    D    
C5    C7    A    
C19   H2    S    
C22   C23   D    
H6    O2    S    
C6    C8    A    
C6    C15   A    
O8    Zn2   S    
C7    H11   S    
O6    Zn1   S    
O1    Zn1   S    
C12   O5    A    
O9    Zn1   S    
C10   C13   A    
