data_mof_unit_33577.cif
_audit_creation_date              2013-03-05T15:43:16-0500
_audit_creation_method            fapswitch 2.2
_symmetry_space_group_name_H-M    P1
_symmetry_Int_Tables_number       1
_space_group_crystal_system       triclinic
_cell_length_a                    12.966167
_cell_length_b                    13.040832
_cell_length_c                    26.838834
_cell_angle_alpha                 89.841107
_cell_angle_beta                  89.506301
_cell_angle_gamma                 119.876399
_cell_volume                      3934.77774638

loop_
_atom_site_label
_atom_site_type_symbol
_atom_site_description
_atom_site_fract_x
_atom_site_fract_y
_atom_site_fract_z
_atom_type_partial_charge
O1    O     O_R   0.460870 0.120930 0.805240 -0.436347
O2    O     O_R   0.660060 0.539130 0.694760 -0.461802
O3    O     O_R   0.879070 0.339940 0.805240 -0.496804
O4    O     O_R   0.460870 0.120930 0.694760 -0.466390
O5    O     O_R   0.660060 0.539130 0.805240 -0.430748
O6    O     O_R   0.879070 0.339940 0.694760 -0.491234
O7    O     O_R   0.120930 0.460870 0.305240 -0.439906
O8    O     O_R   0.539130 0.660060 0.194760 -0.466558
O9    O     O_R   0.339940 0.879070 0.305240 -0.430540
O10   O     O_R   0.120930 0.460870 0.194760 -0.474361
O11   O     O_R   0.539130 0.660060 0.305240 -0.422772
O12   O     O_R   0.339940 0.879070 0.194760 -0.470253
O13   O     O_R   0.498910 0.350470 0.801870 -0.488638
O14   O     O_R   0.851560 0.501090 0.698130 -0.463152
O15   O     O_R   0.649530 0.148440 0.801870 -0.477630
O16   O     O_R   0.498910 0.350470 0.698130 -0.444029
O17   O     O_R   0.851560 0.501090 0.801870 -0.470615
O18   O     O_R   0.649530 0.148440 0.698130 -0.432328
O19   O     O_R   0.350470 0.498910 0.301870 -0.482831
O20   O     O_R   0.501090 0.851560 0.198130 -0.473355
O21   O     O_R   0.148440 0.649530 0.301870 -0.489479
O22   O     O_R   0.350470 0.498910 0.198130 -0.468676
O23   O     O_R   0.501090 0.851560 0.301870 -0.486915
O24   O     O_R   0.148440 0.649530 0.198130 -0.474602
C1    C     C_R   0.555639 0.455095 0.821690 0.589930
C2    C     C_R   0.897870 0.438395 0.678024 0.561101
C3    C     C_R   0.544843 0.102911 0.822663 0.548011
C4    C     C_R   0.556839 0.461630 0.680083 0.603952
C5    C     C_R   0.896527 0.441914 0.822164 0.515030
C6    C     C_R   0.544181 0.106164 0.677159 0.563468
C7    C     C_R   0.454916 0.557384 0.322569 0.590302
C8    C     C_R   0.442510 0.900070 0.178701 0.619582
C9    C     C_R   0.099863 0.544056 0.321318 0.583910
C10   C     C_R   0.458650 0.559147 0.178512 0.578942
C11   C     C_R   0.443715 0.900165 0.321050 0.605461
C12   C     C_R   0.101224 0.543185 0.178482 0.575877
C13   C     C_R   0.976775 0.490563 0.976182 0.020574
C14   C     C_R   0.473270 0.989178 0.525411 -0.000316
C15   C     C_R   0.508188 0.487429 0.975368 0.018839
C16   C     C_R   0.008726 0.486732 0.526462 0.014745
C17   C     C_R   0.517462 0.034981 0.979229 0.016426
C18   C     C_R   0.499044 0.523635 0.531609 0.023248
C19   C     C_R   0.474586 0.977061 0.473348 0.007297
C20   C     C_R   0.983985 0.490801 0.028741 0.001984
C21   C     C_R   0.489599 0.517807 0.478839 0.003166
C22   C     C_R   0.511699 0.029810 0.031971 0.004196
C23   C     C_R   0.015693 0.499816 0.474022 0.015503
C24   C     C_R   0.509769 0.495923 0.028116 0.016591
C25   C     C_R   0.907680 0.632784 0.983173 -0.070728
C26   C     C_R   0.563202 0.867331 0.536846 -0.051905
C27   C     C_R   0.381474 0.275742 0.984336 -0.087135
C28   C     C_R   0.117028 0.700518 0.535872 -0.100817
C29   C     C_R   0.731030 0.113833 0.984168 -0.080332
C30   C     C_R   0.284561 0.406646 0.540542 -0.054840
C31   C     C_R   0.574162 0.862910 0.485569 -0.068079
C32   C     C_R   0.926296 0.640846 0.033975 -0.054198
C33   C     C_R   0.274804 0.400348 0.489014 -0.049737
C34   C     C_R   0.723833 0.101294 0.035671 -0.061038
C35   C     C_R   0.124213 0.713577 0.484862 -0.088259
C36   C     C_R   0.379491 0.284940 0.035782 -0.104504
C37   C     C_R   0.925023 0.558423 0.901127 0.033616
C38   C     C_R   0.534354 0.965527 0.609158 0.058230
C39   C     C_R   0.437468 0.366811 0.900635 0.032655
C40   C     C_R   0.025969 0.575918 0.609247 0.075084
C41   C     C_R   0.634398 0.077376 0.902126 0.034947
C42   C     C_R   0.408438 0.460274 0.615513 0.003051
C43   C     C_R   0.547278 0.920487 0.401180 0.024450
C44   C     C_R   0.011150 0.597915 0.106354 0.050145
C45   C     C_R   0.366335 0.451203 0.404719 0.036885
C46   C     C_R   0.599279 0.018779 0.111803 0.041244
C47   C     C_R   0.075611 0.628295 0.401192 0.039186
C48   C     C_R   0.424276 0.409005 0.110879 0.053256
C49   C     C_R   0.033219 0.515749 0.131003 -0.011910
C50   C     C_R   0.487610 0.960719 0.369680 -0.030201
C51   C     C_R   0.491102 0.522400 0.130911 -0.022276
C52   C     C_R   0.037056 0.528993 0.370017 -0.006486
C53   C     C_R   0.485587 0.974559 0.132768 0.013258
C54   C     C_R   0.468141 0.515050 0.373553 -0.009850
C55   C     C_R   0.518935 0.059629 0.625503 -0.026075
C56   C     C_R   0.953384 0.485294 0.871780 -0.035422
C57   C     C_R   0.523454 0.505400 0.634195 0.004127
C58   C     C_R   0.531777 0.049846 0.873942 -0.029976
C59   C     C_R   0.961220 0.462068 0.628963 -0.001514
C60   C     C_R   0.507298 0.468456 0.870769 0.001554
H1    H     H_    0.906432 0.699260 0.055323 0.207466
H2    H     H_    0.616195 0.814574 0.472410 0.166421
H3    H     H_    0.332158 0.204764 0.057141 0.155242
H4    H     H_    0.170430 0.803468 0.471273 0.159298
H5    H     H_    0.805267 0.128449 0.055553 0.183897
H6    H     H_    0.185852 0.348984 0.474844 0.174239
H7    H     H_    0.596112 0.822462 0.559843 0.180468
H8    H     H_    0.875730 0.688154 0.967677 0.171873
H9    H     H_    0.204002 0.358936 0.562559 0.201733
H10   H     H_    0.818549 0.150976 0.967879 0.186273
H11   H     H_    0.160589 0.779904 0.557870 0.176043
H12   H     H_    0.334749 0.188883 0.969466 0.183364
C61   C     C_R   0.937288 0.561786 0.953220 0.019139
C62   C     C_R   0.522035 0.938474 0.557621 0.042721
C63   C     C_R   0.441352 0.375813 0.953213 0.027615
C64   C     C_R   0.052018 0.588568 0.557567 0.036922
C65   C     C_R   0.628350 0.074900 0.954894 0.014756
C66   C     C_R   0.396013 0.465562 0.562894 0.030481
C67   C     C_R   0.533382 0.920446 0.453123 0.026718
C68   C     C_R   0.970705 0.575311 0.056905 0.001813
C69   C     C_R   0.376221 0.455131 0.457301 0.021260
C70   C     C_R   0.613724 0.051704 0.060249 0.020601
C71   C     C_R   0.070695 0.614615 0.453207 0.032575
C72   C     C_R   0.437314 0.395018 0.058705 0.027794
Cr1   Cr    Cr6+3 0.487630 0.241180 0.750000 1.156777
Cr2   Cr    Cr6+3 0.753550 0.512370 0.750000 1.148395
Cr3   Cr    Cr6+3 0.758820 0.246450 0.750000 1.116601
Cr4   Cr    Cr6+3 0.241180 0.487630 0.250000 1.120642
Cr5   Cr    Cr6+3 0.512370 0.753550 0.250000 1.133141
Cr6   Cr    Cr6+3 0.246450 0.758820 0.250000 1.112902
O25   O     O_3   0.666667 0.333333 0.750000 -0.324146
O26   O     O_3   0.333333 0.666667 0.250000 -0.323046
C73   C     C_R   0.016122 0.435707 0.893786 0.028772
C74   C     C_R   0.460124 0.100936 0.593202 0.058949
C75   C     C_R   0.549584 0.579956 0.892518 0.088752
C76   C     C_R   0.954286 0.364966 0.600565 0.041380
C77   C     C_R   0.420169 0.990545 0.897992 0.074881
C78   C     C_R   0.615205 0.600266 0.606241 0.045996
C79   C     C_R   0.445382 0.033044 0.389625 0.079181
C80   C     C_R   0.005248 0.409494 0.106289 0.032501
C81   C     C_R   0.580712 0.554890 0.395011 0.091391
C82   C     C_R   0.409531 0.007436 0.109645 0.045947
C83   C     C_R   0.961337 0.416289 0.390272 0.092361
C84   C     C_R   0.588723 0.608610 0.103114 0.031698
C85   C     C_R   0.014419 0.424433 0.946830 -0.035861
C86   C     C_R   0.424774 0.054055 0.545331 -0.036554
C87   C     C_R   0.569131 0.590534 0.944930 -0.014299
C88   C     C_R   0.963379 0.373418 0.547874 -0.071752
C89   C     C_R   0.412260 0.995073 0.951089 -0.033555
C90   C     C_R   0.610877 0.590674 0.553620 -0.038256
C91   C     C_R   0.424640 0.028932 0.441920 -0.009535
C92   C     C_R   0.008988 0.410659 0.053274 -0.071387
C93   C     C_R   0.593074 0.572094 0.447831 -0.029010
C94   C     C_R   0.405946 0.006548 0.057145 -0.080087
C95   C     C_R   0.965537 0.399121 0.442476 -0.006154
C96   C     C_R   0.586799 0.603972 0.050515 -0.069948
C97   C     C_R   0.046232 0.344007 0.024359 0.011899
C98   C     C_R   0.347729 0.065540 0.463935 0.036677
C99   C     C_R   0.659468 0.703975 0.020173 -0.000869
C100  C     C_R   0.931007 0.286319 0.463505 0.044736
C101  C     C_R   0.301941 0.980711 0.029423 -0.002792
C102  C     C_R   0.705427 0.643243 0.470519 0.026356
C103  C     C_R   0.344757 0.073086 0.516424 0.020801
C104  C     C_R   0.049879 0.351284 0.971818 0.016298
C105  C     C_R   0.714218 0.645423 0.523096 0.044425
C106  C     C_R   0.304682 0.968958 0.976564 0.023405
C107  C     C_R   0.930400 0.273996 0.515924 0.011586
C108  C     C_R   0.650943 0.699105 0.967617 0.034210
C109  C     C_2   0.053481 0.715551 0.128045 0.619708
O27   O     O_2   0.158029 0.789740 0.122558 -0.496833
O28   O     O_R   0.980848 0.736887 0.159823 -0.647239
H13   H     H_    0.024188 0.818669 0.174967 0.324412
C110  C     C_2   0.628013 0.883534 0.379245 0.621770
O29   O     O_2   0.609415 0.783902 0.386789 -0.525514
O30   O     O_R   0.719141 0.959606 0.346589 -0.647243
H14   H     H_    0.765820 0.922671 0.332553 0.364568
C111  C     C_2   0.347400 0.310647 0.146149 0.636269
O31   O     O_2   0.251539 0.228915 0.133527 -0.477396
O32   O     O_R   0.383539 0.315447 0.195530 -0.627146
H15   H     H_    0.319445 0.251961 0.217535 0.352698
C112  C     C_2   0.120431 0.746364 0.379128 0.616222
O33   O     O_2   0.221987 0.822674 0.387262 -0.532232
O34   O     O_R   0.049431 0.767355 0.346373 -0.635889
H16   H     H_    0.092490 0.849934 0.331435 0.368049
C113  C     C_2   0.696585 0.032537 0.145271 0.636853
O35   O     O_2   0.775080 0.014260 0.130555 -0.438662
O36   O     O_R   0.693680 0.060230 0.195408 -0.640226
H17   H     H_    0.751139 0.047756 0.216458 0.340441
C114  C     C_2   0.249321 0.379405 0.382116 0.618255
O37   O     O_2   0.170814 0.401422 0.391720 -0.546726
O38   O     O_R   0.231146 0.291316 0.347867 -0.635298
H18   H     H_    0.148943 0.252297 0.332818 0.368211
C115  C     C_2   0.545669 0.886586 0.645800 0.580827
O39   O     O_2   0.618738 0.927026 0.679075 -0.466407
O40   O     O_R   0.466979 0.764775 0.643236 -0.683133
H19   H     H_    0.473669 0.719717 0.672667 0.373662
C116  C     C_2   0.872796 0.624080 0.878431 0.598360
O41   O     O_2   0.771577 0.596508 0.890035 -0.536355
O42   O     O_R   0.935575 0.711459 0.842251 -0.648482
H20   H     H_    0.887107 0.745745 0.827886 0.379436
C117  C     C_2   0.310619 0.437001 0.651115 0.574592
O43   O     O_2   0.244322 0.476004 0.642036 -0.471371
O44   O     O_R   0.299719 0.379754 0.696596 -0.659090
H21   H     H_    0.231546 0.372751 0.717932 0.375442
C118  C     C_2   0.742334 0.092541 0.875952 0.612970
O45   O     O_2   0.837646 0.182702 0.881009 -0.542184
O46   O     O_R   0.732981 0.004153 0.843806 -0.627721
H22   H     H_    0.811941 0.024311 0.827696 0.351275
C119  C     C_2   0.068816 0.677974 0.643851 0.608257
O47   O     O_2   0.052423 0.760601 0.634873 -0.471706
O48   O     O_R   0.124842 0.676641 0.687947 -0.662000
H23   H     H_    0.148965 0.749554 0.708904 0.363281
C120  C     C_2   0.349089 0.256228 0.876258 0.646786
O49   O     O_2   0.351940 0.165333 0.882614 -0.517691
O50   O     O_R   0.266938 0.258529 0.843516 -0.618360
H24   H     H_    0.212741 0.178391 0.828324 0.349806
C121  C     C_2   0.955504 0.299787 0.137448 0.606441
O51   O     O_2   0.971428 0.217824 0.127214 -0.454997
O52   O     O_R   0.895789 0.295555 0.181732 -0.623814
H25   H     H_    0.895266 0.236733 0.206509 0.369829
C122  C     C_2   0.446434 0.127454 0.357377 0.618076
O53   O     O_2   0.465331 0.220790 0.375916 -0.467432
O54   O     O_R   0.435032 0.114443 0.305711 -0.636400
H26   H     H_    0.440138 0.186114 0.288443 0.382972
C123  C     C_2   0.704008 0.668448 0.128940 0.615514
O55   O     O_2   0.755012 0.612789 0.136888 -0.472403
O56   O     O_R   0.749959 0.783356 0.146947 -0.606644
H27   H     H_    0.827141 0.812220 0.165474 0.356766
C124  C     C_2   0.865052 0.325834 0.358533 0.655279
O57   O     O_2   0.877839 0.326198 0.313328 -0.460005
O58   O     O_R   0.756331 0.243765 0.380366 -0.653947
H28   H     H_    0.698200 0.187766 0.355052 0.358174
C125  C     C_2   0.398327 0.101497 0.135392 0.519317
O59   O     O_2   0.457545 0.152210 0.172319 -0.336752
O60   O     O_R   0.386460 0.105302 0.188047 -0.489892
H29   H     H_    0.296361 0.046124 0.201368 0.336658
C126  C     C_2   0.675307 0.550875 0.364185 0.648213
O61   O     O_2   0.739265 0.517787 0.383228 -0.472384
O62   O     O_R   0.687545 0.577531 0.313265 -0.636710
H30   H     H_    0.753843 0.569289 0.296940 0.368998
C127  C     C_2   0.442099 0.200200 0.606649 0.606653
O63   O     O_2   0.505717 0.297318 0.587798 -0.536394
O64   O     O_R   0.343249 0.177422 0.636030 -0.605321
H31   H     H_    0.321984 0.241574 0.634100 0.357818
C128  C     C_2   0.087630 0.403549 0.860597 0.566066
O65   O     O_2   0.191838 0.475313 0.850017 -0.311774
O66   O     O_R   0.158642 0.476084 0.820037 -0.517459
H32   H     H_    0.108196 0.468696 0.786910 0.321656
C129  C     C_2   0.687920 0.719818 0.630319 0.613531
O67   O     O_2   0.676742 0.732509 0.674791 -0.454031
O68   O     O_R   0.760689 0.820604 0.601735 -0.691814
H33   H     H_    0.801727 0.895260 0.622307 0.359551
C130  C     C_2   0.319686 0.901371 0.868305 0.637766
O69   O     O_2   0.268458 0.931228 0.838584 -0.436871
O70   O     O_R   0.283310 0.781689 0.875058 -0.607898
H34   H     H_    0.213501 0.728272 0.853313 0.371146
C131  C     C_2   0.951302 0.261644 0.626174 0.628142
O71   O     O_2   0.043955 0.262045 0.634303 -0.486574
O72   O     O_R   0.842637 0.163747 0.640446 -0.621568
H35   H     H_    0.852983 0.100032 0.657484 0.351828
C132  C     C_2   0.546105 0.674815 0.862425 0.669428
O73   O     O_2   0.525940 0.746727 0.882998 -0.446485
O74   O     O_R   0.557770 0.677862 0.810519 -0.631433
H36   H     H_    0.551475 0.745196 0.794681 0.374743
C133  C     C_2   0.108991 0.289669 0.047819 0.648923
O75   O     O_2   0.189784 0.348573 0.076171 -0.484509
O76   O     O_R   0.076237 0.172518 0.037334 -0.638845
H37   H     H_    0.125928 0.145102 0.055534 0.378009
C134  C     C_2   0.258799 0.078974 0.433885 0.635390
O77   O     O_2   0.199559 0.005674 0.402786 -0.500338
O78   O     O_R   0.241900 0.175128 0.441206 -0.622090
H38   H     H_    0.166023 0.162773 0.425294 0.372962
C135  C     C_2   0.728593 0.819138 0.043530 0.650590
O79   O     O_2   0.674677 0.863344 0.062392 -0.460864
O80   O     O_R   0.852824 0.877892 0.042887 -0.638517
H39   H     H_    0.889067 0.957153 0.060120 0.398357
C136  C     C_2   0.910854 0.183227 0.431676 0.635122
O81   O     O_2   0.973415 0.197856 0.395119 -0.490374
O82   O     O_R   0.823440 0.068529 0.444704 -0.645468
H40   H     H_    0.835551 0.006741 0.427115 0.377743
C137  C     C_2   0.186938 0.957358 0.054356 0.603745
O83   O     O_2   0.091629 0.891080 0.035243 -0.469115
O84   O     O_R   0.184787 0.008111 0.099629 -0.703221
H41   H     H_    0.101287 0.983468 0.111813 0.361690
C138  C     C_2   0.812175 0.725858 0.440429 0.649012
O85   O     O_2   0.806435 0.792284 0.409937 -0.483604
O86   O     O_R   0.920218 0.730270 0.447710 -0.654306
H42   H     H_    0.988560 0.805109 0.432992 0.372082
C139  C     C_2   0.243949 0.074758 0.542686 0.594938
O87   O     O_2   0.219736 0.152244 0.534379 -0.445102
O88   O     O_R   0.183771 0.992480 0.580747 -0.677308
H43   H     H_    0.122053 0.006180 0.598230 0.378290
C140  C     C_2   0.098864 0.287110 0.944289 0.618586
O89   O     O_2   0.205495 0.336201 0.936129 -0.483289
O90   O     O_R   0.024393 0.171659 0.928410 -0.658411
H44   H     H_    0.068722 0.138705 0.909111 0.381815
C141  C     C_2   0.831784 0.693018 0.546377 0.664160
O91   O     O_2   0.848172 0.631539 0.575967 -0.499430
O92   O     O_R   0.920885 0.809164 0.536616 -0.648715
H45   H     H_    0.997476 0.828611 0.553484 0.376582
C142  C     C_2   0.196372 0.940353 0.947955 0.656229
O93   O     O_2   0.166185 0.014485 0.941820 -0.479523
O94   O     O_R   0.122555 0.825082 0.932384 -0.648665
H46   H     H_    0.050452 0.818158 0.915224 0.370191
C143  C     C_2   0.895884 0.155193 0.535685 0.625929
O95   O     O_2   0.792158 0.086990 0.546785 -0.467265
O96   O     O_R   0.981093 0.119867 0.539211 -0.645999
H47   H     H_    0.946436 0.036093 0.552389 0.376564
C144  C     C_2   0.734768 0.806261 0.937463 0.639695
O97   O     O_2   0.781901 0.796958 0.899564 -0.485085
O98   O     O_R   0.761519 0.918611 0.952743 -0.647717
H48   H     H_    0.828302 0.982687 0.932184 0.381957

loop_
_geom_bond_atom_site_label_1
_geom_bond_atom_site_label_2
_geom_bond_distance
_ccdc_geom_bond_type
C20   C92   1.402962 A    
C16   C23   1.413956 A    
C33   C69   1.416141 A    
O4    Cr1   2.063307 S    
C11   C50   1.490544 S    
O16   C4    1.343597 A    
C110  O29   1.213603 D    
C47   C71   1.403753 A    
C97   C133  1.463406 S    
C121  O51   1.216978 D    
C42   C66   1.428151 A    
O96   H47   1.013203 S    
C99   C135  1.457969 S    
C96   C99   1.417178 A    
C41   C65   1.417117 A    
O52   H25   1.011224 S    
O19   C7    1.307904 A    
O17   Cr2   1.946850 S    
C138  O85   1.219431 D    
C38   C115  1.481808 S    
C13   C61   1.407356 A    
C111  O31   1.218650 D    
C20   C68   1.416698 A    
C140  O90   1.393935 S    
C43   C67   1.404092 A    
O76   H37   1.007713 S    
C24   C72   1.427317 A    
O19   Cr4   1.948132 S    
O7    Cr4   2.041097 S    
O56   H27   1.012320 S    
O24   Cr6   1.954827 S    
C133  O75   1.217287 D    
C112  O33   1.213502 D    
C98   C134  1.492391 S    
C83   C95   1.424036 A    
C2    C59   1.493421 S    
O9    Cr6   2.068003 S    
C14   C86   1.387007 A    
C46   C113  1.491921 S    
C131  O71   1.220299 D    
C100  C107  1.415069 A    
O30   H14   1.013786 S    
O20   C8    1.316343 A    
C134  O77   1.218348 D    
C77   C130  1.482643 S    
C117  O44   1.397921 S    
O21   C9    1.299346 A    
O5    Cr2   2.045140 S    
C94   C101  1.432368 A    
C88   C107  1.435035 A    
O72   H35   1.013653 S    
C102  C105  1.415897 A    
C55   C74   1.428715 A    
C31   C67   1.414364 A    
O78   H38   1.012900 S    
C137  O83   1.219271 D    
O17   C5    1.297514 A    
C104  C140  1.474653 S    
C79   C122  1.497418 S    
C28   H11   1.079782 S    
C118  O46   1.398468 S    
C51   C84   1.408552 A    
O6    Cr3   2.042501 S    
C120  O50   1.398415 S    
C35   H4    1.077176 S    
C78   C90   1.417286 A    
C30   H9    1.080375 S    
O13   Cr1   1.948730 S    
C97   C104  1.411873 A    
C139  O88   1.396307 S    
C8    C53   1.488728 S    
C38   C62   1.419020 A    
O15   C3    1.299486 A    
C91   C98   1.427319 A    
O2    Cr2   2.058837 S    
O70   H34   1.014068 S    
C29   C65   1.412227 A    
C85   C104  1.417707 A    
O98   H48   1.010383 S    
C1    C60   1.501386 S    
C39   C63   1.415560 A    
C17   C22   1.416511 A    
C105  C141  1.474911 S    
O10   Cr4   2.061915 S    
O18   C6    1.323374 A    
C106  C142  1.482987 S    
C109  O28   1.392946 S    
C73   C85   1.429655 A    
C129  O67   1.222723 D    
C58   C77   1.405366 A    
C101  C106  1.429397 A    
C36   C72   1.393531 A    
C82   C125  1.477762 S    
C14   C62   1.416726 A    
C10   C51   1.494619 S    
C22   C94   1.413228 A    
Cr5   O26   2.013042 S    
O1    Cr1   2.052732 S    
C92   C97   1.416465 A    
C114  O38   1.399998 S    
C50   C79   1.410032 A    
C16   C88   1.408341 A    
O11   C7    1.316306 A    
O50   H24   1.013841 S    
C110  O30   1.399284 S    
C114  O37   1.213312 D    
C140  O89   1.217193 D    
O12   C8    1.286900 A    
C46   C53   1.399726 A    
O7    C9    1.316599 A    
O13   C1    1.302502 A    
C87   C108  1.421351 A    
C112  O34   1.399615 S    
O23   C11   1.298141 A    
C45   C114  1.466416 S    
C121  O52   1.398717 S    
C48   C51   1.400883 A    
C100  C136  1.505225 S    
C18   C66   1.425628 A    
C21   C93   1.423055 A    
C111  O32   1.400682 S    
C36   H3    1.072281 S    
C21   C69   1.408386 A    
O16   Cr1   1.941269 S    
C123  O55   1.220456 D    
O12   Cr6   2.046683 S    
C116  O42   1.400042 S    
C74   C127  1.470745 S    
C27   C63   1.406041 A    
O22   C10   1.322515 A    
C26   C62   1.395589 A    
C133  O76   1.396996 S    
C33   H6    1.078359 S    
C24   C96   1.399044 A    
O9    C11   1.306901 A    
O54   H26   1.013994 S    
C113  O35   1.218172 D    
C48   C72   1.432043 A    
C38   C55   1.408632 A    
O82   H40   1.011770 S    
O18   Cr3   1.954273 S    
C32   C68   1.390745 A    
O62   H30   1.014060 S    
C44   C109  1.471441 S    
C46   C70   1.430399 A    
C39   C60   1.416079 A    
C131  O72   1.399182 S    
O34   H16   1.013363 S    
C136  O82   1.394809 S    
C80   C92   1.423072 A    
C83   C124  1.494127 S    
C123  O56   1.397691 S    
C115  O40   1.398665 S    
C44   C49   1.404451 A    
C116  O41   1.212822 D    
C90   C105  1.414590 A    
C25   C61   1.415556 A    
C75   C87   1.426323 A    
C28   C64   1.393466 A    
C35   C71   1.411695 A    
O46   H22   1.013829 S    
C79   C91   1.422609 A    
Cr6   O26   2.015461 S    
C107  C143  1.477308 S    
C18   C21   1.421596 A    
C59   C76   1.444170 A    
O58   H28   1.013011 S    
C40   C59   1.391159 A    
C144  O97   1.219290 D    
C74   C86   1.403550 A    
C28   C35   1.375752 A    
O15   Cr3   1.931695 S    
C84   C123  1.477355 S    
O23   Cr5   1.945672 S    
C126  O61   1.223804 D    
C137  O84   1.391937 S    
C95   C100  1.420507 A    
C93   C102  1.423280 A    
C9    C52   1.493643 S    
C15   C63   1.407209 A    
O64   H31   1.004191 S    
O66   H32   1.084123 S    
C124  O57   1.222801 D    
O68   H33   1.013786 S    
C49   C80   1.414256 A    
C40   C119  1.490495 S    
O22   Cr4   1.930015 S    
C135  O79   1.214230 D    
C119  O48   1.398538 S    
C127  O63   1.220188 D    
C80   C121  1.492282 S    
O42   H20   1.013240 S    
C43   C110  1.472466 S    
C43   C50   1.414849 A    
O8    C10   1.286003 A    
O14   C2    1.343941 A    
C19   C91   1.425183 A    
C129  O68   1.397397 S    
O36   H17   1.013997 S    
C124  O58   1.398294 S    
C103  C139  1.489428 S    
O8    Cr5   2.056076 S    
O5    C1    1.318270 A    
C6    C55   1.487301 S    
Cr3   O25   2.015008 S    
C99   C108  1.414948 A    
C125  O59   1.232900 D    
O88   H43   1.014371 S    
C41   C118  1.482494 S    
C119  O47   1.221444 D    
C23   C71   1.409526 A    
O20   Cr5   1.942402 S    
C130  O70   1.398159 S    
O94   H46   1.008886 S    
C128  O66   1.427201 S    
C41   C58   1.419334 A    
C141  O92   1.395259 S    
C25   H8    1.079488 S    
C23   C95   1.424430 A    
O80   H39   1.012741 S    
C47   C52   1.412522 A    
Cr4   O26   2.024749 S    
C27   H12   1.064123 S    
C7    C54   1.516821 S    
C134  O78   1.390441 S    
C113  O36   1.399238 S    
C118  O45   1.218316 D    
O60   H29   1.086858 S    
C122  O53   1.223719 D    
C56   C73   1.399625 A    
C82   C94   1.410079 A    
C45   C69   1.416903 A    
C29   H10   1.075237 S    
C76   C88   1.417475 A    
C98   C103  1.413960 A    
C30   C66   1.396372 A    
C3    C58   1.508503 S    
C37   C61   1.406809 A    
C89   C106  1.427636 A    
C44   C68   1.408317 A    
C132  O73   1.223678 D    
O21   Cr6   1.933483 S    
C75   C132  1.495104 S    
C19   C67   1.405984 A    
C16   C64   1.430805 A    
C142  O93   1.221517 D    
O10   C12   1.296548 A    
C29   C34   1.388340 A    
C17   C89   1.419367 A    
C144  O98   1.390906 S    
C81   C126  1.496107 S    
O40   H19   1.012975 S    
C125  O60   1.423909 S    
C25   C32   1.381879 A    
C57   C78   1.421932 A    
C37   C116  1.464450 S    
C26   C31   1.386624 A    
C128  O65   1.230559 D    
O24   C12   1.319065 A    
C18   C90   1.403777 A    
O84   H41   1.014433 S    
C81   C93   1.433699 A    
O92   H45   1.006459 S    
C31   H2    1.076683 S    
C138  O86   1.388710 S    
C108  C144  1.501480 S    
C141  O91   1.219714 D    
O90   H44   1.012685 S    
C4    C57   1.510420 S    
C14   C19   1.407548 A    
C142  O94   1.388308 S    
O38   H18   1.013093 S    
C32   H1    1.081770 S    
C42   C57   1.400691 A    
C102  C138  1.489618 S    
C54   C81   1.411649 A    
O3    C5    1.315757 A    
C117  O43   1.222921 D    
O6    C2    1.262043 A    
C5    C56   1.497466 S    
C15   C87   1.422639 A    
C77   C89   1.431356 A    
C13   C20   1.414446 A    
C60   C75   1.404134 A    
O14   Cr2   1.931716 S    
C22   C70   1.431695 A    
C73   C128  1.484643 S    
C127  O64   1.398160 S    
C132  O74   1.398282 S    
C17   C65   1.414594 A    
C86   C103  1.417480 A    
C48   C111  1.496032 S    
C76   C131  1.493938 S    
C84   C96   1.413069 A    
C120  O49   1.215795 D    
O11   Cr5   2.055510 S    
C34   H5    1.078540 S    
C130  O69   1.222347 D    
O32   H15   1.014029 S    
O2    C4    1.277336 A    
C12   C49   1.495623 S    
Cr1   O25   2.013419 S    
O3    Cr3   2.066767 S    
O48   H23   1.013920 S    
C39   C120  1.480762 S    
C26   H7    1.075516 S    
C40   C64   1.414328 A    
C78   C129  1.512900 S    
O44   H21   1.013993 S    
C126  O62   1.397282 S    
C115  O39   1.221764 D    
C47   C112  1.468556 S    
C42   C117  1.485871 S    
C34   C70   1.397578 A    
O28   H13   1.013740 S    
O1    C3    1.312417 A    
C52   C83   1.402987 A    
C136  O81   1.219871 D    
C143  O95   1.220057 D    
C143  O96   1.396596 S    
C101  C137  1.514365 S    
C27   C36   1.387405 A    
C37   C56   1.419018 A    
C45   C54   1.420401 A    
C109  O27   1.218397 D    
C135  O80   1.397109 S    
C122  O54   1.397592 S    
Cr2   O25   2.024826 S    
C13   C85   1.420927 A    
O4    C6    1.275169 A    
C53   C82   1.404184 A    
O86   H42   1.011929 S    
O74   H36   1.014059 S    
C15   C24   1.419877 A    
C30   C33   1.388737 A    
C139  O87   1.218750 D    
