data_mof_unit_20067.cif
_audit_creation_date              2012-12-10T17:38:14-0500
_audit_creation_method            fapswitch 2.2
_symmetry_space_group_name_H-M    P1
_symmetry_Int_Tables_number       1
_space_group_crystal_system       triclinic
_cell_length_a                    12.003891
_cell_length_b                    12.872312
_cell_length_c                    19.226155
_cell_angle_alpha                 91.066607
_cell_angle_beta                  86.942374
_cell_angle_gamma                 93.643333
_cell_volume                      2960.2134463

loop_
_atom_site_label
_atom_site_type_symbol
_atom_type_description
_atom_site_fract_x
_atom_site_fract_y
_atom_site_fract_z
_atom_type_partial_charge
C1    C     C_R   0.522586 0.700236 0.500366 0.905473
C2    C     C_R   0.477290 0.299635 0.499202 0.877322
C3    C     C_R   0.462098 0.188051 0.495559 -0.121570
C4    C     C_R   0.537710 0.811576 0.503160 -0.074659
C5    C     C_R   0.626033 0.970767 0.548082 -0.038040
C6    C     C_R   0.375401 0.028629 0.449547 -0.001622
C7    C     C_R   0.623406 0.862298 0.540215 0.025368
C8    C     C_R   0.376745 0.136545 0.457898 0.029207
C9    C     C_R   0.458209 0.866340 0.472325 -0.333577
C10   C     C_R   0.542307 0.133214 0.525889 -0.302736
C11   C     C_R   0.458644 0.973468 0.479416 0.073364
C12   C     C_R   0.542730 0.026120 0.518211 0.097490
C13   C     C_R   0.952255 0.396895 0.436699 -0.131962
C14   C     C_R   0.048014 0.604382 0.562363 -0.133893
C15   C     C_R   0.835433 0.408658 0.442362 0.243822
C16   C     C_R   0.164679 0.591876 0.557233 0.246391
C17   C     C_R   0.859159 0.545280 0.525828 -0.089654
C18   C     C_R   0.140891 0.455365 0.473795 -0.096513
C19   C     C_R   0.976504 0.538159 0.522335 -0.010841
C20   C     C_R   0.023581 0.462695 0.477125 -0.003484
C21   C     C_R   0.500375 0.497862 0.634227 0.870137
C22   C     C_R   0.499708 0.502857 0.365807 0.856947
C23   C     C_R   0.408777 0.451049 0.750345 -0.009668
C24   C     C_R   0.591111 0.559336 0.251495 -0.009492
C25   C     C_R   0.410800 0.457614 0.822577 -0.260698
C26   C     C_R   0.587910 0.561239 0.179331 -0.261731
C27   C     C_R   0.504131 0.504002 0.854484 0.074057
C28   C     C_R   0.493942 0.519188 0.146023 0.073307
C29   C     C_R   0.597081 0.544713 0.813903 0.125574
C30   C     C_R   0.401392 0.474436 0.185181 0.127746
C31   C     C_R   0.595192 0.539068 0.741705 -0.269201
C32   C     C_R   0.404571 0.471490 0.257286 -0.272774
C33   C     C_R   0.501459 0.494090 0.709706 -0.092959
C34   C     C_R   0.498987 0.512092 0.290587 -0.088589
C35   C     C_R   0.496580 0.518482 0.070296 0.302103
C36   C     C_R   0.501982 0.510317 0.930132 0.303431
H1    H     H_    0.339796 0.425088 0.854020 0.159250
H2    H     H_    0.658693 0.596670 0.149061 0.159273
H3    H     H_    0.665808 0.573249 0.710668 0.157005
H4    H     H_    0.334122 0.434614 0.287108 0.152661
H5    H     H_    0.605855 0.175795 0.554901 0.181366
H6    H     H_    0.394321 0.823601 0.443682 0.177923
H7    H     H_    0.180390 0.398831 0.440233 0.144232
H8    H     H_    0.819757 0.602314 0.559130 0.160942
N1    N     N_R   0.597119 0.504016 0.964221 -0.145954
N2    N     N_R   0.401517 0.525365 0.036199 -0.145966
N3    N     N_R   0.594514 0.508213 0.033232 -0.186141
N4    N     N_R   0.404114 0.521149 0.967168 -0.186479
N5    N     N_R   0.207800 0.519350 0.512860 -0.098434
N6    N     N_R   0.792200 0.480650 0.487140 -0.099235
O1    O     O_R   0.421690 0.658830 0.503430 -0.613426
O2    O     O_R   0.578310 0.341170 0.496570 -0.603289
O3    O     O_R   0.609320 0.646410 0.495180 -0.601512
O4    O     O_R   0.390680 0.353590 0.504820 -0.633179
O5    O     O_R   0.406160 0.506220 0.605990 -0.583371
O6    O     O_R   0.593840 0.493780 0.394010 -0.585235
O7    O     O_R   0.593780 0.493810 0.597740 -0.624487
O8    O     O_R   0.406220 0.506190 0.402260 -0.629930
Zn1   Zn    Zn3+2 0.374720 0.508290 0.505510 0.957848
Zn2   Zn    Zn3+2 0.625280 0.491710 0.494490 0.971326
C37   C     C_R   0.309054 0.400126 0.718618 0.135692
C38   C     C_R   0.205207 0.444291 0.728008 -0.147582
C39   C     C_R   0.114416 0.404722 0.690954 -0.137617
C40   C     C_R   0.126559 0.320913 0.644595 -0.130215
C41   C     C_R   0.228257 0.273758 0.637079 -0.110137
C42   C     C_R   0.319328 0.312893 0.674117 -0.105221
H9    H     H_    0.195794 0.511685 0.761885 0.127074
H10   H     H_    0.035236 0.440293 0.697091 0.125044
H11   H     H_    0.057292 0.293182 0.614193 0.124733
H12   H     H_    0.237187 0.208260 0.601526 0.120703
H13   H     H_    0.398784 0.277777 0.666270 0.101108
C43   C     C_R   0.691108 0.606966 0.284620 0.136245
C44   C     C_R   0.681837 0.692303 0.330838 -0.108370
C45   C     C_R   0.773557 0.729189 0.368122 -0.103606
C46   C     C_R   0.874846 0.681587 0.359188 -0.130715
C47   C     C_R   0.885838 0.599477 0.311317 -0.140661
C48   C     C_R   0.794409 0.562175 0.274008 -0.146869
H14   H     H_    0.602795 0.727887 0.339553 0.099951
H15   H     H_    0.765517 0.793338 0.404878 0.126082
H16   H     H_    0.944716 0.707733 0.389602 0.127396
H17   H     H_    0.964694 0.563593 0.304055 0.125763
H18   H     H_    0.803010 0.496268 0.238715 0.127444
C49   C     C_R   0.997151 0.315903 0.389013 0.108647
C50   C     C_R   0.970363 0.210378 0.402596 -0.194077
C51   C     C_R   0.006027 0.133672 0.355834 -0.108888
C52   C     C_R   0.072288 0.161362 0.296371 -0.066638
C53   C     C_R   0.101145 0.266238 0.283072 -0.150549
C54   C     C_R   0.063256 0.343525 0.328907 -0.179645
H19   H     H_    0.919956 0.187968 0.448733 0.124843
H20   H     H_    0.980783 0.053024 0.365344 0.133909
H21   H     H_    0.100484 0.101692 0.260384 0.128419
H22   H     H_    0.151576 0.287582 0.236789 0.119740
H23   H     H_    0.085413 0.424484 0.317623 0.119599
C55   C     C_R   0.003928 0.687533 0.608453 0.112466
C56   C     C_R   0.939791 0.662971 0.669834 -0.171016
C57   C     C_R   0.904473 0.742521 0.714694 -0.155403
C58   C     C_R   0.933535 0.846585 0.698947 -0.092942
C59   C     C_R   0.997560 0.871232 0.638046 -0.129605
C60   C     C_R   0.031043 0.792229 0.592440 -0.201305
H24   H     H_    0.917763 0.582669 0.683056 0.117530
H25   H     H_    0.856138 0.723588 0.762192 0.121728
H26   H     H_    0.907296 0.907964 0.734178 0.133505
H27   H     H_    0.022912 0.951278 0.626537 0.138431
H28   H     H_    0.080414 0.812199 0.545404 0.128301
N7    N     N_3   0.690767 0.596778 0.845744 -0.450490
H29   H     H_    0.763287 0.562473 0.826871 0.180534
H30   H     H_    0.695810 0.674435 0.830363 0.173059
N8    N     N_3   0.306806 0.426903 0.151751 -0.449524
H31   H     H_    0.234768 0.459357 0.173192 0.180061
H32   H     H_    0.301668 0.347552 0.162878 0.174247
N9    N     N_3   0.293971 0.192056 0.425280 -0.442071
H33   H     H_    0.243772 0.226818 0.463978 0.200926
H34   H     H_    0.333750 0.249193 0.393071 0.190288
N10   N     N_3   0.703614 0.802849 0.572219 -0.445515
H35   H     H_    0.699266 0.817979 0.625875 0.195111
H36   H     H_    0.783553 0.826827 0.552123 0.196927
C61   C     C_R   0.714120 0.024711 0.588777 0.114586
C62   C     C_R   0.692156 0.050429 0.659190 -0.171168
C63   C     C_R   0.774379 0.104424 0.696892 -0.138412
C64   C     C_R   0.878340 0.133326 0.664375 -0.123167
C65   C     C_R   0.900256 0.108182 0.594080 -0.167790
C66   C     C_R   0.818707 0.053104 0.556476 -0.161011
H37   H     H_    0.611453 0.029040 0.684564 0.129843
H38   H     H_    0.757501 0.123961 0.751264 0.132097
H39   H     H_    0.941984 0.174462 0.693887 0.130874
H40   H     H_    0.981109 0.129469 0.568999 0.117957
H41   H     H_    0.836628 0.032581 0.502336 0.113008
C67   C     C_R   0.286958 0.974869 0.408963 0.157869
C68   C     C_R   0.180621 0.951445 0.440526 -0.139180
C69   C     C_R   0.098559 0.896603 0.403192 -0.180659
C70   C     C_R   0.121626 0.866971 0.333811 -0.125736
C71   C     C_R   0.227235 0.891130 0.301950 -0.141558
C72   C     C_R   0.309989 0.944785 0.339426 -0.161435
H42   H     H_    0.161796 0.975192 0.493985 0.112154
H43   H     H_    0.016481 0.878892 0.427729 0.117492
H44   H     H_    0.057620 0.825932 0.304524 0.133320
H45   H     H_    0.245011 0.868100 0.248282 0.133847
H46   H     H_    0.391952 0.962412 0.314589 0.128068
N11   N     N_3   0.239476 0.652654 0.599775 -0.384665
H47   H     H_    0.240328 0.730651 0.585713 0.173188
H48   H     H_    0.211062 0.645783 0.651926 0.172629
N12   N     N_3   0.760629 0.348196 0.399656 -0.385927
H49   H     H_    0.788657 0.355866 0.347482 0.172299
H50   H     H_    0.760084 0.270037 0.413266 0.171368

loop_
_geom_bond_atom_site_label_1
_geom_bond_atom_site_label_2
_ccdc_geom_bond_type
C53   C54   A    
O5    Zn1   S    
C27   C29   A    
C61   C62   A    
C44   C45   A    
C69   H43   S    
C46   C47   A    
C35   N3    A    
C67   C68   A    
N10   H35   S    
C63   H38   S    
N7    H30   S    
C9    H6    S    
C43   C48   A    
C38   H9    S    
C49   C50   A    
C55   C60   A    
C7    N10   S    
C24   C26   A    
C52   H21   S    
C21   C33   S    
C59   H27   S    
C59   C60   A    
N8    H31   S    
C15   N6    A    
C66   H41   S    
C1    O3    A    
C62   C63   A    
O2    Zn2   S    
C25   H1    S    
C54   H23   S    
C69   C70   A    
C37   C42   A    
C56   C57   A    
C28   C35   S    
C31   H3    S    
C71   C72   A    
C23   C33   A    
C44   H14   S    
C31   C33   A    
C46   H16   S    
C18   C20   A    
C58   H26   S    
C23   C25   A    
C49   C54   A    
C72   H46   S    
C57   H25   S    
C10   H5    S    
C29   N7    S    
C55   C56   A    
C4    C7    A    
C10   C12   A    
O3    Zn2   S    
C58   C59   A    
O4    Zn1   S    
N1    N3    A    
C22   C34   S    
N11   H47   S    
N2    N4    A    
C45   C46   A    
C39   C40   A    
N9    H33   S    
C11   C12   A    
C50   C51   A    
C5    C12   A    
C70   H44   S    
C2    O4    A    
C8    N9    S    
C6    C11   A    
C5    C7    A    
C52   C53   A    
C26   H2    S    
O7    Zn2   S    
C22   O6    A    
C71   H45   S    
C51   C52   A    
C24   C34   A    
O6    Zn2   S    
C5    C61   S    
C32   C34   A    
C47   H17   S    
C61   C66   A    
C21   O7    A    
C38   C39   A    
C15   N12   S    
C9    C11   A    
N10   H36   S    
C42   H13   S    
C63   C64   A    
C57   C58   A    
C36   N1    A    
N9    H34   S    
C40   H11   S    
C47   C48   A    
C1    O1    A    
C65   C66   A    
C2    O2    A    
C3    C8    A    
C45   H15   S    
C13   C15   A    
C14   C16   A    
C16   N11   S    
O1    Zn1   S    
C50   H19   S    
C17   C19   A    
C70   C71   A    
C16   N5    A    
C64   C65   A    
C24   C43   S    
C21   O5    A    
C68   C69   A    
C39   H10   S    
C60   H28   S    
C13   C20   A    
C30   N8    S    
C56   H24   S    
C14   C19   A    
C43   C44   A    
C17   N6    A    
C22   O8    A    
C6    C8    A    
C51   H20   S    
C27   C36   S    
C25   C27   A    
N7    H29   S    
C13   C49   S    
C26   C28   A    
N5    Zn1   S    
C1    C4    S    
N6    Zn2   S    
C40   C41   A    
C19   C20   A    
C28   C30   A    
C2    C3    S    
O8    Zn1   S    
C17   H8    S    
C6    C67   S    
C65   H40   S    
C29   C31   A    
C3    C10   A    
C67   C72   A    
C30   C32   A    
N11   H48   S    
C48   H18   S    
C64   H39   S    
N8    H32   S    
C36   N4    A    
N12   H50   S    
C62   H37   S    
C32   H4    S    
C37   C38   A    
C68   H42   S    
C23   C37   S    
C41   C42   A    
C18   H7    S    
N12   H49   S    
C4    C9    A    
C53   H22   S    
C35   N2    A    
C14   C55   S    
C41   H12   S    
C18   N5    A    
