data_mof_unit_29967.cif
_audit_creation_date              2012-12-11T14:54:22-0500
_audit_creation_method            fapswitch 2.2
_symmetry_space_group_name_H-M    P1
_symmetry_Int_Tables_number       1
_space_group_crystal_system       triclinic
_cell_length_a                    18.998104
_cell_length_b                    10.949507
_cell_length_c                    18.924695
_cell_angle_alpha                 90.351553
_cell_angle_beta                  90.222832
_cell_angle_gamma                 90.125008
_cell_volume                      3936.59919395

loop_
_atom_site_label
_atom_site_type_symbol
_atom_type_description
_atom_site_fract_x
_atom_site_fract_y
_atom_site_fract_z
_atom_type_partial_charge
C1    C     C_R   0.730709 0.375661 0.645711 0.529731
C2    C     C_R   0.271815 0.375029 0.355682 0.602151
C3    C     C_R   0.230640 0.875512 0.645667 0.530287
C4    C     C_R   0.771413 0.875850 0.355402 0.586385
C5    C     C_3   0.545863 0.337806 0.447157 0.169864
C6    C     C_3   0.562371 0.347536 0.525905 0.122420
C7    C     C_3   0.049101 0.834799 0.447433 0.163626
C8    C     C_3   0.064437 0.845685 0.526323 0.132308
C9    C     C_R   0.687788 0.888569 0.534403 0.242927
C10   C     C_R   0.281787 0.840096 0.456503 0.225326
C11   C     C_R   0.187082 0.393890 0.533707 0.244185
C12   C     C_R   0.783763 0.340493 0.456905 0.221664
C13   C     C_R   0.693447 0.889464 0.460722 0.236478
C14   C     C_R   0.287147 0.827670 0.529686 0.200958
C15   C     C_R   0.193606 0.395716 0.460186 0.235765
C16   C     C_R   0.788951 0.329339 0.530271 0.201849
C17   C     C_R   0.759411 0.907932 0.429714 -0.025839
C18   C     C_R   0.252999 0.912808 0.575083 -0.064970
C19   C     C_R   0.260515 0.406198 0.430156 -0.023342
C20   C     C_R   0.753116 0.413136 0.575125 -0.072605
C21   C     C_R   0.818764 0.933733 0.473380 0.255241
C22   C     C_R   0.223918 0.019467 0.546832 0.240175
C23   C     C_R   0.320570 0.421363 0.474716 0.257004
C24   C     C_R   0.722189 0.517549 0.546273 0.235555
C25   C     C_R   0.814592 0.921462 0.545580 0.246754
C26   C     C_R   0.218481 0.030846 0.474361 0.217978
C27   C     C_R   0.314567 0.411918 0.547029 0.271024
C28   C     C_R   0.715627 0.526650 0.473830 0.217671
C29   C     C_R   0.748322 0.912527 0.577165 -0.071119
C30   C     C_R   0.249736 0.943341 0.428580 -0.007478
C31   C     C_R   0.247609 0.412196 0.577289 -0.061900
C32   C     C_R   0.749182 0.441094 0.428327 -0.023567
C33   C     C_R   0.542269 0.068632 0.973808 0.240791
C34   C     C_R   0.532120 0.076519 0.046525 0.205477
C35   C     C_R   0.042270 0.568631 0.973809 0.240814
C36   C     C_R   0.032121 0.576519 0.046526 0.205405
C37   C     C_R   0.492052 0.171506 0.074137 -0.017935
C38   C     C_R   0.513770 0.159342 0.928644 0.026358
C39   C     C_R   0.992054 0.671506 0.074138 -0.018580
C40   C     C_R   0.013771 0.659342 0.928645 0.026529
C41   C     C_R   0.464694 0.263935 0.029165 0.194752
C42   C     C_R   0.472924 0.254978 0.956400 0.250065
C43   C     C_R   0.964697 0.763936 0.029166 0.194484
C44   C     C_R   0.972926 0.754979 0.956401 0.250200
C45   C     C_R   0.530924 0.155161 0.647199 0.521776
C46   C     C_R   0.438842 0.150717 0.361099 0.595090
C47   C     C_R   0.030832 0.655230 0.647358 0.522479
C48   C     C_R   0.939607 0.650773 0.361208 0.578881
C49   C     C_R   0.784372 0.031085 0.975298 0.284854
C50   C     C_R   0.186362 0.905341 0.046850 0.227534
C51   C     C_R   0.284369 0.531088 0.975299 0.284824
C52   C     C_R   0.686361 0.405341 0.046850 0.227525
C53   C     C_R   0.779101 0.020082 0.048467 0.221572
C54   C     C_R   0.177452 0.900483 0.973502 0.207082
C55   C     C_R   0.279098 0.520085 0.048468 0.221702
C56   C     C_R   0.677451 0.400482 0.973502 0.207158
C57   C     C_R   0.747458 0.915601 0.076833 -0.008760
C58   C     C_R   0.237477 0.899491 0.928938 0.023698
C59   C     C_R   0.247457 0.415603 0.076834 -0.008125
C60   C     C_R   0.737477 0.399489 0.928938 0.023661
C61   C     C_R   0.710620 0.832782 0.031862 0.233901
C62   C     C_R   0.305211 0.908880 0.957260 0.227032
C63   C     C_R   0.210620 0.332782 0.031863 0.233822
C64   C     C_R   0.805211 0.408876 0.957261 0.227048
C65   C     C_R   0.715866 0.842779 0.958866 0.219884
C66   C     C_R   0.313751 0.916047 0.029891 0.196983
C67   C     C_R   0.215867 0.342779 0.958866 0.219793
C68   C     C_R   0.813750 0.416043 0.029891 0.197028
C69   C     C_R   0.750451 0.944407 0.930283 0.013029
C70   C     C_R   0.253596 0.922256 0.074314 0.022519
C71   C     C_R   0.250451 0.444408 0.930283 0.013013
C72   C     C_R   0.753596 0.422256 0.074314 0.022498
C73   C     C_R   0.740847 0.966865 0.647706 0.531650
C74   C     C_R   0.258969 0.974288 0.354242 0.614598
C75   C     C_R   0.240642 0.467174 0.647624 0.530089
C76   C     C_R   0.758739 0.473322 0.354040 0.603873
C77   C     C_R   0.727319 0.374126 0.854329 0.608063
C78   C     C_R   0.269474 0.377455 0.147450 0.581300
C79   C     C_R   0.227319 0.874127 0.854328 0.608034
C80   C     C_R   0.769475 0.877454 0.147449 0.581704
C81   C     C_R   0.534519 0.155980 0.854623 0.571586
C82   C     C_R   0.466021 0.158095 0.145858 0.634785
C83   C     C_R   0.034520 0.655980 0.854623 0.571289
C84   C     C_R   0.966022 0.658095 0.145859 0.636537
C85   C     C_R   0.740968 0.975784 0.855941 0.549485
C86   C     C_R   0.259798 0.971301 0.145436 0.619090
C87   C     C_R   0.240968 0.475784 0.855941 0.549485
C88   C     C_R   0.759799 0.471302 0.145435 0.618309
C89   C     C_R   0.457146 0.154585 0.436129 0.010073
C90   C     C_R   0.490539 0.164942 0.581637 -0.058598
C91   C     C_R   0.958697 0.654313 0.436085 0.000391
C92   C     C_R   0.990726 0.665343 0.581788 -0.051599
C93   C     C_R   0.484010 0.260213 0.466983 0.034449
C94   C     C_R   0.499966 0.266267 0.538007 0.022059
C95   C     C_R   0.986225 0.759432 0.466904 -0.075210
C96   C     C_R   0.001121 0.766250 0.538078 0.006258
C97   C     C_R   0.453465 0.062749 0.553799 0.228488
C98   C     C_R   0.442027 0.054043 0.480013 0.250222
C99   C     C_R   0.953696 0.563315 0.553854 0.230339
C100  C     C_R   0.943063 0.554167 0.480020 0.261808
Cr1   Cr    Cr6+3 0.771950 0.169480 0.750100 1.171602
Cr2   Cr    Cr6+3 0.228050 0.169480 0.249900 1.165505
Cr3   Cr    Cr6+3 0.271950 0.669480 0.750100 1.172517
Cr4   Cr    Cr6+3 0.728050 0.669480 0.249900 1.162286
Cr5   Cr    Cr6+3 0.614930 0.323340 0.749170 1.092007
Cr6   Cr    Cr6+3 0.385070 0.323340 0.250830 1.101140
Cr7   Cr    Cr6+3 0.114930 0.823340 0.749170 1.090474
Cr8   Cr    Cr6+3 0.885070 0.823340 0.250830 1.095940
Cr9   Cr    Cr6+3 0.616590 0.010620 0.750610 1.157756
Cr10  Cr    Cr6+3 0.383410 0.010620 0.249390 1.148553
Cr11  Cr    Cr6+3 0.116590 0.510620 0.750610 1.158200
Cr12  Cr    Cr6+3 0.883410 0.510620 0.249390 1.152074
H1    H     H_    0.035195 0.922223 0.421355 0.214863
H2    H     H_    0.115193 0.805321 0.543931 0.116316
H3    H     H_    0.530517 0.425208 0.421871 0.226022
H4    H     H_    0.613719 0.308093 0.542497 0.110988
O1    O     O_R   0.787510 0.042610 0.670410 -0.449827
O2    O     O_R   0.212490 0.042610 0.329590 -0.496864
O3    O     O_R   0.287510 0.542610 0.670410 -0.448121
O4    O     O_R   0.712490 0.542610 0.329590 -0.494874
O5    O     O_R   0.556450 0.252890 0.823790 -0.479920
O6    O     O_R   0.443550 0.252890 0.176210 -0.503436
O7    O     O_R   0.056450 0.752890 0.823790 -0.480246
O8    O     O_R   0.943550 0.752890 0.176210 -0.500610
O9    O     O_R   0.545750 0.051070 0.830560 -0.423048
O10   O     O_R   0.454250 0.051070 0.169440 -0.445461
O11   O     O_R   0.045750 0.551070 0.830560 -0.423222
O12   O     O_R   0.954250 0.551070 0.169440 -0.444343
O13   O     O_R   0.681210 0.959150 0.825320 -0.473344
O14   O     O_R   0.318790 0.959150 0.174680 -0.516525
O15   O     O_R   0.181210 0.459150 0.825320 -0.473456
O16   O     O_R   0.818790 0.459150 0.174680 -0.516511
O17   O     O_3   0.667820 0.167810 0.749960 -0.312995
O18   O     O_3   0.332180 0.167810 0.250040 -0.345381
O19   O     O_3   0.167820 0.667810 0.749960 -0.312803
O20   O     O_3   0.832180 0.667810 0.250040 -0.344079
O21   O     O_R   0.765670 0.292090 0.675090 -0.444559
O22   O     O_R   0.234330 0.292090 0.324910 -0.444994
O23   O     O_R   0.265670 0.792090 0.675090 -0.442120
O24   O     O_R   0.734330 0.792090 0.324910 -0.447809
O25   O     O_R   0.670220 0.409020 0.668560 -0.517598
O26   O     O_R   0.329780 0.409020 0.331440 -0.501815
O27   O     O_R   0.170220 0.909020 0.668560 -0.518925
O28   O     O_R   0.829780 0.909020 0.331440 -0.499596
O29   O     O_R   0.556580 0.251590 0.674980 -0.528864
O30   O     O_R   0.443420 0.251590 0.325020 -0.483312
O31   O     O_R   0.056580 0.751590 0.674980 -0.530998
O32   O     O_R   0.943420 0.751590 0.325020 -0.514025
O33   O     O_R   0.545890 0.049670 0.670030 -0.442788
O34   O     O_R   0.454110 0.049670 0.329970 -0.408775
O35   O     O_R   0.045890 0.549670 0.670030 -0.440846
O36   O     O_R   0.954110 0.549670 0.329970 -0.394548
O37   O     O_R   0.681340 0.957860 0.676500 -0.464710
O38   O     O_R   0.318660 0.957860 0.323500 -0.450923
O39   O     O_R   0.181340 0.457860 0.676500 -0.464900
O40   O     O_R   0.818660 0.457860 0.323500 -0.453646
O41   O     O_R   0.787380 0.044010 0.830940 -0.442891
O42   O     O_R   0.212620 0.044010 0.169060 -0.406232
O43   O     O_R   0.287380 0.544010 0.830940 -0.442618
O44   O     O_R   0.712620 0.544010 0.169060 -0.406308
O45   O     O_R   0.765540 0.293390 0.823910 -0.445494
O46   O     O_R   0.234460 0.293390 0.176090 -0.450548
O47   O     O_R   0.265540 0.793390 0.823910 -0.445573
O48   O     O_R   0.734460 0.793390 0.176090 -0.450139
O49   O     O_R   0.670090 0.410410 0.829090 -0.446759
O50   O     O_R   0.329910 0.410410 0.170910 -0.472526
O51   O     O_R   0.170090 0.910410 0.829090 -0.446748
O52   O     O_R   0.829910 0.910410 0.170910 -0.469615
O53   O     O_3   0.431271 0.967938 0.596070 -0.622238
H5    H     H_    0.423146 0.000468 0.644335 0.337320
O54   O     O_3   0.419500 0.946504 0.449165 -0.621730
H6    H     H_    0.429488 0.878089 0.481619 0.428286
O55   O     O_3   0.930947 0.468905 0.596114 -0.623607
H7    H     H_    0.922757 0.501617 0.644328 0.335948
O56   O     O_3   0.920982 0.446411 0.449210 -0.616724
H8    H     H_    0.931875 0.378177 0.481502 0.431701
O57   O     O_3   0.820139 0.129067 0.946619 -0.616811
H9    H     H_    0.852952 0.164450 0.982031 0.393848
O58   O     O_3   0.130498 0.896124 0.093059 -0.649667
H10   H     H_    0.093025 0.847160 0.070300 0.317794
O59   O     O_3   0.320135 0.629072 0.946619 -0.616811
H11   H     H_    0.352947 0.664457 0.982032 0.393796
O60   O     O_3   0.630498 0.396126 0.093058 -0.650438
H12   H     H_    0.593027 0.347156 0.070301 0.317691
O61   O     O_3   0.805330 0.113033 0.090927 -0.700520
H13   H     H_    0.780213 0.112090 0.136743 0.345079
O62   O     O_3   0.110683 0.898166 0.944501 -0.653562
H14   H     H_    0.079452 0.949735 0.974012 0.375975
O63   O     O_3   0.305327 0.613036 0.090928 -0.701051
H15   H     H_    0.280211 0.612091 0.136745 0.345142
O64   O     O_3   0.610682 0.398165 0.944501 -0.653611
H16   H     H_    0.579451 0.449730 0.974013 0.375965
Cl1   Cl    Cl    0.654637 0.716238 0.063285 -0.494234
Cl2   Cl    Cl    0.380626 0.914526 0.902779 -0.517579
Cl3   Cl    Cl    0.154638 0.216237 0.063285 -0.493791
Cl4   Cl    Cl    0.880626 0.414517 0.902780 -0.517608
O65   O     O_3   0.685186 0.752978 0.917173 -0.610981
H17   H     H_    0.708731 0.751270 0.870582 0.325292
O66   O     O_3   0.381448 0.920804 0.055773 -0.642835
H18   H     H_    0.385803 0.852938 0.089948 0.363159
O67   O     O_3   0.185188 0.252976 0.917173 -0.611029
H19   H     H_    0.208734 0.251270 0.870582 0.325289
O68   O     O_3   0.881448 0.420799 0.055774 -0.642920
H20   H     H_    0.885802 0.352934 0.089949 0.363386
O69   O     O_3   0.597405 0.274018 0.408403 -0.694405
H21   H     H_    0.608385 0.196566 0.433197 0.340150
O70   O     O_3   0.550456 0.466322 0.551133 -0.576009
H22   H     H_    0.552270 0.461677 0.603384 0.384512
O71   O     O_3   0.100583 0.768625 0.409953 -0.677331
H23   H     H_    0.110517 0.691539 0.435551 0.348496
O72   O     O_3   0.053212 0.965306 0.550543 -0.583367
H24   H     H_    0.053121 0.961458 0.602845 0.384175
Cl5   Cl    Cl    0.604224 0.853086 0.570240 -0.361775
Cl6   Cl    Cl    0.314144 0.725437 0.399269 -0.531195
Cl7   Cl    Cl    0.102742 0.361258 0.568365 -0.366246
Cl8   Cl    Cl    0.819955 0.227602 0.400563 -0.427932
Cl9   Cl    Cl    0.616514 0.878449 0.407621 -0.440118
Cl10  Cl    Cl    0.342041 0.710361 0.561616 -0.414446
Cl11  Cl    Cl    0.117231 0.390571 0.406061 -0.443130
Cl12  Cl    Cl    0.845849 0.215927 0.563424 -0.365332
O73   O     O_3   0.880188 0.982289 0.447515 -0.518267
H25   H     H_    0.905156 0.915223 0.423873 0.328738
O74   O     O_3   0.197357 0.112386 0.588548 -0.588331
H26   H     H_    0.221193 0.110312 0.635208 0.317746
O75   O     O_3   0.387039 0.442675 0.449228 -0.623070
H27   H     H_    0.385090 0.519051 0.421794 0.400540
O76   O     O_3   0.694307 0.609827 0.587539 -0.583200
H28   H     H_    0.718995 0.610631 0.633789 0.317947
O77   O     O_3   0.876327 0.928657 0.584229 -0.581016
H29   H     H_    0.869420 0.884267 0.629206 0.310187
O78   O     O_3   0.183158 0.130834 0.449364 -0.596519
H30   H     H_    0.139054 0.098663 0.427974 0.382817
O79   O     O_3   0.375529 0.413316 0.587076 -0.581946
H31   H     H_    0.365754 0.373163 0.632838 0.308045
O80   O     O_3   0.676813 0.622679 0.448750 -0.582148
H32   H     H_    0.634991 0.585853 0.425328 0.378194
O81   O     O_3   0.583231 0.976425 0.946081 -0.632569
H33   H     H_    0.575333 0.901037 0.973360 0.380037
O82   O     O_3   0.564124 0.995384 0.091789 -0.656144
H34   H     H_    0.543829 0.913828 0.081216 0.368817
O83   O     O_3   0.083230 0.476422 0.946081 -0.632559
H35   H     H_    0.075334 0.401036 0.973362 0.380018
O84   O     O_3   0.064125 0.495383 0.091790 -0.655422
H36   H     H_    0.043829 0.413827 0.081217 0.368909
O85   O     O_3   0.427341 0.362206 0.054483 -0.617089
H37   H     H_    0.458228 0.403937 0.089423 0.356980
O86   O     O_3   0.441058 0.342417 0.914770 -0.609429
H38   H     H_    0.436433 0.311008 0.865828 0.321636
O87   O     O_3   0.927346 0.862209 0.054484 -0.617061
H39   H     H_    0.958233 0.903938 0.089425 0.357399
O88   O     O_3   0.941062 0.842420 0.914772 -0.609494
H40   H     H_    0.936435 0.811011 0.865830 0.321386

loop_
_geom_bond_atom_site_label_1
_geom_bond_atom_site_label_2
_ccdc_geom_bond_type
C84   O12   A    
O54   H6    S    
C58   C62   A    
C93   C94   A    
C55   C59   A    
C34   C37   A    
C4    O28   A    
C41   C42   A    
C14   C18   A    
Cr9   O33   S    
C95   C96   A    
C8    C96   S    
C52   O60   S    
Cr7   O7    S    
O60   H12   S    
Cr11  O19   S    
Cr2   O42   S    
C97   C98   A    
C88   O16   A    
C69   C85   S    
C7    C8    S    
C50   O58   S    
C46   C89   S    
C66   C70   A    
O55   H7    S    
C5    H3    S    
C15   C19   A    
C25   O77   S    
O87   H39   S    
C76   O4    A    
C21   O73   S    
C37   C41   A    
Cr10  O38   S    
C64   C68   A    
Cr4   O4    S    
Cr4   O44   S    
C39   C84   S    
C38   C42   A    
Cr5   O25   S    
C5    C6    S    
C30   C74   S    
C49   C53   A    
C62   Cl2   S    
C29   C73   S    
C77   O49   A    
O84   H36   S    
O59   H11   S    
C92   C96   A    
C97   O53   S    
C74   O38   A    
C3    C18   S    
O83   H35   S    
Cr2   O22   S    
C87   O15   A    
C49   O57   S    
C9    C13   A    
C82   O10   A    
Cr7   O19   S    
C85   O13   A    
C11   C15   A    
C80   O48   A    
O82   H34   S    
C63   Cl3   S    
C87   O43   A    
C6    C94   S    
C48   C91   S    
O80   H32   S    
Cr12  O36   S    
Cr6   O26   S    
C48   O32   A    
C23   C27   A    
C91   C100  A    
C24   O76   S    
Cr9   O37   S    
O79   H31   S    
C90   C97   A    
C45   O33   A    
C66   O66   S    
Cr2   O2    S    
C8    H2    S    
C41   O85   S    
C11   Cl7   S    
Cr8   O52   S    
C56   O64   S    
C11   C31   A    
O66   H18   S    
C49   C69   A    
O81   H33   S    
C12   C32   A    
C68   O68   S    
C77   O45   A    
C67   O67   S    
C40   C83   S    
O63   H15   S    
C85   O41   A    
Cr8   O8    S    
C47   C92   S    
C7    O71   S    
C59   C78   S    
C83   O7    A    
C23   O75   S    
C90   C94   A    
C16   Cl12  S    
C63   C67   A    
C55   O63   S    
C25   C29   A    
C74   O2    A    
O71   H23   S    
Cr7   O51   S    
C42   O86   S    
C78   O50   A    
C73   O1    A    
Cr12  O20   S    
C27   C31   A    
O64   H16   S    
C2    O22   A    
O53   H5    S    
C12   C16   A    
O75   H27   S    
C28   C32   A    
C3    O27   A    
O74   H26   S    
O88   H40   S    
C10   C14   A    
C83   O11   A    
C60   C77   S    
C62   C66   A    
C10   Cl6   S    
C39   C43   A    
C75   O3    A    
C9    Cl5   S    
O69   H21   S    
Cr9   O17   S    
C76   O40   A    
C17   C21   A    
O70   H22   S    
C81   O5    A    
C68   C72   A    
C35   C36   A    
C4    C17   S    
C19   C23   A    
C43   C44   A    
Cr2   O18   S    
O72   H24   S    
Cr4   O48   S    
O77   H29   S    
C52   C72   A    
Cr3   O23   S    
C4    O24   A    
O73   H25   S    
Cr7   O31   S    
C82   O6    A    
C10   C30   A    
C44   O88   S    
C31   C75   S    
O76   H28   S    
C99   O55   S    
Cr6   O18   S    
C16   C20   A    
Cr5   O29   S    
Cr6   O6    S    
C100  O56   S    
C33   C34   A    
Cr5   O5    S    
C50   C54   A    
Cr12  O16   S    
C57   C61   A    
C45   C90   S    
C86   O42   A    
C6    H4    S    
C6    O70   S    
C72   C88   S    
C47   O35   A    
Cr3   O3    S    
C58   C79   S    
Cr10  O10   S    
C33   O81   S    
C65   O65   S    
C98   O54   S    
Cr9   O9    S    
C46   O34   A    
C57   C80   S    
C34   O82   S    
Cr1   O17   S    
C54   O62   S    
C48   O36   A    
C38   C81   S    
C71   C87   S    
C2    O26   A    
C45   O29   A    
C37   C82   S    
Cr10  O18   S    
C3    O23   A    
C12   Cl8   S    
C15   Cl11  S    
C8    O72   S    
C61   Cl1   S    
Cr8   O28   S    
C1    O21   A    
Cr2   O46   S    
C78   O46   A    
Cr5   O17   S    
C54   C58   A    
Cr11  O15   S    
C21   C25   A    
C1    C20   S    
C53   C57   A    
Cr4   O20   S    
C81   O9    A    
C2    C19   S    
C18   C22   A    
C36   O84   S    
C59   C63   A    
C36   C39   A    
C86   O14   A    
C24   C28   A    
C79   O47   A    
Cr10  O34   S    
C35   O83   S    
Cr11  O35   S    
C32   C76   S    
C5    C93   S    
O86   H38   S    
C51   C71   A    
C75   O39   A    
Cr8   O20   S    
C9    C29   A    
C26   O78   S    
C84   O8    A    
C7    C95   S    
C22   O74   S    
C22   C26   A    
Cr3   O47   S    
C33   C38   A    
Cr6   O30   S    
O67   H19   S    
C13   C17   A    
C89   C98   A    
C60   C64   A    
C79   O51   A    
C7    H1    S    
Cr1   O21   S    
C35   C40   A    
C50   C70   A    
Cr1   O1    S    
O62   H14   S    
C47   O31   A    
C99   C100  A    
C51   O59   S    
Cr11  O11   S    
Cr3   O43   S    
O61   H13   S    
C46   O30   A    
Cr11  O39   S    
Cr6   O50   S    
C65   C69   A    
C64   Cl4   S    
Cr1   O45   S    
Cr5   O49   S    
Cr10  O14   S    
O56   H8    S    
C67   C71   A    
C88   O44   A    
C61   C65   A    
C89   C93   A    
O65   H17   S    
C20   C24   A    
Cr3   O19   S    
Cr12  O12   S    
C1    O25   A    
C27   O79   S    
C28   O80   S    
C5    O69   S    
O58   H10   S    
C56   C60   A    
C40   C44   A    
C43   O87   S    
C91   C95   A    
O57   H9    S    
Cr12  O40   S    
C73   O37   A    
O78   H30   S    
C51   C55   A    
C53   O61   S    
C14   Cl10  S    
O68   H20   S    
C13   Cl9   S    
O85   H37   S    
Cr9   O13   S    
Cr7   O27   S    
C80   O52   A    
Cr1   O41   S    
C52   C56   A    
C92   C99   A    
Cr4   O24   S    
Cr8   O32   S    
C26   C30   A    
C70   C86   S    
