data_mof_unit_66556.cif
_audit_creation_date              2012-10-26T18:48:17-0400
_audit_creation_method            fapswitch 2.2
_symmetry_space_group_name_H-M    P1
_symmetry_Int_Tables_number       1
_space_group_crystal_system       triclinic
_cell_length_a                    10.610317
_cell_length_b                    8.670635
_cell_length_c                    7.460673
_cell_angle_alpha                 102.910473
_cell_angle_beta                  94.750513
_cell_angle_gamma                 92.528615
_cell_volume                      665.332100781

loop_
_atom_site_label
_atom_site_type_symbol
_atom_type_description
_atom_site_fract_x
_atom_site_fract_y
_atom_site_fract_z
_atom_type_partial_charge
C1    C     C_R   0.496445 0.199740 0.453239 0.554637
C2    C     C_3   0.123133 0.500867 0.501864 0.001972
C3    C     C_3   0.968325 0.516986 0.674523 -0.109439
C4    C     C_3   0.031270 0.486917 0.325251 -0.154006
C5    C     C_2   0.494773 0.031767 0.426853 -0.152899
C6    C     C_2   0.509687 0.968326 0.572680 -0.164961
C7    C     C_3   0.972999 0.122421 0.207742 -0.005162
C8    C     C_3   0.902864 0.972036 0.090624 -0.361425
C9    C     C_3   0.151151 0.883487 0.626681 -0.003026
C10   C     C_3   0.224335 0.023500 0.759763 -0.371512
C11   C     C_R   0.505204 0.800294 0.546658 0.538023
C12   C     C_R   0.259602 0.500066 0.501188 0.550440
C13   C     C_R   0.740396 0.500538 0.498947 0.582830
C14   C     C_3   0.040789 0.378663 0.569550 -0.163466
C15   C     C_3   0.958117 0.624864 0.431377 -0.172947
C16   C     C_3   0.948760 0.366849 0.395521 0.270197
C17   C     C_3   0.051466 0.636614 0.604478 0.267387
C18   C     C_3   0.876911 0.502027 0.498746 0.031720
Cu1   Cu    Cu3+1 0.514140 0.517380 0.684380 0.965707
Cu2   Cu    Cu3+1 0.485860 0.482620 0.315620 0.963387
H1    H     H_    0.076154 0.278507 0.625100 0.095928
H2    H     H_    0.030603 0.176640 0.117042 0.127993
H3    H     H_    0.842126 0.000460 0.975250 0.169676
H4    H     H_    0.972020 0.886583 0.032433 0.143988
H5    H     H_    0.842460 0.916346 0.176523 0.145909
H6    H     H_    0.069189 0.929370 0.556565 0.121357
H7    H     H_    0.214983 0.828433 0.522539 0.139986
H8    H     H_    0.305207 0.981780 0.836471 0.173199
H9    H     H_    0.261146 0.108312 0.681970 0.091430
H10   H     H_    0.161222 0.085492 0.859965 0.137651
H11   H     H_    0.920415 0.723891 0.375772 0.094756
H12   H     H_    0.940790 0.532442 0.817574 0.130349
H13   H     H_    0.058961 0.473168 0.182493 0.123302
H14   H     H_    0.399735 0.378584 0.948510 0.233100
H15   H     H_    0.600283 0.621382 0.051483 0.235899
H16   H     H_    0.480541 0.959981 0.286325 0.135435
H17   H     H_    0.524149 0.040172 0.713152 0.134809
H18   H     H_    0.036924 0.088844 0.316756 0.111898
N1    N     N_2   0.464560 0.456420 0.038510 -0.253005
N2    N     N_2   0.535440 0.543580 0.961490 -0.251670
O1    O     O_R   0.509190 0.286130 0.619780 -0.508810
O2    O     O_3   0.108810 0.774654 0.727052 -0.556654
O3    O     O_R   0.490810 0.713870 0.380220 -0.510655
O4    O     O_R   0.485310 0.256770 0.308360 -0.494227
O5    O     O_R   0.514690 0.743230 0.691640 -0.498542
O6    O     O_R   0.328790 0.514640 0.655680 -0.486578
O7    O     O_R   0.671210 0.485360 0.344320 -0.482100
O8    O     O_R   0.304910 0.485280 0.344260 -0.520637
O9    O     O_R   0.695090 0.514720 0.655740 -0.512727
O10   O     O_3   0.884164 0.227225 0.286528 -0.538519

loop_
_geom_bond_atom_site_label_1
_geom_bond_atom_site_label_2
_ccdc_geom_bond_type
C4    C16   S    
C15   C18   S    
C2    C4    S    
Cu1   O5    S    
C15   H11   S    
C7    H2    S    
C9    C10   S    
Cu1   O9    S    
C1    O4    A    
Cu1   Cu2   S    
C12   O8    A    
C2    C12   S    
C8    H3    S    
C4    C15   S    
H15   N2    S    
C6    H17   S    
C7    C8    S    
C2    C17   S    
C11   O3    A    
C8    H5    S    
C10   H9    S    
C9    O2    S    
Cu2   O8    S    
C3    C14   S    
C13   C18   S    
C1    C5    S    
C15   C17   S    
C14   H1    S    
C1    O1    A    
C8    H4    S    
C7    H18   S    
C16   O10   S    
C9    H6    S    
C3    C17   S    
C14   C16   S    
C5    C6    D    
C2    C14   S    
C13   O9    A    
Cu1   O6    S    
Cu2   O7    S    
C11   O5    A    
Cu1   N2    S    
H14   N1    S    
C5    H16   S    
C6    C11   S    
Cu2   O3    S    
C9    H7    S    
C3    C18   S    
C16   C18   S    
C10   H8    S    
N1    N2    D    
C13   O7    A    
Cu2   N1    S    
C10   H10   S    
C4    H13   S    
C3    H12   S    
Cu2   O4    S    
C17   O2    S    
Cu1   O1    S    
C7    O10   S    
C12   O6    A    
