data_mof_unit_16396.cif
_audit_creation_date              2012-10-26T20:17:40-0400
_audit_creation_method            fapswitch 2.2
_symmetry_space_group_name_H-M    P1
_symmetry_Int_Tables_number       1
_space_group_crystal_system       triclinic
_cell_length_a                    27.850766
_cell_length_b                    8.665648
_cell_length_c                    7.474046
_cell_angle_alpha                 103.404663
_cell_angle_beta                  94.663448
_cell_angle_gamma                 93.276817
_cell_volume                      1743.49009405

loop_
_atom_site_label
_atom_site_type_symbol
_atom_type_description
_atom_site_fract_x
_atom_site_fract_y
_atom_site_fract_z
_atom_type_partial_charge
C1    C     C_R   0.498425 0.199532 0.452815 0.543070
C2    C     C_R   0.868515 0.357059 0.442191 0.025753
C3    C     C_R   0.354510 0.501809 0.505156 0.033685
C4    C     C_R   0.645503 0.496927 0.494773 0.033475
C5    C     C_R   0.970101 0.350913 0.438159 0.022894
C6    C     C_R   0.029722 0.640471 0.555600 0.021893
C7    C     C_R   0.979054 0.641123 0.567568 -0.002088
C8    C     C_R   0.021232 0.348655 0.439885 -0.003461
C9    C     C_R   0.949354 0.497160 0.504805 0.028409
C10   C     C_R   0.050709 0.493616 0.495847 0.027568
C11   C     C_R   0.938660 0.211541 0.370706 -0.157132
C12   C     C_R   0.501567 0.800467 0.547187 0.543388
C13   C     C_R   0.060319 0.782755 0.599584 -0.156594
C14   C     C_R   0.889074 0.214908 0.373454 -0.114107
C15   C     C_R   0.109860 0.780409 0.595136 -0.107425
C16   C     C_R   0.407522 0.501102 0.502065 0.557373
C17   C     C_R   0.592487 0.498711 0.497910 0.557737
C18   C     C_R   0.043947 0.205574 0.386498 -0.135305
C19   C     C_R   0.957070 0.781518 0.643063 -0.146229
C20   C     C_2   0.497499 0.031135 0.426701 -0.147885
C21   C     C_2   0.502481 0.968864 0.573306 -0.147974
C22   C     C_R   0.174519 0.352040 0.441376 0.413208
C23   C     C_R   0.101708 0.492237 0.492100 -0.055536
C24   C     C_R   0.826157 0.639801 0.573193 0.421033
C25   C     C_R   0.181150 0.635055 0.541286 0.400147
C26   C     C_R   0.818379 0.359713 0.444868 0.400972
C27   C     C_R   0.281942 0.542341 0.665727 -0.034951
C28   C     C_R   0.718137 0.458853 0.334166 -0.034362
C29   C     C_R   0.332493 0.547101 0.672276 0.077225
C30   C     C_R   0.667596 0.455196 0.327399 0.077744
C31   C     C_R   0.325136 0.455467 0.336337 -0.170162
C32   C     C_R   0.674811 0.538090 0.663965 -0.170542
C33   C     C_R   0.275084 0.452757 0.332296 -0.066596
C34   C     C_R   0.898349 0.499266 0.508244 -0.057108
C35   C     C_R   0.724834 0.538810 0.668231 -0.065356
C36   C     C_R   0.253370 0.495834 0.496719 0.219074
C37   C     C_R   0.746667 0.499735 0.503589 0.215949
C38   C     C_R   0.123538 0.347312 0.436844 0.048193
C39   C     C_R   0.877053 0.642940 0.577143 0.057536
C40   C     C_R   0.093978 0.203228 0.381656 0.098259
C41   C     C_R   0.907170 0.784008 0.647687 0.097316
C42   C     C_R   0.131007 0.636707 0.543649 0.024265
Cu1   Cu    Cu3+1 0.505380 0.517380 0.684380 1.008585
Cu2   Cu    Cu3+1 0.494620 0.482620 0.315620 1.008374
H1    H     H_    0.340810 0.420295 0.206426 0.135435
H2    H     H_    0.047256 0.899450 0.634609 0.109249
H3    H     H_    0.023782 0.091509 0.347784 0.099488
H4    H     H_    0.977660 0.892806 0.704508 0.103843
H5    H     H_    0.492632 0.958223 0.286016 0.128290
H6    H     H_    0.507343 0.041778 0.713994 0.128295
H7    H     H_    0.418947 0.373180 0.967212 0.240651
H8    H     H_    0.459487 0.235908 0.942073 0.208747
H9    H     H_    0.580958 0.627957 0.032488 0.241372
H10   H     H_    0.540187 0.764392 0.058282 0.208989
H11   H     H_    0.089023 0.957853 0.306686 0.215084
H12   H     H_    0.659109 0.570437 0.794116 0.135623
H13   H     H_    0.122966 0.049581 0.181580 0.253567
H14   H     H_    0.898306 0.015331 0.654511 0.234118
H15   H     H_    0.903019 0.971323 0.863916 0.225732
H16   H     H_    0.660978 0.395863 0.043354 0.217464
H17   H     H_    0.622867 0.292666 0.142975 0.244204
H18   H     H_    0.339326 0.612974 0.956197 0.219086
H19   H     H_    0.376991 0.713902 0.852188 0.242978
H20   H     H_    0.253078 0.417407 0.201061 0.139173
H21   H     H_    0.746721 0.569666 0.799878 0.142886
H22   H     H_    0.735552 0.428214 0.207564 0.129686
H23   H     H_    0.264546 0.576186 0.792016 0.126895
H24   H     H_    0.866791 0.104479 0.320179 0.179159
H25   H     H_    0.131596 0.892967 0.631832 0.192934
H26   H     H_    0.950737 0.096833 0.311348 0.105245
N1    N     N_R   0.201786 0.494247 0.492338 -0.409392
N2    N     N_3   0.361160 0.600421 0.847084 -0.605171
N3    N     N_R   0.798270 0.499724 0.508014 -0.411150
N4    N     N_2   0.486510 0.456430 0.038510 -0.021436
N5    N     N_2   0.513490 0.543570 0.961490 -0.021538
N6    N     N_3   0.452715 0.348096 0.921373 -0.432385
N7    N     N_3   0.547181 0.652271 0.078662 -0.431743
N8    N     N_3   0.114357 0.053880 0.316155 -0.551788
N9    N     N_3   0.887750 0.931498 0.727140 -0.540006
N10   N     N_3   0.639026 0.406467 0.151955 -0.605677
O1    O     O_R   0.503500 0.286120 0.619780 -0.480372
O2    O     O_2   0.804403 0.775223 0.631060 -0.429547
O3    O     O_2   0.789814 0.223062 0.385463 -0.475929
O4    O     O_2   0.209223 0.773333 0.587226 -0.471720
O5    O     O_R   0.496500 0.713880 0.380220 -0.480094
O6    O     O_R   0.494410 0.256780 0.308360 -0.519367
O7    O     O_R   0.505590 0.743220 0.691640 -0.519072
O8    O     O_R   0.434810 0.514700 0.655690 -0.449108
O9    O     O_R   0.565190 0.485300 0.344310 -0.449566
O10   O     O_R   0.425720 0.485350 0.344280 -0.526709
O11   O     O_R   0.574280 0.514650 0.655720 -0.526687
O12   O     O_2   0.197029 0.216382 0.398720 -0.440053

loop_
_geom_bond_atom_site_label_1
_geom_bond_atom_site_label_2
_ccdc_geom_bond_type
C16   O10   A    
C26   O3    S    
C27   C29   A    
H9    N7    S    
C17   O11   A    
C18   H3    S    
C33   C36   A    
C11   H26   S    
C39   C41   A    
C5    C9    A    
C23   C42   A    
N4    N6    S    
C12   O5    A    
Cu1   O8    S    
C35   C37   A    
C5    C11   A    
C13   H2    S    
C11   C14   A    
C24   N3    A    
C35   H21   S    
H17   N10   S    
C1    O1    A    
C22   C38   A    
C24   C39   A    
C3    C29   A    
C24   O2    S    
C18   C40   A    
C25   O4    S    
C31   C33   A    
C25   N1    A    
C36   N1    S    
H10   N7    S    
C30   N10   S    
C2    C34   A    
Cu2   O6    S    
C21   H6    S    
Cu1   N5    S    
C15   H25   S    
N4    N5    D    
C34   C39   A    
C32   C35   A    
Cu2   N4    S    
C17   O9    A    
H7    N6    S    
H15   N9    S    
H11   N8    S    
C19   H4    S    
C26   N3    A    
C8    C18   A    
C28   H22   S    
Cu1   Cu2   S    
C6    C10   A    
C20   H5    S    
H18   N2    S    
C2    C26   A    
C20   C21   D    
C3    C31   A    
N5    N7    S    
C4    C32   A    
H14   N9    S    
C4    C17   S    
C7    C19   A    
C13   C15   A    
C9    C34   A    
Cu1   O1    S    
C40   N8    S    
Cu2   O5    S    
C22   N1    A    
Cu2   O10   S    
C1    O6    A    
C7    C9    A    
C37   N3    S    
H16   N10   S    
C1    C20   S    
C22   O12   S    
C12   O7    A    
H13   N8    S    
C15   C42   A    
H8    N6    S    
C25   C42   A    
C41   N9    S    
C5    C8    A    
C6    C7    A    
C10   C23   A    
C23   C38   A    
C27   C36   A    
Cu1   O7    S    
C29   N2    S    
C28   C30   A    
C6    C13   A    
C38   C40   A    
C28   C37   A    
C33   H20   S    
C12   C21   S    
C2    C14   A    
Cu1   O11   S    
C27   H23   S    
Cu2   O9    S    
H19   N2    S    
C8    C10   A    
C31   H1    S    
C16   O8    A    
C14   H24   S    
C32   H12   S    
C4    C30   A    
C3    C16   S    
C19   C41   A    
