data_mof_unit_43580.cif
_audit_creation_date              2012-12-10T20:31:51-0500
_audit_creation_method            fapswitch 2.2
_symmetry_space_group_name_H-M    P1
_symmetry_Int_Tables_number       1
_space_group_crystal_system       triclinic
_cell_length_a                    9.887507
_cell_length_b                    10.675989
_cell_length_c                    15.299777
_cell_angle_alpha                 90.417275
_cell_angle_beta                  68.21397
_cell_angle_gamma                 90.298241
_cell_volume                      1499.63146804

loop_
_atom_site_label
_atom_site_type_symbol
_atom_type_description
_atom_site_fract_x
_atom_site_fract_y
_atom_site_fract_z
_atom_type_partial_charge
C1    C     C_R   0.498276 0.739952 0.503380 0.874541
C2    C     C_R   0.393712 0.580751 0.919237 0.092617
C3    C     C_R   0.250121 0.542316 0.974690 0.109631
C4    C     C_R   0.491911 0.615001 0.963079 -0.001775
C5    C     C_R   0.451980 0.589624 0.059832 -0.045401
C6    C     C_R   0.302176 0.573020 0.116684 0.498367
C7    C     C_R   0.203607 0.544801 0.072601 -0.383049
C8    C     C_R   0.630566 0.668733 0.913467 -0.199054
C9    C     C_R   0.732445 0.683265 0.955821 -0.234428
C10   C     C_R   0.702243 0.637120 0.046093 0.166820
C11   C     C_R   0.563933 0.584046 0.096317 0.110674
C12   C     C_R   0.408643 0.502906 0.676497 0.853452
C13   C     C_R   0.807834 0.641978 0.087168 -0.226421
C14   C     C_R   0.776393 0.593013 0.177085 -0.213907
C15   C     C_R   0.544423 0.519269 0.178843 -0.184192
C16   C     C_R   0.365822 0.935190 0.520400 0.130874
C17   C     C_R   0.488732 0.871270 0.519406 -0.097293
C18   C     C_R   0.600118 0.935987 0.536684 -0.234021
C19   C     C_R   0.600050 0.065562 0.536266 -0.225711
C20   C     C_R   0.488615 0.128546 0.518562 -0.109832
C21   C     C_R   0.365822 0.063000 0.519825 0.121349
C22   C     C_3   0.286308 0.067647 0.453724 -0.429090
C23   C     C_R   0.498110 0.259925 0.502929 0.879404
C24   C     C_3   0.285587 0.925790 0.454836 -0.513577
C25   C     C_R   0.903224 0.591438 0.546412 0.202241
C26   C     C_R   0.957930 0.417453 0.446131 -0.302056
C27   C     C_R   0.105252 0.418354 0.443755 0.612467
C28   C     C_R   0.045558 0.591782 0.546035 0.106236
C29   C     C_3   0.995123 0.621538 0.648193 -0.485337
C30   C     C_3   0.841055 0.618238 0.649488 -0.509316
C31   C     C_R   0.590842 0.502777 0.323522 0.874053
C32   C     C_R   0.349490 0.519525 0.778743 -0.058419
C33   C     C_R   0.643747 0.531301 0.223125 -0.097596
C34   C     C_R   0.155670 0.499568 0.931308 -0.180750
C35   C     C_R   0.205500 0.487399 0.833635 -0.202853
C36   C     C_R   0.439611 0.570632 0.821366 -0.243981
H1    H     H_    0.092337 0.519560 0.114571 0.158394
H2    H     H_    0.912341 0.686553 0.051086 0.146459
H3    H     H_    0.691615 0.115144 0.542987 0.172220
H4    H     H_    0.175811 0.108812 0.487296 0.220832
H5    H     H_    0.354021 0.107095 0.384041 0.222617
H6    H     H_    0.174889 0.885008 0.489531 0.203833
H7    H     H_    0.351929 0.883081 0.385718 0.215582
H8    H     H_    0.922534 0.349563 0.406398 0.161909
H9    H     H_    0.018047 0.545182 0.689705 0.210646
H10   H     H_    0.449888 0.460384 0.210985 0.208526
H11   H     H_    0.777682 0.537683 0.690234 0.216595
H12   H     H_    0.785619 0.710601 0.665616 0.186475
H13   H     H_    0.852926 0.606597 0.211472 0.145363
H14   H     H_    0.837150 0.725516 0.916347 0.148328
H15   H     H_    0.045245 0.471080 0.973012 0.148258
H16   H     H_    0.133040 0.450021 0.801387 0.146772
H17   H     H_    0.548049 0.596608 0.776823 0.143645
H18   H     H_    0.661199 0.703756 0.842817 0.145970
N1    N     N_R   0.856900 0.500860 0.500610 -0.119622
N2    N     N_R   0.142540 0.500820 0.500610 -0.143950
O1    O     O_R   0.385310 0.683210 0.499990 -0.611310
O2    O     O_R   0.614650 0.683240 0.500000 -0.621717
O3    O     O_R   0.319830 0.499970 0.632240 -0.622375
O4    O     O_R   0.549170 0.500000 0.632250 -0.609908
O5    O     O_R   0.385350 0.316760 0.500000 -0.571083
O6    O     O_R   0.614690 0.316790 0.500010 -0.622964
O7    O     O_R   0.450830 0.500000 0.367750 -0.549886
O8    O     O_R   0.680170 0.500030 0.367760 -0.622492
Zn1   Zn    Zn3+2 0.346870 0.499980 0.499990 0.992912
Zn2   Zn    Zn3+2 0.653130 0.500020 0.500010 0.929147
H19   H     H_    0.691689 0.887615 0.543575 0.167051
O9    O     O_3   0.212217 0.334783 0.390255 -0.578155
C37   C     C_3   0.186440 0.283931 0.312443 -0.395597
H20   H     H_    0.289283 0.242063 0.263411 0.190483
H21   H     H_    0.153676 0.356531 0.272465 0.201436
H22   H     H_    0.104440 0.207398 0.335463 0.161631
H23   H     H_    0.030399 0.716493 0.661388 0.199889
O10   O     O_3   0.257476 0.582869 0.214253 -0.621075
C38   C     C_3   0.124862 0.648035 0.255535 -0.322282
H24   H     H_    0.032221 0.581643 0.272232 0.164659
H25   H     H_    0.113632 0.726662 0.211221 0.159824
H26   H     H_    0.120968 0.689103 0.323253 0.188291

loop_
_geom_bond_atom_site_label_1
_geom_bond_atom_site_label_2
_ccdc_geom_bond_type
O7    Zn1   S    
C16   C21   A    
C24   H6    S    
C19   C20   A    
C4    C8    A    
C26   N1    A    
C14   C33   A    
C28   N2    A    
C26   H8    S    
C25   C28   A    
C26   C27   A    
C32   C36   A    
C30   H12   S    
C28   C29   S    
C5    C11   A    
C3    C7    A    
C5    C6    A    
C34   C35   A    
C22   H5    S    
C29   H23   S    
N2    Zn1   S    
C18   C19   A    
C37   H21   S    
C27   O9    S    
O9    C37   S    
C12   O3    A    
C11   C15   A    
O2    Zn2   S    
C23   O6    A    
C16   C17   A    
C31   C33   S    
C36   H17   S    
C9    C10   A    
O4    Zn2   S    
C16   C24   S    
C21   C22   S    
C12   C32   S    
C6    O10   S    
C7    H1    S    
O10   C38   S    
O6    Zn2   S    
C32   C35   A    
C31   O7    A    
C30   H11   S    
C8    H18   S    
C27   N2    A    
C8    C9    A    
C3    C34   A    
C18   H19   S    
C29   H9    S    
O8    Zn2   S    
C37   H22   S    
C2    C4    A    
C38   H24   S    
C29   C30   S    
C1    O1    A    
C20   C23   S    
C22   H4    S    
C17   C18   A    
C34   H15   S    
C38   H25   S    
C13   H2    S    
C19   H3    S    
C22   C24   S    
N1    Zn2   S    
C14   H13   S    
C2    C36   A    
C25   C30   S    
C31   O8    A    
C9    H14   S    
C25   N1    A    
O1    Zn1   S    
C4    C5    A    
C10   C13   A    
C6    C7    A    
C1    C17   S    
C2    C3    A    
C1    O2    A    
O3    Zn1   S    
C37   H20   S    
C38   H26   S    
C10   C11   A    
C12   O4    A    
O5    Zn1   S    
C23   O5    A    
C20   C21   A    
C35   H16   S    
C24   H7    S    
C15   H10   S    
C13   C14   A    
C15   C33   A    
