data_mof_unit_65711.cif
_audit_creation_date              2012-12-10T19:40:10-0500
_audit_creation_method            fapswitch 2.2
_symmetry_space_group_name_H-M    P1
_symmetry_Int_Tables_number       1
_space_group_crystal_system       triclinic
_cell_length_a                    30.511347
_cell_length_b                    21.657899
_cell_length_c                    21.623288
_cell_angle_alpha                 90.109878
_cell_angle_beta                  134.834933
_cell_angle_gamma                 89.952144
_cell_volume                      10132.8383539

loop_
_atom_site_label
_atom_site_type_symbol
_atom_type_description
_atom_site_fract_x
_atom_site_fract_y
_atom_site_fract_z
_atom_type_partial_charge
C1    C     C_R   0.120022 0.500768 0.119705 0.878865
C2    C     C_3   0.422884 0.785476 0.017428 -0.478025
C3    C     C_R   0.001297 0.314624 0.000743 -0.095961
C4    C     C_R   0.499997 0.186226 0.999134 -0.123745
C5    C     C_R   0.501255 0.814398 0.000547 -0.100632
C6    C     C_3   0.898710 0.941761 0.112292 -0.538136
C7    C     C_3   0.392005 0.557029 0.106434 -0.512505
C8    C     C_R   0.033832 0.718002 0.986740 -0.215230
C9    C     C_R   0.043134 0.282487 0.004272 -0.222548
C10   C     C_R   0.507518 0.218875 0.950553 -0.206016
C11   C     C_R   0.537010 0.782070 0.992277 -0.217276
C12   C     C_R   0.034009 0.782728 0.987070 -0.220338
C13   C     C_R   0.217431 0.448564 0.235458 0.095744
C14   C     C_R   0.043446 0.217753 0.004890 -0.217048
C15   C     C_R   0.507679 0.283526 0.950909 -0.230072
C16   C     C_R   0.537338 0.717338 0.992936 -0.219343
C17   C     C_R   0.000486 0.814818 0.999287 -0.087306
C18   C     C_R   0.000619 0.185550 0.999239 -0.101336
C19   C     C_R   0.499791 0.315286 0.999081 -0.071259
C20   C     C_R   0.500452 0.685326 0.999154 -0.090977
C21   C     C_R   0.969161 0.781400 0.012467 0.131383
C22   C     C_R   0.959798 0.219198 0.994460 0.131716
C23   C     C_R   0.491897 0.281956 0.044908 0.116289
C24   C     C_R   0.717452 0.052558 0.232912 0.101471
C25   C     C_R   0.465329 0.718957 0.005616 0.133071
C26   C     C_3   0.796416 0.417676 0.943252 -0.796237
C27   C     C_3   0.805368 0.615271 0.996577 -0.806092
C28   C     C_3   0.305762 0.130929 0.986247 -0.798940
C29   C     C_3   0.306442 0.163287 0.786354 -0.801367
C30   C     C_3   0.348902 0.663543 0.152865 -0.831255
C31   C     C_3   0.342049 0.458819 0.156601 -0.807718
C32   C     C_3   0.854501 0.039317 0.158368 -0.810241
C33   C     C_3   0.916245 0.848413 0.275121 -0.762695
C34   C     C_R   0.185691 0.500323 0.183384 -0.072701
C35   C     C_R   0.685575 0.999739 0.183506 -0.069792
C36   C     C_R   0.217516 0.547777 0.184608 -0.231355
C37   C     C_R   0.717210 0.950319 0.187697 -0.223582
C38   C     C_R   0.281894 0.547554 0.248359 -0.195535
C39   C     C_R   0.781539 0.950372 0.251541 -0.218022
C40   C     C_R   0.313672 0.498899 0.308623 -0.094064
C41   C     C_R   0.619981 0.999499 0.119700 0.879938
C42   C     C_R   0.813569 0.000766 0.308903 -0.099253
C43   C     C_R   0.280861 0.447684 0.297208 0.147700
C44   C     C_R   0.780907 0.053199 0.294803 0.148842
C45   C     C_3   0.284719 0.415072 0.361735 -0.491340
C46   C     C_3   0.784780 0.089098 0.357609 -0.485322
C47   C     C_3   0.214563 0.416106 0.293325 -0.485428
C48   C     C_3   0.714617 0.088284 0.289090 -0.493991
C49   C     C_R   0.000240 0.620061 0.000245 0.884209
C50   C     C_R   0.000017 0.380067 0.999934 0.883505
C51   C     C_R   0.499999 0.120223 0.999940 0.881356
C52   C     C_3   0.929812 0.786406 0.029537 -0.519635
C53   C     C_R   0.500162 0.879990 0.000061 0.877614
C54   C     C_R   0.779727 0.512287 0.832081 0.045545
C55   C     C_R   0.281322 0.041475 0.814051 0.024665
C56   C     C_R   0.813809 0.498688 0.813420 -0.136856
C57   C     C_R   0.314831 0.997979 0.814978 -0.105677
C58   C     C_R   0.781434 0.484236 0.726309 -0.190899
C59   C     C_R   0.282846 0.953475 0.748188 -0.206998
C60   C     C_R   0.716759 0.484315 0.661657 -0.220531
C61   C     C_R   0.218092 0.953611 0.683417 -0.209187
C62   C     C_R   0.684678 0.499714 0.683958 -0.038658
C63   C     C_3   0.908280 0.214615 0.988623 -0.483449
C64   C     C_R   0.185704 0.999565 0.684135 -0.071807
C65   C     C_R   0.717596 0.513292 0.769558 0.011469
C66   C     C_R   0.219274 0.043373 0.749908 0.029451
C67   C     C_3   0.710657 0.530849 0.828971 -0.550449
C68   C     C_3   0.213923 0.098646 0.785707 -0.498090
C69   C     C_3   0.782352 0.529668 0.901922 0.449377
C70   C     C_3   0.285656 0.097216 0.859160 0.409530
C71   C     C_R   0.000273 0.999363 0.880107 0.876657
C72   C     C_R   0.500297 0.500712 0.880124 0.874831
C73   C     C_R   0.000029 0.880134 0.000034 0.886046
C74   C     C_3   0.483385 0.287155 0.104505 -0.526995
C75   C     C_R   0.000066 0.119993 0.999846 0.879825
C76   C     C_R   0.499944 0.380296 0.000575 0.883045
C77   C     C_R   0.500047 0.619918 0.000063 0.883082
C78   C     C_R   0.879781 0.499664 0.879871 0.885950
C79   C     C_R   0.380134 0.999563 0.880271 0.883449
C80   C     C_R   0.999887 0.001537 0.119925 0.887376
C81   C     C_R   0.499834 0.499354 0.119895 0.883907
C82   C     C_R   0.499695 0.499949 0.379910 0.881355
C83   C     C_R   0.999110 0.999618 0.378971 0.919641
C84   C     C_R   0.379721 0.499886 0.379125 0.885987
C85   C     C_3   0.422036 0.714315 0.015842 -0.507426
C86   C     C_R   0.879689 0.000044 0.379234 0.888760
C87   C     C_R   0.499997 0.499947 0.620113 0.875162
C88   C     C_R   0.999942 0.000150 0.620068 0.878156
C89   C     C_R   0.619669 0.499983 0.620061 0.885802
C90   C     C_R   0.120024 0.999989 0.619703 0.883463
C91   C     C_R   0.967687 0.044388 0.749778 0.107255
C92   C     C_R   0.466736 0.456489 0.748620 0.103083
C93   C     C_R   0.001949 0.000551 0.815914 -0.086016
C94   C     C_R   0.502062 0.499491 0.815997 -0.086492
C95   C     C_R   0.043140 0.961984 0.824932 -0.216712
C96   C     C_3   0.930709 0.715273 0.031225 -0.469790
C97   C     C_R   0.544211 0.537114 0.826097 -0.210866
C98   C     C_R   0.543914 0.537493 0.761434 -0.225044
C99   C     C_R   0.042881 0.961688 0.760321 -0.221970
C100  C     C_R   0.502733 0.498902 0.688675 -0.087211
C101  C     C_R   0.002797 0.001343 0.688767 -0.090883
C102  C     C_R   0.970647 0.719539 0.015040 0.137561
C103  C     C_R   0.960936 0.281066 0.996901 0.132014
C104  C     C_R   0.492438 0.220071 0.045526 0.137067
C105  C     C_R   0.466633 0.780826 0.007981 0.133858
C106  C     C_R   0.467597 0.455754 0.685970 0.148061
C107  C     C_3   0.909050 0.285775 0.990252 -0.502156
C108  C     C_R   0.968675 0.045242 0.687249 0.146993
C109  C     C_3   0.399836 0.443206 0.614635 -0.521647
C110  C     C_3   0.901260 0.059444 0.616167 -0.519819
C111  C     C_3   0.900209 0.058500 0.685296 -0.461034
C112  C     C_3   0.398961 0.443870 0.683931 -0.460186
C113  C     C_R   0.965763 0.957319 0.183320 0.023275
C114  C     C_R   0.451960 0.523490 0.171695 0.054710
C115  C     C_R   0.000590 0.000891 0.186447 -0.073843
C116  C     C_R   0.499843 0.497575 0.185694 -0.083490
C117  C     C_R   0.042189 0.038542 0.260267 -0.215108
C118  C     C_3   0.483963 0.216004 0.105393 -0.455005
C119  C     C_R   0.549356 0.470450 0.267417 -0.212418
C120  C     C_R   0.549299 0.470659 0.332099 -0.204933
C121  C     C_R   0.041945 0.037922 0.324356 -0.228146
C122  C     C_R   0.500721 0.499567 0.315707 -0.106861
C123  C     C_R   0.002096 0.997623 0.316073 -0.121351
C124  C     C_R   0.453120 0.525810 0.234938 0.060593
C125  C     C_R   0.968177 0.953445 0.249121 0.126441
C126  C     C_3   0.392698 0.559569 0.178812 0.383069
C127  C     C_3   0.901005 0.933903 0.184930 0.378156
C128  C     C_R   0.001612 0.685750 0.001210 -0.105930
H1    H     H_    0.059122 0.693462 0.976290 0.159881
H2    H     H_    0.307662 0.918656 0.746797 0.152519
H3    H     H_    0.692056 0.472998 0.594952 0.135899
H4    H     H_    0.193612 0.918720 0.632725 0.159156
H5    H     H_    0.687234 0.494670 0.833386 0.199328
H6    H     H_    0.689978 0.577580 0.813223 0.185813
H7    H     H_    0.191088 0.086646 0.807431 0.178803
H8    H     H_    0.193406 0.139071 0.741491 0.203916
H9    H     H_    0.072841 0.930130 0.879097 0.153192
H10   H     H_    0.574746 0.568219 0.881206 0.153727
H11   H     H_    0.574415 0.568539 0.767052 0.154383
H12   H     H_    0.075650 0.307168 0.007649 0.157428
H13   H     H_    0.072532 0.929860 0.765002 0.158156
H14   H     H_    0.389795 0.397001 0.584534 0.207986
H15   H     H_    0.373815 0.482210 0.567871 0.195218
H16   H     H_    0.874235 0.021253 0.567938 0.195546
H17   H     H_    0.892495 0.105976 0.587707 0.207770
H18   H     H_    0.872412 0.019867 0.676960 0.216600
H19   H     H_    0.890953 0.104531 0.696923 0.201096
H20   H     H_    0.388685 0.397964 0.694200 0.199975
H21   H     H_    0.372124 0.483023 0.676925 0.216932
H22   H     H_    0.072253 0.070410 0.265974 0.156235
H23   H     H_    0.513656 0.194876 0.913112 0.173080
H24   H     H_    0.587429 0.448917 0.280919 0.160529
H25   H     H_    0.059267 0.807444 0.976744 0.149461
H26   H     H_    0.076113 0.193137 0.008482 0.160945
H27   H     H_    0.513775 0.308437 0.913984 0.144379
H28   H     H_    0.565401 0.692556 0.987562 0.151697
H29   H     H_    0.587131 0.449325 0.394610 0.143827
H30   H     H_    0.071562 0.069596 0.378938 0.161892
H31   H     H_    0.870684 0.981004 0.067174 0.210676
H32   H     H_    0.891235 0.898065 0.078836 0.186763
H33   H     H_    0.398213 0.602377 0.089514 0.191386
H34   H     H_    0.565018 0.806580 0.986672 0.157150
H35   H     H_    0.355051 0.527526 0.049584 0.193032
H36   H     H_    0.883584 0.806260 0.973303 0.209663
H37   H     H_    0.865718 0.194712 0.925449 0.211411
H38   H     H_    0.437866 0.307439 0.071662 0.211077
H39   H     H_    0.376655 0.694300 0.957258 0.209834
H40   H     H_    0.954897 0.807785 0.093975 0.207294
H41   H     H_    0.923264 0.193440 0.047853 0.198789
H42   H     H_    0.524119 0.308245 0.168239 0.204909
H43   H     H_    0.444265 0.693286 0.079183 0.202813
H44   H     H_    0.885143 0.694214 0.975292 0.203654
H45   H     H_    0.195360 0.445527 0.311788 0.218242
H46   H     H_    0.867180 0.306816 0.927650 0.198184
H47   H     H_    0.438860 0.195147 0.073390 0.202648
H48   H     H_    0.378124 0.806663 0.959320 0.198817
H49   H     H_    0.955538 0.695498 0.096285 0.215630
H50   H     H_    0.923871 0.305815 0.049979 0.212512
H51   H     H_    0.525017 0.196037 0.169734 0.206207
H52   H     H_    0.445015 0.805400 0.081369 0.213509
H53   H     H_    0.192814 0.586151 0.139560 0.145509
H54   H     H_    0.692369 0.910746 0.144891 0.143837
H55   H     H_    0.306561 0.585874 0.252255 0.167491
H56   H     H_    0.193484 0.369460 0.268200 0.202240
H57   H     H_    0.805874 0.910585 0.257727 0.158521
H58   H     H_    0.306143 0.443998 0.419685 0.194766
H59   H     H_    0.304206 0.367826 0.376392 0.207449
H60   H     H_    0.804415 0.135985 0.369994 0.207005
H61   H     H_    0.806108 0.062257 0.416997 0.195027
H62   H     H_    0.855985 0.489413 0.023609 0.243963
H63   H     H_    0.815671 0.388944 0.000248 0.235803
H64   H     H_    0.818383 0.403140 0.921034 0.235874
H65   H     H_    0.746001 0.408971 0.890807 0.247280
H66   H     H_    0.798408 0.622432 0.894197 0.208937
H67   H     H_    0.693710 0.134684 0.261752 0.201753
H68   H     H_    0.830444 0.659954 0.023934 0.238584
H69   H     H_    0.826755 0.583412 0.051816 0.252194
H70   H     H_    0.756271 0.623337 0.960338 0.239517
H71   H     H_    0.297709 0.039870 0.948937 0.222291
H72   H     H_    0.331063 0.116711 0.053722 0.237087
H73   H     H_    0.256626 0.139192 0.949666 0.239369
H74   H     H_    0.326681 0.174504 0.990022 0.249906
H75   H     H_    0.363574 0.151665 0.918768 0.232899
H76   H     H_    0.328505 0.208077 0.796613 0.245260
H77   H     H_    0.256435 0.167116 0.726303 0.247374
H78   H     H_    0.695224 0.060987 0.308758 0.217701
H79   H     H_    0.327411 0.126944 0.777621 0.239597
H80   H     H_    0.418463 0.622392 0.273450 0.247135
H81   H     H_    0.364198 0.711155 0.179484 0.247763
H82   H     H_    0.310817 0.650741 0.146928 0.231062
H83   H     H_    0.331628 0.663314 0.087342 0.250059
H84   H     H_    0.299416 0.544369 0.107405 0.238255
H85   H     H_    0.300298 0.441327 0.139263 0.243755
H86   H     H_    0.383009 0.440037 0.221720 0.254162
H87   H     H_    0.341192 0.442007 0.107223 0.239480
H88   H     H_    0.818944 0.955007 0.151456 0.228834
H89   H     H_    0.805720 0.472678 0.708214 0.168673
H90   H     H_    0.838183 0.065467 0.183201 0.249625
H91   H     H_    0.819787 0.044787 0.086435 0.231675
H92   H     H_    0.899041 0.059553 0.187606 0.256559
H93   H     H_    0.848445 0.853045 0.139625 0.214416
H94   H     H_    0.901257 0.800107 0.268658 0.219348
H95   H     H_    0.898562 0.877870 0.295575 0.258559
H96   H     H_    0.967485 0.848785 0.325256 0.262373
N1    N     N_2   0.809644 0.482251 0.968831 -0.279916
N2    N     N_2   0.809824 0.590397 0.938941 -0.314698
N3    N     N_2   0.310424 0.082607 0.944736 -0.304628
N4    N     N_2   0.317160 0.149788 0.861861 -0.288627
N5    N     N_2   0.400460 0.621568 0.211411 -0.298055
N6    N     N_2   0.342396 0.525763 0.158811 -0.309485
N7    N     N_2   0.860638 0.974662 0.180798 -0.311138
N8    N     N_2   0.892403 0.869123 0.192581 -0.327053
O1    O     O_R   0.091640 0.500000 0.143360 -0.623390
O2    O     O_R   0.551700 0.500000 0.143310 -0.627154
O3    O     O_R   0.499940 0.551750 0.408310 -0.634166
O4    O     O_R   0.499940 0.448250 0.408310 -0.624390
O5    O     O_R   0.999940 0.051750 0.408310 -0.621727
O6    O     O_R   0.999940 0.948250 0.408310 -0.637637
O7    O     O_R   0.408380 0.551720 0.408370 -0.628042
O8    O     O_R   0.408380 0.448280 0.408370 -0.622170
O9    O     O_R   0.908380 0.051720 0.408370 -0.619877
O10   O     O_R   0.908380 0.948280 0.408370 -0.633548
O11   O     O_R   0.500050 0.551670 0.591650 -0.621978
O12   O     O_R   0.591640 0.000000 0.143360 -0.623579
O13   O     O_R   0.500050 0.448330 0.591650 -0.621880
O14   O     O_R   0.000050 0.051670 0.591650 -0.622628
O15   O     O_R   0.000050 0.948330 0.591650 -0.619258
O16   O     O_R   0.591610 0.551710 0.591590 -0.621579
O17   O     O_R   0.591610 0.448290 0.591590 -0.624080
O18   O     O_R   0.091610 0.051710 0.591590 -0.622221
O19   O     O_R   0.091610 0.948290 0.591590 -0.628593
O20   O     O_R   0.091570 0.500000 0.039860 -0.626229
O21   O     O_R   0.591570 0.000000 0.039860 -0.624109
O22   O     O_R   0.000030 0.591610 0.051750 -0.618482
O23   O     O_R   0.051710 0.908380 0.051700 -0.622626
O24   O     O_R   0.000030 0.408390 0.051750 -0.624083
O25   O     O_R   0.500030 0.091610 0.051750 -0.622999
O26   O     O_R   0.500030 0.908390 0.051750 -0.621541
O27   O     O_R   0.999970 0.591600 0.948260 -0.626139
O28   O     O_R   0.999970 0.408400 0.948260 -0.623399
O29   O     O_R   0.499970 0.091600 0.948260 -0.627375
O30   O     O_R   0.499970 0.908400 0.948260 -0.627763
O31   O     O_R   0.908410 0.500000 0.960140 -0.624144
O32   O     O_R   0.408410 1.000000 0.960140 -0.619389
O33   O     O_R   0.908350 0.500000 0.856640 -0.625610
O34   O     O_R   0.051710 0.091620 0.051700 -0.626090
O35   O     O_R   0.408350 0.000000 0.856640 -0.622559
O36   O     O_R   0.948280 0.000000 0.856590 -0.623613
O37   O     O_R   0.448280 0.500000 0.856590 -0.624194
O38   O     O_R   0.051720 1.000000 0.960100 -0.627055
O39   O     O_R   0.551720 0.500000 0.960100 -0.624758
O40   O     O_R   0.948270 0.908380 0.948190 -0.621436
O41   O     O_R   0.948270 0.091620 0.948190 -0.623888
O42   O     O_R   0.448270 0.408380 0.948190 -0.622482
O43   O     O_R   0.448270 0.591620 0.948190 -0.622941
O44   O     O_R   0.551710 0.408380 0.051700 -0.621697
O45   O     O_R   0.551710 0.591620 0.051700 -0.623216
O46   O     O_R   0.948260 0.000000 0.039800 -0.626095
O47   O     O_R   0.448260 0.500000 0.039800 -0.623836
O48   O     O_R   0.051700 0.000000 0.143310 -0.621802
Zn1   Zn    Zn3+2 0.000030 0.500000 0.069110 0.942246
Zn2   Zn    Zn3+2 0.500000 0.430940 0.499990 0.948475
Zn3   Zn    Zn3+2 1.000000 0.069060 0.499990 0.945971
Zn4   Zn    Zn3+2 1.000000 0.930940 0.499990 0.932813
Zn5   Zn    Zn3+2 0.500030 0.000000 0.069110 0.949484
Zn6   Zn    Zn3+2 0.999950 0.500000 0.930890 0.946833
Zn7   Zn    Zn3+2 0.499950 0.000000 0.930890 0.946310
Zn8   Zn    Zn3+2 0.930930 1.000000 0.930840 0.939596
Zn9   Zn    Zn3+2 0.430930 0.500000 0.930840 0.942968
Zn10  Zn    Zn3+2 0.069060 0.000000 0.069060 0.950306
Zn11  Zn    Zn3+2 0.569060 0.500000 0.069060 0.951897
Zn12  Zn    Zn3+2 0.500000 0.569060 0.499990 0.945491

loop_
_geom_bond_atom_site_label_1
_geom_bond_atom_site_label_2
_ccdc_geom_bond_type
O1    Zn1   S    
C83   O5    A    
C59   H2    S    
C71   O36   A    
C82   O4    A    
C61   C64   A    
H62   N1    S    
C49   O27   A    
C78   O31   A    
C14   C18   A    
C123  C125  A    
C66   C68   S    
C27   H69   S    
C64   C90   S    
C12   H25   S    
C69   N2    S    
C30   H81   S    
C97   C98   A    
C1    O20   A    
C29   H77   S    
C6    C113  S    
C31   H86   S    
C5    C105  A    
C55   C70   S    
C15   C19   A    
C90   O18   A    
C76   O44   A    
C45   H59   S    
C85   H43   S    
O46   Zn8   S    
O24   Zn1   S    
O26   Zn5   S    
O32   Zn5   S    
C30   N5    S    
C5    C53   S    
C19   C76   S    
C67   H5    S    
C70   N4    S    
C6    C127  S    
C5    C11   A    
O23   Zn10  S    
C96   C102  S    
C10   C15   A    
C71   O38   A    
C33   H96   S    
C58   H89   S    
C95   C99   A    
C45   H58   S    
C63   H41   S    
C113  C125  A    
C20   C25   A    
C26   N1    S    
C77   O45   A    
C62   C89   S    
C41   O21   A    
C119  H24   S    
H88   N7    S    
C56   C78   S    
C60   H3    S    
C2    C85   S    
C60   C62   A    
O18   Zn3   S    
C91   C111  S    
O29   Zn7   S    
O13   Zn2   S    
C40   C84   S    
C110  C111  S    
C106  C109  S    
C117  C121  A    
C51   O29   A    
C61   H4    S    
C2    H48   S    
C22   C63   S    
C73   O23   A    
O44   Zn11  S    
C13   C47   S    
C8    C128  A    
C40   C43   A    
O7    Zn12  S    
C120  C122  A    
C115  C117  A    
C12   C17   A    
C16   H28   S    
C72   O39   A    
C79   O35   A    
C18   C75   S    
C109  H14   S    
C42   C86   S    
C96   H49   S    
C110  H17   S    
C15   H27   S    
C48   H67   S    
C16   C20   A    
H80   N5    S    
C20   C77   S    
C72   C94   S    
C33   H94   S    
C101  C108  A    
O30   Zn7   S    
C51   O25   A    
C83   O6    A    
O35   Zn7   S    
O12   Zn5   S    
C93   C95   A    
C29   H76   S    
C18   C22   A    
C82   O3    A    
C14   H26   S    
C80   O46   A    
C79   O32   A    
O47   Zn9   S    
O8    Zn2   S    
C84   O8    A    
C27   H70   S    
C42   C44   A    
C57   C79   S    
O9    Zn3   S    
C46   H61   S    
O5    Zn3   S    
C63   C107  S    
C28   N3    S    
O39   Zn11  S    
H75   N4    S    
C3    C50   S    
C44   C46   S    
C1    C34   S    
C87   O13   A    
C39   C42   A    
C104  C118  S    
C45   C47   S    
O28   Zn6   S    
C74   C118  S    
O37   Zn9   S    
C54   C56   A    
C31   N6    S    
C59   C61   A    
C24   C35   A    
C95   H9    S    
O17   Zn2   S    
O16   Zn12  S    
C41   O12   A    
C25   C105  A    
C85   H39   S    
C78   O33   A    
C83   C123  S    
C68   H8    S    
C67   H6    S    
C50   O24   A    
O3    Zn12  S    
C74   H38   S    
O34   Zn10  S    
O43   Zn9   S    
C109  C112  S    
C1    O1    A    
C30   H83   S    
C54   C65   A    
C26   H64   S    
C92   C112  S    
C4    C51   S    
C94   C97   A    
C65   C67   S    
C117  H22   S    
C81   C116  S    
C7    H35   S    
O31   Zn1   S    
C112  H21   S    
C11   H34   S    
C6    H31   S    
C38   H55   S    
C112  H20   S    
C69   N1    S    
C114  C116  A    
C67   C69   S    
C24   C48   S    
O27   Zn6   S    
C19   C23   A    
C9    C14   A    
O22   Zn1   S    
O4    Zn2   S    
O38   Zn10  S    
O15   Zn4   S    
C3    C9    A    
C125  C127  S    
C111  H19   S    
C10   H23   S    
C91   C93   A    
C53   O30   A    
H84   N6    S    
C11   C16   A    
C87   O11   A    
C23   C104  A    
C80   C115  S    
C63   H37   S    
C8    C12   A    
C126  N5    S    
C25   C85   S    
C76   O42   A    
O14   Zn3   S    
C109  H15   S    
C28   H72   S    
O2    Zn11  S    
C70   N3    S    
C119  C120  A    
C110  H16   S    
C43   C45   S    
C118  H51   S    
C32   H92   S    
C36   H53   S    
C89   O17   A    
O33   Zn6   S    
C52   H36   S    
C31   H85   S    
C21   C102  A    
C33   H95   S    
C92   C106  A    
C99   C101  A    
O10   Zn4   S    
C118  H47   S    
C98   C100  A    
C121  H30   S    
C55   C57   A    
C107  H50   S    
C32   H90   S    
C120  H29   S    
C24   C44   A    
C111  H18   S    
C84   O7    A    
O25   Zn5   S    
C28   H73   S    
C23   C74   S    
C122  C124  A    
C77   O43   A    
C33   N8    S    
C97   H10   S    
C13   C43   A    
C55   C66   A    
C7    H33   S    
C124  C126  S    
C87   C100  S    
C3    C103  A    
O11   Zn12  S    
C49   C128  S    
C116  C119  A    
C53   O26   A    
C62   C65   A    
C126  N6    S    
O45   Zn11  S    
C81   O47   A    
C100  C106  A    
C91   C108  A    
C99   H13   S    
C68   H7    S    
C88   C101  S    
C4    C10   A    
C47   H56   S    
C73   O40   A    
O20   Zn6   S    
C57   C59   A    
C30   H82   S    
C6    H32   S    
C26   H63   S    
O21   Zn7   S    
C27   N2    S    
C71   C93   S    
C107  H46   S    
C121  C123  A    
O40   Zn8   S    
C90   O19   A    
C2    C105  S    
C102  C128  A    
C29   H79   S    
C89   O16   A    
C98   H11   S    
C28   H74   S    
H66   N2    S    
C36   C38   A    
C114  C124  A    
C35   C37   A    
C37   C39   A    
C52   H40   S    
C88   O15   A    
C38   C40   A    
C49   O22   A    
C17   C73   S    
H71   N3    S    
C92   C94   A    
C72   O37   A    
C54   C69   S    
C50   O28   A    
C86   O9    A    
C32   N7    S    
C37   H54   S    
C4    C104  A    
H93   N8    S    
C127  N8    S    
C9    H12   S    
C2    H52   S    
C108  C110  S    
C52   C96   S    
C34   C36   A    
O19   Zn4   S    
C7    C126  S    
C35   C41   S    
O42   Zn9   S    
O48   Zn10  S    
C74   H42   S    
C32   H91   S    
O6    Zn4   S    
C22   C103  A    
C88   O14   A    
C39   H57   S    
C46   C48   S    
C13   C34   A    
C31   H87   S    
C56   C58   A    
C68   C70   S    
C127  N7    S    
C96   H44   S    
C48   H78   S    
C8    H1    S    
C80   O48   A    
O41   Zn8   S    
C81   O2    A    
C75   O41   A    
C103  C107  S    
C27   H68   S    
C47   H45   S    
C29   N4    S    
C46   H60   S    
C26   H65   S    
C58   C60   A    
C82   C122  S    
C21   C52   S    
O36   Zn8   S    
C7    C114  S    
C64   C66   A    
C86   O10   A    
C113  C115  A    
C75   O34   A    
C17   C21   A    
