data_mof_unit_6540.cif
_audit_creation_date              2012-12-10T18:46:12-0500
_audit_creation_method            fapswitch 2.2
_symmetry_space_group_name_H-M    P1
_symmetry_Int_Tables_number       1
_space_group_crystal_system       triclinic
_cell_length_a                    9.844835
_cell_length_b                    10.660127
_cell_length_c                    13.116159
_cell_angle_alpha                 90.406157
_cell_angle_beta                  70.077208
_cell_angle_gamma                 89.963616
_cell_volume                      1294.08460318

loop_
_atom_site_label
_atom_site_type_symbol
_atom_type_description
_atom_site_fract_x
_atom_site_fract_y
_atom_site_fract_z
_atom_type_partial_charge
C1    C     C_R   0.499575 0.739970 0.501029 0.900991
C2    C     C_R   0.429206 0.462996 0.984628 0.090002
C3    C     C_R   0.461163 0.432819 0.874417 0.084919
C4    C     C_R   0.540294 0.450405 0.029294 0.077727
C5    C     C_R   0.670552 0.386640 0.971091 0.173720
C6    C     C_R   0.689783 0.338394 0.868128 -0.254067
C7    C     C_R   0.586543 0.361463 0.820009 -0.214035
C8    C     C_R   0.526767 0.503641 0.129176 -0.259789
C9    C     C_R   0.756049 0.415279 0.122556 -0.211677
C10   C     C_R   0.367649 0.477078 0.821503 -0.125145
C11   C     C_R   0.626073 0.935636 0.449264 -0.189211
C12   C     C_R   0.420078 0.492067 0.704017 0.836964
C13   C     C_R   0.625425 0.064024 0.450042 -0.248892
C14   C     C_R   0.497985 0.127742 0.507067 -0.141529
C15   C     C_R   0.371387 0.064197 0.568227 0.498639
C16   C     C_R   0.371553 0.935148 0.563194 -0.266993
C17   C     C_R   0.498704 0.872279 0.504156 -0.092580
C18   C     C_R   0.961209 0.428542 0.426970 -0.085832
C19   C     C_R   0.105047 0.428524 0.427019 -0.048442
C20   C     C_R   0.038707 0.571249 0.573193 -0.081102
C21   C     C_R   0.894870 0.571264 0.573144 -0.054215
C22   C     C_R   0.499390 0.260078 0.501459 0.871286
C23   C     C_R   0.580001 0.498856 0.295564 0.869730
C24   C     C_R   0.778654 0.371166 0.017569 -0.203802
C25   C     C_R   0.627732 0.479109 0.179006 -0.056038
C26   C     C_R   0.229073 0.520855 0.882413 -0.211687
C27   C     C_R   0.187831 0.530080 0.994498 -0.153848
C28   C     C_R   0.287857 0.505128 0.045422 -0.192790
H1    H     H_    0.835086 0.395001 0.160910 0.148995
H2    H     H_    0.723083 0.113523 0.404154 0.168949
H3    H     H_    0.274039 0.884241 0.607073 0.158795
H4    H     H_    0.933238 0.371472 0.368547 0.120255
H5    H     H_    0.185976 0.371316 0.368621 0.133329
H6    H     H_    0.066662 0.628238 0.631668 0.120892
H7    H     H_    0.813918 0.628392 0.631591 0.137699
H8    H     H_    0.786187 0.285586 0.823688 0.157070
H9    H     H_    0.877892 0.321509 0.974275 0.139026
H10   H     H_    0.435089 0.562085 0.171814 0.152483
H11   H     H_    0.154125 0.551180 0.843229 0.155668
H12   H     H_    0.250996 0.516285 0.132486 0.129684
H13   H     H_    0.080195 0.562233 0.041599 0.148303
H14   H     H_    0.605139 0.321438 0.740373 0.174581
H15   H     H_    0.724351 0.885907 0.403666 0.161806
N1    N     N_R   0.142790 0.500030 0.500030 -0.077196
N2    N     N_R   0.857180 0.499940 0.500010 -0.079722
O1    O     O_R   0.385370 0.683250 0.500010 -0.616966
O2    O     O_R   0.614700 0.683220 0.500010 -0.616722
O3    O     O_R   0.328400 0.499990 0.653620 -0.626082
O4    O     O_R   0.557730 0.499960 0.653620 -0.611001
O5    O     O_R   0.385300 0.316780 0.499990 -0.577616
O6    O     O_R   0.614630 0.316750 0.499990 -0.632971
O7    O     O_R   0.442270 0.500040 0.346380 -0.618612
O8    O     O_R   0.671600 0.500010 0.346380 -0.620049
Zn1   Zn    Zn3+2 0.346870 0.500020 0.500000 0.952059
Zn2   Zn    Zn3+2 0.653130 0.499980 0.500000 0.936025
O9    O     O_3   0.244930 0.126327 0.627153 -0.640263
C29   C     C_3   0.257232 0.178752 0.723260 0.115709
H16   H     H_    0.194943 0.268017 0.740277 0.177298
H17   H     H_    0.370138 0.203036 0.716760 0.090340
C30   C     C_3   0.191890 0.090581 0.818956 -0.387758
H18   H     H_    0.077554 0.070817 0.827927 0.229513
H19   H     H_    0.252699 0.000524 0.803403 0.218975
C31   C     C_3   0.197645 0.148554 0.924204 -0.937384
H20   H     H_    0.311420 0.166368 0.917837 0.273421
H21   H     H_    0.148637 0.083165 0.992328 0.263896
H22   H     H_    0.136513 0.238361 0.942074 0.265269

loop_
_geom_bond_atom_site_label_1
_geom_bond_atom_site_label_2
_ccdc_geom_bond_type
C2    C4    A    
C31   H21   S    
C9    C24   A    
C11   H15   S    
C6    C7    A    
C21   H7    S    
C2    C3    A    
C27   H13   S    
C1    C17   S    
C12   O3    A    
C9    H1    S    
C4    C8    A    
C20   H6    S    
C15   O9    S    
O1    Zn1   S    
C6    H8    S    
C23   C25   S    
C12   O4    A    
C29   H16   S    
C31   H22   S    
C9    C25   A    
C3    C10   A    
O4    Zn2   S    
C13   C14   A    
O9    C29   S    
C16   H3    S    
O3    Zn1   S    
C8    C25   A    
C11   C13   A    
C14   C22   S    
C23   O7    A    
O5    Zn1   S    
C5    C24   A    
C10   C12   S    
C8    H10   S    
C30   C31   S    
C23   O8    A    
C30   H19   S    
C20   N1    A    
O7    Zn1   S    
C24   H9    S    
C3    C7    A    
O8    Zn2   S    
C26   C27   A    
C5    C6    A    
C26   H11   S    
C1    O1    A    
C22   O6    A    
C29   H17   S    
C28   H12   S    
C31   H20   S    
C18   N2    A    
N1    Zn1   S    
C22   O5    A    
C4    C5    A    
C18   H4    S    
C19   N1    A    
N2    Zn2   S    
O2    Zn2   S    
C18   C19   A    
C19   H5    S    
C7    H14   S    
C27   C28   A    
C14   C15   A    
C30   H18   S    
C29   C30   S    
C2    C28   A    
O6    Zn2   S    
C20   C21   A    
C13   H2    S    
C10   C26   A    
C11   C17   A    
C15   C16   A    
C1    O2    A    
C16   C17   A    
C21   N2    A    
