data_mof_unit_38834.cif
_audit_creation_date              2012-12-10T19:09:34-0500
_audit_creation_method            fapswitch 2.2
_symmetry_space_group_name_H-M    P1
_symmetry_Int_Tables_number       1
_space_group_crystal_system       triclinic
_cell_length_a                    9.556428
_cell_length_b                    10.836504
_cell_length_c                    17.07585
_cell_angle_alpha                 88.850561
_cell_angle_beta                  93.832409
_cell_angle_gamma                 90.533143
_cell_volume                      1763.97989336

loop_
_atom_site_label
_atom_site_type_symbol
_atom_type_description
_atom_site_fract_x
_atom_site_fract_y
_atom_site_fract_z
_atom_type_partial_charge
C1    C     C_R   0.499622 0.262387 0.502108 0.793555
C2    C     C_R   0.656647 0.480199 0.779643 -0.220854
C3    C     C_R   0.569548 0.434955 0.142892 -0.189179
C4    C     C_R   0.577249 0.436708 0.224524 -0.217745
C5    C     C_R   0.454780 0.489597 0.099422 0.383595
C6    C     C_R   0.471285 0.492897 0.263701 -0.031916
C7    C     C_R   0.355115 0.543663 0.220522 -0.226911
C8    C     C_R   0.347025 0.541539 0.138923 -0.189090
C9    C     C_R   0.625506 0.065003 0.515166 0.121033
C10   C     C_R   0.499398 0.129251 0.510881 -0.095147
C11   C     C_R   0.373509 0.062867 0.517419 -0.218509
C12   C     C_R   0.517341 0.497499 0.650955 0.790569
C13   C     C_R   0.374077 0.934121 0.516794 -0.218204
C14   C     C_R   0.500500 0.870871 0.509511 -0.097670
C15   C     C_R   0.626045 0.937882 0.514156 0.136661
C16   C     C_3   0.744928 0.936826 0.461855 -0.497973
C17   C     C_3   0.745739 0.076455 0.464047 -0.451574
C18   C     C_R   0.072160 0.600436 0.472874 0.185013
C19   C     C_R   0.077530 0.406842 0.535072 -0.069359
C20   C     C_R   0.928762 0.407066 0.535343 -0.070741
C21   C     C_R   0.925052 0.599965 0.471465 0.186107
C22   C     C_3   0.916271 0.658196 0.390476 0.268792
C23   C     C_R   0.500402 0.737774 0.501376 0.793629
C24   C     C_3   0.075891 0.658380 0.393845 -0.566132
C25   C     C_R   0.482401 0.499001 0.349296 0.789056
C26   C     C_R   0.526468 0.492618 0.737078 -0.025895
C27   C     C_R   0.403670 0.497967 0.777447 -0.238523
C28   C     C_R   0.410591 0.491314 0.858905 -0.160152
C29   C     C_R   0.541343 0.479238 0.901818 0.385902
C30   C     C_R   0.663566 0.473173 0.861437 -0.200032
Cu1   Cu    Cu3+1 0.640670 0.499980 0.500000 0.967351
Cu2   Cu    Cu3+1 0.359330 0.500020 0.500000 0.943214
H1    H     H_    0.666274 0.394712 0.257057 0.176568
H2    H     H_    0.274957 0.885053 0.518016 0.161323
H3    H     H_    0.840764 0.895085 0.491468 0.187496
H4    H     H_    0.712049 0.901490 0.402760 0.186777
H5    H     H_    0.841077 0.115057 0.495831 0.189811
H6    H     H_    0.716448 0.121146 0.406125 0.201996
H7    H     H_    0.135462 0.330283 0.562268 0.128999
H8    H     H_    0.875809 0.330931 0.563021 0.130684
H9    H     H_    0.870821 0.751379 0.390170 0.065379
H10   H     H_    0.120299 0.595760 0.351477 0.223683
H11   H     H_    0.653420 0.391744 0.114122 0.150954
H12   H     H_    0.122643 0.752643 0.395952 0.156198
H13   H     H_    0.764590 0.463520 0.893593 0.137099
H14   H     H_    0.752937 0.475212 0.749857 0.158017
H15   H     H_    0.272301 0.587590 0.249614 0.141064
H16   H     H_    0.313430 0.495246 0.887900 0.150366
H17   H     H_    0.257814 0.582844 0.106164 0.133893
H18   H     H_    0.301773 0.507106 0.746180 0.161456
H19   H     H_    0.274157 0.109792 0.518834 0.158558
N1    N     N_2   0.554306 0.472836 0.985057 -0.272411
N2    N     N_2   0.443220 0.494695 0.016344 -0.270850
N3    N     N_R   0.147870 0.500930 0.499500 -0.166781
N4    N     N_R   0.851960 0.500890 0.499500 -0.164930
O1    O     O_R   0.618810 0.319640 0.500000 -0.586039
O2    O     O_R   0.381230 0.319680 0.499990 -0.588923
O3    O     O_R   0.631790 0.498830 0.613930 -0.589536
O4    O     O_R   0.394210 0.498870 0.613920 -0.585785
O5    O     O_R   0.618770 0.680320 0.500010 -0.584752
O6    O     O_R   0.381190 0.680360 0.500000 -0.582737
O7    O     O_R   0.605790 0.501130 0.386080 -0.528183
O8    O     O_R   0.368210 0.501170 0.386070 -0.582657
O9    O     O_3   0.854879 0.579240 0.332676 -0.562064
C31   C     C_3   0.859665 0.634926 0.256923 0.073167
H20   H     H_    0.844738 0.560177 0.213561 0.166521
H21   H     H_    0.963770 0.677316 0.246961 0.119255
C32   C     C_3   0.743546 0.731180 0.240614 -0.366544
H22   H     H_    0.643158 0.695731 0.261431 0.236625
H23   H     H_    0.771476 0.817125 0.272497 0.189139
C33   C     C_3   0.723341 0.763753 0.153251 -0.885368
H24   H     H_    0.822130 0.802270 0.131698 0.248877
H25   H     H_    0.639687 0.833906 0.143586 0.256154
H26   H     H_    0.691770 0.680749 0.119127 0.268636

loop_
_geom_bond_atom_site_label_1
_geom_bond_atom_site_label_2
_ccdc_geom_bond_type
Cu1   O5    S    
C18   C21   A    
C24   H10   S    
C30   H13   S    
C19   C20   A    
C7    C8    A    
C2    H14   S    
C3    H11   S    
C26   C27   A    
C18   C24   S    
Cu1   O3    S    
C5    N2    S    
C28   C29   A    
C1    O1    A    
Cu2   O6    S    
C16   H3    S    
C20   H8    S    
C22   H9    S    
C15   C16   S    
C25   O8    A    
C13   H2    S    
C12   O4    A    
C16   C17   S    
C31   H21   S    
Cu1   O1    S    
C9    C10   A    
C27   H18   S    
C17   H6    S    
C12   O3    A    
C21   C22   S    
Cu1   O7    S    
Cu2   O2    S    
C20   N4    A    
Cu2   N3    S    
C23   O5    A    
C4    C6    A    
C33   H25   S    
C32   H22   S    
C12   C26   S    
C7    H15   S    
C14   C23   S    
C29   C30   A    
C1    O2    A    
C5    C8    A    
Cu1   Cu2   S    
C31   C32   S    
C2    C26   A    
C17   H5    S    
C19   H7    S    
C19   N3    A    
C9    C17   S    
C24   H12   S    
C22   C24   S    
C3    C4    A    
N1    N2    D    
C21   N4    A    
C4    H1    S    
C28   H16   S    
C1    C10   S    
Cu2   O8    S    
C3    C5    A    
C33   H26   S    
C6    C7    A    
C2    C30   A    
O9    C31   S    
C9    C15   A    
C33   H24   S    
C16   H4    S    
C11   C13   A    
C32   C33   S    
C25   O7    A    
C11   H19   S    
C10   C11   A    
C18   N3    A    
C22   O9    S    
C6    C25   S    
C23   O6    A    
C32   H23   S    
C31   H20   S    
C27   C28   A    
C14   C15   A    
Cu2   O4    S    
Cu1   N4    S    
C13   C14   A    
C8    H17   S    
C29   N1    S    
