data_mof_unit_68533.cif
_audit_creation_date              2012-12-10T20:52:11-0500
_audit_creation_method            fapswitch 2.2
_symmetry_space_group_name_H-M    P1
_symmetry_Int_Tables_number       1
_space_group_crystal_system       triclinic
_cell_length_a                    10.702272
_cell_length_b                    8.916492
_cell_length_c                    8.097892
_cell_angle_alpha                 89.929266
_cell_angle_beta                  90.077985
_cell_angle_gamma                 89.640947
_cell_volume                      772.738807877

loop_
_atom_site_label
_atom_site_type_symbol
_atom_type_description
_atom_site_fract_x
_atom_site_fract_y
_atom_site_fract_z
_atom_type_partial_charge
C1    C     C_R   0.501016 0.217979 0.500061 0.970530
C2    C     C_R   0.740420 0.494722 0.500383 0.909763
C3    C     C_R   0.184451 0.936595 0.174179 0.465789
C4    C     C_R   0.815559 0.063394 0.825797 0.465905
C5    C     C_R   0.132443 0.839412 0.291239 -0.267540
C6    C     C_R   0.867566 0.160586 0.708746 -0.267608
C7    C     C_R   0.119432 0.686395 0.255694 0.000835
C8    C     C_R   0.880568 0.313602 0.744301 0.000834
C9    C     C_R   0.157492 0.631071 0.101492 -0.082844
C10   C     C_R   0.842503 0.368915 0.898505 -0.082739
C11   C     C_R   0.210414 0.727737 0.985373 -0.167434
C12   C     C_R   0.498982 0.782021 0.499939 0.970538
C13   C     C_R   0.789581 0.272240 0.014615 -0.167473
C14   C     C_R   0.223552 0.880118 0.021171 -0.195526
C15   C     C_R   0.776450 0.119860 0.978806 -0.195590
C16   C     C_R   0.932025 0.578603 0.380059 -0.157799
C17   C     C_R   0.067974 0.421403 0.619944 -0.157819
C18   C     C_R   0.872585 0.493789 0.501179 -0.028714
C19   C     C_R   0.127415 0.506215 0.498823 -0.028720
C20   C     C_R   0.939824 0.413820 0.622245 0.047131
C21   C     C_R   0.060176 0.586185 0.377757 0.047144
C22   C     C_1   0.500442 0.065208 0.500117 -0.121047
C23   C     C_1   0.499555 0.934792 0.499883 -0.121047
C24   C     C_R   0.259580 0.505279 0.499617 0.909751
H1    H     H_    0.262996 0.954082 0.929092 0.177170
H2    H     H_    0.121622 0.357966 0.710344 0.160191
H3    H     H_    0.067857 0.208357 0.030619 0.347446
H4    H     H_    0.932078 0.791390 0.969303 0.347474
H5    H     H_    0.737006 0.045889 0.070877 0.177189
H6    H     H_    0.100788 0.882683 0.409075 0.197443
H7    H     H_    0.899225 0.117323 0.590908 0.197449
H8    H     H_    0.146167 0.513602 0.071496 0.190265
H9    H     H_    0.853822 0.486383 0.928508 0.190169
H10   H     H_    0.239649 0.685122 0.866601 0.182766
H11   H     H_    0.760340 0.314847 0.133388 0.182760
H12   H     H_    0.878378 0.642039 0.289658 0.160157
N1    N     N_1   0.500020 0.500030 0.073640 -0.004575
N2    N     N_1   0.499980 0.499970 0.926360 -0.004574
O1    O     O_R   0.499990 0.285340 0.636850 -0.625490
O2    O     O_2   0.307098 0.194659 0.128896 -0.314126
O3    O     O_3   0.065890 0.217074 0.152521 -0.566297
O4    O     O_2   0.692934 0.805312 0.871073 -0.314202
O5    O     O_2   0.789429 0.847047 0.600250 -0.331936
O6    O     O_3   0.934143 0.782923 0.847384 -0.566325
O7    O     O_R   0.500010 0.714660 0.363150 -0.625494
O8    O     O_R   0.500010 0.285350 0.363100 -0.579451
O9    O     O_R   0.499990 0.714650 0.636900 -0.579453
O10   O     O_R   0.316750 0.500000 0.636870 -0.664534
O11   O     O_R   0.683250 0.500000 0.363130 -0.664537
O12   O     O_R   0.316770 0.500020 0.363120 -0.572778
O13   O     O_R   0.683230 0.499980 0.636880 -0.572784
O14   O     O_2   0.210565 0.152963 0.399707 -0.331937
S1    S     S_3+6 0.196464 0.129407 0.216979 -0.014887
S2    S     S_3+6 0.803552 0.870587 0.782976 -0.014922
Zn1   Zn    Zn3+2 0.499990 0.499990 0.682780 1.045751
Zn2   Zn    Zn3+2 0.500010 0.500010 0.317220 1.045752

loop_
_geom_bond_atom_site_label_1
_geom_bond_atom_site_label_2
_ccdc_geom_bond_type
C19   C21   A    
O10   Zn1   S    
C5    C7    A    
C15   H5    S    
C16   C21   A    
C2    O11   A    
C2    C18   S    
O11   Zn2   S    
C9    C11   A    
H3    O3    S    
O5    S2    D    
O13   Zn1   S    
C16   H12   S    
C4    C15   A    
C6    H7    S    
C1    C22   S    
C16   C18   A    
O4    S2    D    
C3    S1    S    
C12   C23   S    
O3    S1    S    
C8    C20   S    
C3    C14   A    
C12   O9    A    
C17   H2    S    
C8    C10   A    
C17   C19   A    
N1    N2    T    
C13   H11   S    
C10   H9    S    
C18   C20   A    
C13   C15   A    
C14   H1    S    
C24   O12   A    
C11   C14   A    
O12   Zn2   S    
C1    O8    A    
C4    C6    A    
C2    O13   A    
C1    O1    A    
C24   O10   A    
O6    S2    S    
C17   C20   A    
O14   S1    D    
O9    Zn1   S    
O2    S1    D    
C5    H6    S    
O8    Zn2   S    
C7    C9    A    
C22   C23   T    
C6    C8    A    
C9    H8    S    
C4    S2    S    
C7    C21   S    
N1    Zn2   S    
C19   C24   S    
H4    O6    S    
C11   H10   S    
O1    Zn1   S    
N2    Zn1   S    
O7    Zn2   S    
C12   O7    A    
C3    C5    A    
C10   C13   A    
