data_mof_unit_64455.cif
_audit_creation_date              2013-03-05T15:59:27-0500
_audit_creation_method            fapswitch 2.2
_symmetry_space_group_name_H-M    P1
_symmetry_Int_Tables_number       1
_space_group_crystal_system       triclinic
_cell_length_a                    21.444242
_cell_length_b                    29.412447
_cell_length_c                    29.410785
_cell_angle_alpha                 90.001151
_cell_angle_beta                  90.000285
_cell_angle_gamma                 89.988907
_cell_volume                      18550.1944055

loop_
_atom_site_label
_atom_site_type_symbol
_atom_site_description
_atom_site_fract_x
_atom_site_fract_y
_atom_site_fract_z
_atom_type_partial_charge
O1    O     O_R   0.000000 0.964120 0.061970 -0.567744
O2    O     O_R   1.000000 0.964120 0.938030 -0.561816
O3    O     O_R   0.500000 0.464120 0.561970 -0.561712
O4    O     O_R   0.500000 0.464120 0.438030 -0.567738
O5    O     O_R   0.000000 0.035860 0.061950 -0.567509
O6    O     O_R   0.000000 0.035860 0.938050 -0.563346
O7    O     O_R   0.500000 0.535860 0.561950 -0.563446
O8    O     O_R   0.500000 0.535860 0.438050 -0.567487
C1    C     C_R   1.000000 0.999996 0.085537 0.819276
C2    C     C_R   0.000000 0.999995 0.914465 0.842633
C3    C     C_R   0.500001 0.499995 0.585535 0.842572
C4    C     C_R   0.499999 0.499995 0.414463 0.819305
O9    O     O_R   0.091580 0.964120 0.000000 -0.584311
O10   O     O_R   0.908420 0.964120 0.000000 -0.583774
O11   O     O_R   0.591580 0.464120 0.500000 -0.584394
O12   O     O_R   0.408420 0.464120 0.500000 -0.583593
O13   O     O_R   0.091590 0.035860 0.000000 -0.584499
O14   O     O_R   0.908410 0.035860 0.000000 -0.585032
O15   O     O_R   0.591590 0.535860 0.500000 -0.584413
O16   O     O_R   0.408410 0.535860 0.500000 -0.585208
C5    C     C_R   0.121418 0.999985 0.000682 0.819806
C6    C     C_R   0.878581 0.999997 0.000652 0.819794
C7    C     C_R   0.621418 0.499984 0.499317 0.819805
C8    C     C_R   0.378580 0.499998 0.499368 0.819785
Cu1   Cu    Cu3+1 0.000000 0.957510 0.000000 0.960769
Cu2   Cu    Cu3+1 0.500000 0.457510 0.500000 0.960920
Cu3   Cu    Cu3+1 0.000000 0.042470 0.000000 0.958815
Cu4   Cu    Cu3+1 0.500000 0.542470 0.500000 0.958701
C9    C     C_3   0.229582 0.962764 0.022344 -0.172371
C10   C     C_3   0.770403 0.038736 0.019524 -0.173028
C11   C     C_3   0.770433 0.964034 0.024278 -0.171747
C12   C     C_3   0.229590 0.037612 0.021571 -0.172578
C13   C     C_3   0.729592 0.537419 0.478099 -0.172496
C14   C     C_3   0.270431 0.464476 0.475093 -0.171509
C15   C     C_3   0.270408 0.539082 0.481180 -0.173147
C16   C     C_3   0.729580 0.462567 0.477981 -0.172456
C17   C     C_3   0.270850 0.000401 0.043436 -0.149573
C18   C     C_3   0.729157 0.002739 0.043342 -0.149529
C19   C     C_3   0.770849 0.500017 0.456561 -0.149574
C20   C     C_3   0.229161 0.503516 0.456720 -0.149499
H1    H     H_    0.289173 0.000764 0.078737 0.145176
H2    H     H_    0.710838 0.004989 0.078576 0.145091
H3    H     H_    0.789172 0.500068 0.421257 0.145178
H4    H     H_    0.210844 0.506398 0.421531 0.145036
H5    H     H_    0.211428 0.932428 0.040483 0.145526
H6    H     H_    0.788520 0.070336 0.035383 0.146713
H7    H     H_    0.788615 0.934703 0.043995 0.144629
H8    H     H_    0.211448 0.068324 0.039083 0.145868
H9    H     H_    0.711448 0.567977 0.460321 0.145719
H10   H     H_    0.288618 0.435500 0.454858 0.144321
H11   H     H_    0.288524 0.570959 0.465888 0.146988
H12   H     H_    0.711426 0.432073 0.460107 0.145677
C21   C     C_3   0.310779 0.999947 0.000112 -0.004554
C22   C     C_3   0.689221 0.999996 0.000108 -0.004546
C23   C     C_3   0.810779 0.499941 0.499886 -0.004553
C24   C     C_3   0.189221 0.500008 0.499896 -0.004539
C25   C     C_3   0.270696 0.962205 0.979006 -0.186225
C26   C     C_3   0.729289 0.036092 0.976279 -0.187453
C27   C     C_3   0.729306 0.961182 0.981025 -0.185364
C28   C     C_3   0.270700 0.037261 0.978234 -0.186538
C29   C     C_3   0.770704 0.537446 0.521439 -0.186401
C30   C     C_3   0.229298 0.460858 0.518287 -0.185083
C31   C     C_3   0.229291 0.535673 0.524366 -0.187772
C32   C     C_3   0.770693 0.462387 0.521321 -0.186358
C33   C     C_3   0.229628 0.999525 0.957885 0.033378
C34   C     C_3   0.770362 0.997314 0.957953 0.033207
C35   C     C_3   0.729629 0.499893 0.542116 0.033380
C36   C     C_3   0.270355 0.496569 0.542002 0.033089
C37   C     C_3   0.189236 0.999973 0.000535 -0.032208
C38   C     C_3   0.810763 0.000022 0.000515 -0.032210
C39   C     C_3   0.689236 0.499969 0.499464 -0.032211
C40   C     C_3   0.310763 0.500031 0.499498 -0.032213
H13   H     H_    0.288899 0.931573 0.961376 0.136884
H14   H     H_    0.711078 0.065339 0.956439 0.138104
H15   H     H_    0.711099 0.929660 0.965055 0.136048
H16   H     H_    0.288906 0.067515 0.959975 0.137214
H17   H     H_    0.788912 0.567859 0.539433 0.137061
H18   H     H_    0.211081 0.429058 0.533690 0.135778
H19   H     H_    0.211084 0.564563 0.544724 0.138409
H20   H     H_    0.788893 0.431910 0.539220 0.137036
C41   C     C_1   1.000000 0.000006 0.136668 -0.208588
C42   C     C_1   0.000001 0.000001 0.863339 -0.171004
C43   C     C_1   0.500001 0.500003 0.636661 -0.171072
C44   C     C_1   0.500000 0.500004 0.363332 -0.208596
C45   C     C_1   1.000000 0.000007 0.179046 -0.000453
C46   C     C_1   0.000001 0.000001 0.820963 0.028612
C47   C     C_1   0.500001 0.500003 0.679037 0.028545
C48   C     C_1   0.500000 0.500005 0.320954 -0.000449
C49   C     C_1   1.000000 0.000005 0.229294 0.002927
C50   C     C_1   0.000001 0.999999 0.770715 0.018004
C51   C     C_1   0.500001 0.500000 0.729285 0.017981
C52   C     C_1   0.500000 0.500003 0.270705 0.002929
C53   C     C_1   0.999999 0.000002 0.271673 0.002867
C54   C     C_1   0.000001 0.999997 0.728336 0.012217
C55   C     C_1   0.500001 0.499998 0.771664 0.012207
C56   C     C_1   0.500000 0.500000 0.228327 0.002867
C57   C     C_1   0.999999 0.999998 0.321922 0.002382
C58   C     C_1   0.000001 0.999994 0.678084 0.008538
C59   C     C_1   0.500000 0.499995 0.821916 0.008532
C60   C     C_1   0.500000 0.499997 0.178078 0.002383
C61   C     C_1   1.000000 0.999994 0.364301 -0.187421
C62   C     C_1   0.000001 0.999992 0.635703 -0.183339
C63   C     C_1   0.500000 0.499992 0.864296 -0.183342
C64   C     C_1   0.500000 0.499994 0.135699 -0.187421
O17   O     O_R   0.500000 0.061920 0.964120 -0.563676
O18   O     O_R   0.500000 0.061920 0.035880 -0.565789
O19   O     O_R   1.000000 0.561920 0.464120 -0.565805
O20   O     O_R   0.000000 0.561920 0.535880 -0.563698
C65   C     C_R   0.499999 0.085497 0.000000 0.823088
C66   C     C_R   0.999999 0.585497 0.500001 0.823078
O21   O     O_R   0.408440 0.999940 0.964130 -0.581407
O22   O     O_R   0.591560 0.999940 0.035870 -0.587944
O23   O     O_R   0.591560 0.999940 0.964130 -0.581435
O24   O     O_R   0.408440 0.999940 0.035870 -0.587978
O25   O     O_R   0.908440 0.499940 0.464130 -0.587978
O26   O     O_R   0.091560 0.499940 0.535870 -0.581455
O27   O     O_R   0.091560 0.499940 0.464130 -0.587921
O28   O     O_R   0.908440 0.499940 0.535870 -0.581408
C67   C     C_R   0.378576 0.999936 0.000019 0.820677
C68   C     C_R   0.621424 0.999969 0.000018 0.820669
C69   C     C_R   0.878576 0.499932 0.499981 0.820680
C70   C     C_R   0.121424 0.499979 0.499982 0.820666
Cu5   Cu    Cu3+1 0.500000 0.999950 0.957510 0.962914
Cu6   Cu    Cu3+1 0.500000 0.999950 0.042490 0.947251
Cu7   Cu    Cu3+1 1.000000 0.499950 0.457510 0.947260
Cu8   Cu    Cu3+1 0.000000 0.499950 0.542490 0.962898
O29   O     O_R   0.500000 0.937960 0.964120 -0.563390
O30   O     O_R   0.500000 0.937960 0.035880 -0.565623
O31   O     O_R   1.000000 0.437960 0.464120 -0.565613
O32   O     O_R   0.000000 0.437960 0.535880 -0.563363
C71   C     C_R   0.500001 0.914390 0.999999 0.823371
C72   C     C_R   0.000001 0.414390 0.500000 0.823381
O33   O     O_R   0.053020 0.061970 0.500000 -0.556700
O34   O     O_R   0.946980 0.061970 0.500000 -0.556755
O35   O     O_R   0.553020 0.561970 0.000000 -0.556705
O36   O     O_R   0.446980 0.561970 0.000000 -0.556759
C73   C     C_R   0.999995 0.084541 0.500000 0.796677
C74   C     C_R   0.499995 0.584541 1.000000 0.796671
O37   O     O_R   0.053020 0.999990 0.438010 -0.557214
O38   O     O_R   0.946980 0.999990 0.561990 -0.556002
O39   O     O_R   0.946980 0.999990 0.438010 -0.557214
O40   O     O_R   0.053020 0.999990 0.561990 -0.555992
O41   O     O_R   0.553020 0.499990 0.938010 -0.555991
O42   O     O_R   0.446980 0.499990 0.061990 -0.557213
O43   O     O_R   0.446980 0.499990 0.938010 -0.556006
O44   O     O_R   0.553020 0.499990 0.061990 -0.557214
C75   C     C_R   1.000000 0.999991 0.415435 0.796003
C76   C     C_R   0.000000 0.999990 0.584566 0.797241
C77   C     C_R   0.500000 0.499990 0.915434 0.797242
C78   C     C_R   0.500000 0.499991 0.084564 0.796004
Cu9   Cu    Cu3+1 0.062770 0.999990 0.500000 0.967701
Cu10  Cu    Cu3+1 0.937230 0.999990 0.500000 0.967688
Cu11  Cu    Cu3+1 0.562770 0.499990 0.000000 0.967698
Cu12  Cu    Cu3+1 0.437230 0.499990 0.000000 0.967681
O45   O     O_R   0.053000 0.938010 0.500000 -0.556734
O46   O     O_R   0.947000 0.938010 0.500000 -0.556685
O47   O     O_R   0.553000 0.438010 0.000000 -0.556729
O48   O     O_R   0.447000 0.438010 0.000000 -0.556683
C79   C     C_R   0.000005 0.915427 0.500000 0.796724
C80   C     C_R   0.500005 0.415427 1.000000 0.796731
C81   C     C_1   0.500003 0.136634 1.000000 -0.207664
C82   C     C_1   0.000002 0.636634 0.500003 -0.207671
C83   C     C_1   0.500006 0.179015 0.999999 0.002003
C84   C     C_1   0.000005 0.679015 0.500003 0.001984
C85   C     C_1   0.500010 0.229269 0.999999 0.005032
C86   C     C_1   0.000010 0.729269 0.500003 0.005013
C87   C     C_1   0.000013 0.771650 0.500003 0.004732
C88   C     C_1   0.500013 0.271650 0.999999 0.004749
C89   C     C_1   0.000015 0.821905 0.500002 0.004167
C90   C     C_1   0.500015 0.321905 0.999999 0.004182
C91   C     C_1   0.000014 0.864287 0.500001 -0.186029
C92   C     C_1   0.500014 0.364287 0.999999 -0.186018
C93   C     C_1   0.499997 0.863268 0.999997 -0.207562
C94   C     C_1   0.999998 0.363268 0.500000 -0.207553
C95   C     C_1   0.499994 0.820895 0.999996 0.002077
C96   C     C_1   0.999995 0.320895 0.500001 0.002099
C97   C     C_1   0.499990 0.770655 0.999996 0.005194
C98   C     C_1   0.999990 0.270655 0.500001 0.005216
C99   C     C_1   0.999987 0.228282 0.500001 0.004863
C100  C     C_1   0.499987 0.728282 0.999997 0.004844
C101  C     C_1   0.999985 0.178040 0.500001 0.004136
C102  C     C_1   0.499985 0.678040 0.999998 0.004118
C103  C     C_1   0.999986 0.135667 0.500001 -0.185907
C104  C     C_1   0.499986 0.635667 0.999999 -0.185921
C105  C     C_1   0.205596 0.999050 0.911183 0.209716
N1    N     N_1   0.186543 0.998676 0.874378 -0.280887
C106  C     C_1   0.794378 0.994371 0.911337 0.209770
N2    N     N_1   0.813421 0.992051 0.874599 -0.280783
C107  C     C_1   0.705597 0.499827 0.588820 0.209721
N3    N     N_1   0.686545 0.499774 0.625627 -0.280878
C108  C     C_1   0.294362 0.492798 0.588561 0.209809
N4    N     N_1   0.313399 0.489827 0.625255 -0.280702

loop_
_geom_bond_atom_site_label_1
_geom_bond_atom_site_label_2
_geom_bond_distance
_ccdc_geom_bond_type
O35   C74   1.316575 A    
C43   C47   1.246308 T    
C23   C69   1.453854 S    
O33   C73   1.316575 A    
O25   C69   1.233659 A    
C22   C68   1.453856 S    
C89   C91   1.246558 T    
C65   C81   1.504055 S    
C59   C63   1.246453 T    
O33   Cu9   1.834891 S    
C60   C64   1.246403 T    
O38   C76   1.316655 A    
O34   C73   1.316610 A    
C98   C99   1.246297 T    
C66   C82   1.504055 S    
Cu5   Cu6   2.499326 S    
C87   C89   1.478117 S    
C31   H19   1.110335 S    
O7    C3    1.262499 A    
O37   C75   1.316632 A    
C13   C19   1.547196 S    
C16   C19   1.547191 S    
O26   C70   1.234577 A    
C17   H1    1.110163 S    
C14   C20   1.547047 S    
C83   C85   1.478093 S    
O22   Cu6   1.973066 S    
C47   C51   1.477833 S    
C27   C34   1.537973 S    
C55   C59   1.477936 S    
O41   Cu11  1.835123 S    
C9    C17   1.547170 S    
C54   C58   1.477936 S    
C25   H13   1.110324 S    
C23   C29   1.535195 S    
C14   C30   1.550258 S    
C4    C44   1.503794 S    
O21   C67   1.234603 A    
C57   C61   1.246403 T    
C64   C78   1.503897 S    
O42   C78   1.316632 A    
C62   C76   1.503988 S    
C32   H20   1.110331 S    
C15   C31   1.549440 S    
C26   C34   1.538424 S    
C11   C38   1.535305 S    
C19   C23   1.535203 S    
Cu10  O46   1.834946 S    
C29   H17   1.110330 S    
C20   C24   1.535177 S    
O23   Cu5   1.973064 S    
Cu9   Cu10  2.692108 S    
Cu11  O47   1.835026 S    
Cu9   O45   1.835026 S    
O4    C4    1.262479 A    
C74   C104  1.503744 S    
O38   Cu10  1.835120 S    
C20   H4    1.110187 S    
C82   C84   1.246523 T    
O24   C67   1.233659 A    
C16   H12   1.110151 S    
C16   C39   1.535411 S    
C36   C40   1.524450 S    
Cu6   O30   1.833608 S    
O31   C72   1.262613 A    
O24   Cu6   1.973066 S    
O11   C7    1.234011 A    
O12   C8    1.234147 A    
C11   H7    1.110158 S    
C34   C106  1.467113 S    
O1    Cu1   1.832919 S    
C12   H8    1.110151 S    
C10   C26   1.549530 S    
O9    Cu1   1.973499 S    
C81   C83   1.246523 T    
C21   C28   1.535198 S    
C100  C102  1.477720 S    
C50   C54   1.246417 T    
C9    C37   1.535390 S    
C22   C27   1.535172 S    
O46   C79   1.316378 A    
C52   C56   1.246391 T    
O12   Cu2   1.973426 S    
C33   C105  1.467103 S    
C14   H10   1.110164 S    
C10   C18   1.547378 S    
O21   Cu5   1.973068 S    
C108  N4    1.157129 T    
O13   Cu3   1.973639 S    
C32   C35   1.538184 S    
O16   C8    1.233836 A    
O1    C1    1.262475 A    
O19   Cu7   1.833023 S    
C95   C97   1.477696 S    
C46   C50   1.477833 S    
C101  C103  1.246311 T    
O22   C68   1.233672 A    
Cu8   O32   1.833608 S    
C45   C49   1.477845 S    
O15   C7    1.233996 A    
O11   Cu2   1.973499 S    
C19   H3    1.110162 S    
O16   Cu4   1.973717 S    
C36   C108  1.467106 S    
C3    C43   1.503659 S    
C42   C46   1.246308 T    
O45   C79   1.316415 A    
C71   C93   1.503641 S    
O13   C5    1.233977 A    
O7    Cu4   1.832346 S    
C9    H5    1.110155 S    
O28   C69   1.234601 A    
C24   C70   1.453852 S    
O40   Cu9   1.835122 S    
O32   C72   1.262588 A    
O27   C70   1.233679 A    
O5    C1    1.262535 A    
C63   C77   1.503988 S    
C7    C39   1.454299 S    
O37   Cu9   1.835123 S    
O23   C68   1.234589 A    
O36   Cu12  1.834972 S    
C28   C33   1.538226 S    
C29   C35   1.538188 S    
C53   C57   1.477863 S    
Cu5   O29   1.833616 S    
O6    Cu3   1.832337 S    
C18   C22   1.535186 S    
O41   C77   1.316655 A    
O8    C4    1.262531 A    
C97   C100  1.246300 T    
O34   Cu10  1.834972 S    
C23   C32   1.535183 S    
C35   C107  1.467105 S    
C80   C92   1.504161 S    
C24   C31   1.535248 S    
O9    C5    1.234029 A    
C48   C52   1.477845 S    
C12   C17   1.547221 S    
O15   Cu4   1.973640 S    
C8    C40   1.454304 S    
O40   C76   1.316655 A    
O20   C66   1.262716 A    
C93   C95   1.246276 T    
C79   C91   1.504161 S    
O43   Cu12  1.835125 S    
O36   C74   1.316610 A    
C9    C25   1.549909 S    
C15   C40   1.535592 S    
C85   C88   1.246547 T    
C28   H16   1.110327 S    
C15   H11   1.110149 S    
C86   C87   1.246544 T    
O8    Cu4   1.832338 S    
O19   C66   1.262730 A    
C24   C30   1.535173 S    
Cu1   Cu3   2.498881 S    
C12   C28   1.549789 S    
O18   Cu6   1.833031 S    
O2    C2    1.262426 A    
O30   C71   1.262607 A    
C27   H15   1.110325 S    
C26   H14   1.110332 S    
C22   C26   1.535237 S    
C11   C27   1.550171 S    
O42   Cu12  1.835120 S    
O17   C65   1.262713 A    
C31   C36   1.538486 S    
C61   C75   1.503897 S    
C21   C25   1.535183 S    
O14   C6    1.233880 A    
C30   H18   1.110331 S    
O3    Cu2   1.832919 S    
O14   Cu3   1.973717 S    
C44   C48   1.246370 T    
C25   C33   1.538158 S    
O35   Cu11  1.834891 S    
O6    C2    1.262499 A    
C72   C94   1.503641 S    
O4    Cu2   1.832930 S    
C21   C67   1.453860 S    
O44   C78   1.316632 A    
C12   C37   1.535427 S    
C73   C103  1.503747 S    
C30   C36   1.537918 S    
O47   C80   1.316415 A    
C34   C38   1.524443 S    
Cu2   Cu4   2.498881 S    
O25   Cu7   1.973068 S    
C11   C18   1.547062 S    
C10   H6    1.110147 S    
O10   C6    1.234112 A    
O29   C71   1.262594 A    
C84   C86   1.478096 S    
C15   C20   1.547429 S    
C17   C21   1.535200 S    
C106  N2    1.157100 T    
C58   C62   1.246453 T    
O48   C80   1.316378 A    
O5    Cu3   1.832345 S    
C105  N1    1.157066 T    
Cu7   Cu8   2.499326 S    
O44   Cu11  1.835122 S    
C90   C92   1.246558 T    
C33   C37   1.524429 S    
C56   C60   1.477863 S    
C88   C90   1.478117 S    
C94   C96   1.246276 T    
C2    C42   1.503659 S    
O2    Cu1   1.832930 S    
C35   C39   1.524432 S    
O10   Cu1   1.973426 S    
C49   C53   1.246391 T    
C107  N3    1.157056 T    
C102  C104  1.246311 T    
O3    C3    1.262422 A    
O39   C75   1.316632 A    
C14   C40   1.535278 S    
C51   C55   1.246417 T    
C18   H2    1.110178 S    
Cu7   O31   1.833616 S    
C10   C38   1.535541 S    
C13   C29   1.549837 S    
C13   C39   1.535405 S    
C13   H9    1.110156 S    
C5    C37   1.454299 S    
Cu12  O48   1.834946 S    
O43   C77   1.316655 A    
O26   Cu8   1.973066 S    
O28   Cu8   1.973066 S    
O17   Cu5   1.833023 S    
O20   Cu8   1.833031 S    
Cu11  Cu12  2.692108 S    
C16   C32   1.549868 S    
O27   Cu7   1.973064 S    
C6    C38   1.454300 S    
C41   C45   1.246370 T    
O39   Cu10  1.835125 S    
C1    C41   1.503794 S    
C96   C98   1.477696 S    
C99   C101  1.477720 S    
O18   C65   1.262734 A    
