data_mof_unit_38691.cif
_audit_creation_date              2012-12-11T17:10:36-0500
_audit_creation_method            fapswitch 2.2
_symmetry_space_group_name_H-M    P1
_symmetry_Int_Tables_number       1
_space_group_crystal_system       triclinic
_cell_length_a                    14.836962
_cell_length_b                    14.971931
_cell_length_c                    14.990429
_cell_angle_alpha                 109.599522
_cell_angle_beta                  110.159467
_cell_angle_gamma                 109.067496
_cell_volume                      2550.07470912

loop_
_atom_site_label
_atom_site_type_symbol
_atom_type_description
_atom_site_fract_x
_atom_site_fract_y
_atom_site_fract_z
_atom_type_partial_charge
C1    C     C_R   0.185433 0.279360 0.254676 -0.142097
C2    C     C_R   0.454725 0.545050 0.229517 -0.126221
C3    C     C_R   0.557814 0.815750 0.592861 -0.141531
C4    C     C_R   0.598587 0.506092 0.804019 -0.142891
C5    C     C_R   0.728992 0.456524 0.413714 -0.130306
C6    C     C_R   0.533082 0.826381 0.500282 0.053591
C7    C     C_R   0.833954 0.532375 0.508163 0.103861
C8    C     C_R   0.525434 0.522703 0.197133 0.070168
C9    C     C_R   0.801701 0.803766 0.868596 0.073276
C10   C     C_R   0.092440 0.610130 0.185650 -0.119691
C11   C     C_R   0.098579 0.632065 0.286495 -0.156843
C12   C     C_R   0.567983 0.565532 0.866989 0.070281
C13   C     C_R   0.019927 0.554343 0.292506 0.161785
C14   C     C_R   0.934875 0.454628 0.195663 -0.184124
C15   C     C_R   0.929094 0.433179 0.095004 -0.124567
C16   C     C_R   0.509116 0.203425 0.410119 -0.171609
C17   C     C_R   0.007661 0.510918 0.089950 -0.098362
C18   C     C_R   0.933271 0.556982 0.408060 -0.240780
C19   C     C_R   0.939235 0.581227 0.509800 0.001935
C20   C     C_R   0.045394 0.653738 0.607397 -0.152370
C21   C     C_R   0.139900 0.685559 0.598191 0.572720
C22   C     C_R   0.129173 0.623969 0.496933 -0.145068
C23   C     C_R   0.575404 0.203826 0.501839 0.010714
C24   C     C_R   0.027985 0.577627 0.400158 -0.017146
C25   C     C_R   0.076626 0.793259 0.781035 -0.139399
C26   C     C_R   0.110558 0.835479 0.892732 -0.155817
C27   C     C_R   0.135535 0.777756 0.945252 0.109593
C28   C     C_R   0.293132 0.599334 0.589703 -0.127140
C29   C     C_R   0.122250 0.675177 0.883744 -0.170337
C30   C     C_R   0.088103 0.632858 0.772173 -0.157028
C31   C     C_R   0.065537 0.691810 0.720358 0.192237
C32   C     C_R   0.655947 0.549179 0.029377 0.168407
C33   C     C_R   0.606154 0.599093 0.981955 0.025901
C34   C     C_R   0.204063 0.578346 0.497549 0.096842
C35   C     C_R   0.570606 0.661440 0.038844 -0.193779
C36   C     C_R   0.553982 0.645303 0.119472 -0.208599
C37   C     C_R   0.574857 0.568619 0.143453 0.034663
C38   C     C_R   0.640219 0.534052 0.109559 0.172937
C39   C     C_3   0.633409 0.424829 0.067182 -0.533185
C40   C     C_R   0.599492 0.294493 0.592465 0.069308
C41   C     C_3   0.650282 0.440838 0.979185 -0.520385
C42   C     C_R   0.518504 0.923088 0.398344 0.127318
C43   C     C_R   0.573160 0.926180 0.496808 0.052514
C44   C     C_R   0.656136 0.026683 0.592261 -0.196782
C45   C     C_R   0.457286 0.723762 0.408689 -0.130829
C46   C     C_R   0.673879 0.123291 0.591309 -0.205703
C47   C     C_R   0.605468 0.119504 0.496186 0.051877
C48   C     C_R   0.534944 0.019223 0.398001 0.142277
C49   C     C_3   0.548925 0.984238 0.300123 -0.489855
C50   C     C_3   0.529702 0.879054 0.299847 -0.501102
C51   C     C_R   0.966183 0.074559 0.122798 0.139153
C52   C     C_R   0.202767 0.509744 0.407599 -0.155013
C53   C     C_R   0.066331 0.075420 0.169499 0.040633
C54   C     C_R   0.061861 0.973935 0.142722 -0.206654
C55   C     C_R   0.967054 0.878103 0.049994 -0.187098
C56   C     C_R   0.817337 0.555714 0.596703 -0.153114
C57   C     C_R   0.877069 0.884543 0.985812 0.010607
C58   C     C_R   0.871965 0.979768 0.032919 0.131651
C59   C     C_3   0.833912 0.042284 0.983744 -0.187030
C60   C     C_3   0.937866 0.145753 0.081558 -0.586059
C61   C     C_R   0.503066 0.593571 0.803298 -0.124405
C62   C     C_R   0.275526 0.185329 0.249925 -0.131977
C63   C     C_R   0.172140 0.175894 0.225157 0.071008
C64   C     C_3   0.298998 0.845758 0.674724 -0.289197
C65   C     C_R   0.547897 0.454800 0.232702 -0.140764
C66   C     C_R   0.706954 0.799047 0.803200 -0.166458
C67   C     C_R   0.801575 0.711065 0.805829 -0.127000
H1    H     H_    0.124527 0.303869 0.252655 0.116890
H2    H     H_    0.153672 0.670006 0.181859 0.100399
H3    H     H_    0.164866 0.709337 0.359943 0.109693
H4    H     H_    0.665606 0.490434 0.833845 0.116193
H5    H     H_    0.874251 0.392747 0.198253 0.104463
H6    H     H_    0.863798 0.356096 0.020920 0.109801
H7    H     H_    0.854857 0.519059 0.333747 0.128904
H8    H     H_    0.061291 0.840388 0.742421 0.116281
H9    H     H_    0.119899 0.914334 0.939181 0.127470
H10   H     H_    0.140662 0.629111 0.922601 0.107528
H11   H     H_    0.081743 0.555373 0.726631 0.114925
H12   H     H_    0.876117 0.607392 0.683113 0.118796
H13   H     H_    0.540358 0.709392 0.011280 0.131875
H14   H     H_    0.485463 0.152207 0.326083 0.105844
H15   H     H_    0.512875 0.682410 0.152052 0.127763
H16   H     H_    0.704079 0.425105 0.126032 0.190833
H17   H     H_    0.549912 0.355596 0.032841 0.198281
H18   H     H_    0.730564 0.450187 0.987079 0.199849
H19   H     H_    0.576245 0.379807 0.895740 0.201870
H20   H     H_    0.703680 0.031165 0.668534 0.122361
H21   H     H_    0.736513 0.198835 0.666793 0.121632
H22   H     H_    0.481348 0.972489 0.226981 0.181440
H23   H     H_    0.591579 0.414044 0.214267 0.098405
H24   H     H_    0.634189 0.035606 0.319473 0.199050
H25   H     H_    0.450414 0.806847 0.227099 0.175545
H26   H     H_    0.326761 0.656532 0.674853 0.161641
H27   H     H_    0.603464 0.868236 0.318372 0.205339
H28   H     H_    0.135085 0.969891 0.183588 0.135240
H29   H     H_    0.970242 0.803205 0.022035 0.139802
H30   H     H_    0.830254 0.024408 0.903889 0.152127
H31   H     H_    0.995237 0.184889 0.057059 0.197293
H32   H     H_    0.922714 0.202476 0.136738 0.192816
H33   H     H_    0.153310 0.484859 0.322722 0.122144
H34   H     H_    0.668999 0.844372 0.829899 0.118313
H35   H     H_    0.477098 0.651932 0.830533 0.093284
H36   H     H_    0.296342 0.121229 0.238921 0.094150
H37   H     H_    0.411594 0.705005 0.325428 0.092193
H38   H     H_    0.247629 0.881051 0.645449 0.138770
H39   H     H_    0.325681 0.814487 0.615968 0.147725
H40   H     H_    0.374929 0.913032 0.754113 0.175800
H41   H     H_    0.252387 0.896150 0.101856 0.092717
H42   H     H_    0.190912 0.772462 0.087689 0.085199
H43   H     H_    0.740204 0.054831 0.058184 0.127866
H44   H     H_    0.721518 0.095291 0.964199 0.115757
H45   H     H_    0.854548 0.680274 0.836157 0.093691
H46   H     H_    0.659590 0.288737 0.732650 0.092817
H47   H     H_    0.758641 0.362636 0.711567 0.088542
H48   H     H_    0.410884 0.584566 0.203798 0.084319
H49   H     H_    0.610790 0.879692 0.678286 0.096373
H50   H     H_    0.712292 0.409516 0.332046 0.081210
H51   H     H_    0.003056 0.494160 0.011948 0.096590
N1    N     N_R   0.291070 0.347930 0.293870 -0.042653
N2    N     N_R   0.497240 0.291100 0.443210 -0.045974
N3    N     N_R   0.347890 0.554050 0.556810 -0.048954
N4    N     N_R   0.554050 0.347900 0.556830 -0.046834
N5    N     N_R   0.291070 0.497250 0.443190 -0.043867
N6    N     N_R   0.497240 0.554030 0.706140 -0.041024
N7    N     N_R   0.347890 0.291110 0.293870 -0.040699
N8    N     N_R   0.445950 0.652100 0.443170 -0.037409
N9    N     N_3   0.175793 0.824990 0.061065 -0.229933
N10   N     N_3   0.732232 0.035941 0.981023 -0.218951
N11   N     N_3   0.681438 0.343255 0.704948 -0.232343
N12   N     N_R   0.708930 0.502750 0.556810 -0.042451
N13   N     N_R   0.502760 0.445970 0.293860 -0.039259
N14   N     N_R   0.652110 0.708890 0.706130 -0.036542
N15   N     N_R   0.708930 0.652070 0.706130 -0.038606
N16   N     N_R   0.445950 0.502780 0.293850 -0.038978
N17   N     N_R   0.502760 0.708900 0.556790 -0.038344
N18   N     N_R   0.652110 0.445950 0.443190 -0.038985
N19   N     N_R   0.554050 0.497220 0.706150 -0.038351
Ni1   Ni    Ni4+2 0.369690 0.500010 0.369700 0.213151
Ni2   Ni    Ni4+2 0.630310 0.499990 0.630300 0.212252
Ni3   Ni    Ni4+2 0.500000 0.369720 0.369720 0.208354
Ni4   Ni    Ni4+2 0.500000 0.630280 0.630280 0.209351
O1    O     O_3   0.242438 0.763527 0.692579 -0.627705

loop_
_geom_bond_atom_site_label_1
_geom_bond_atom_site_label_2
_ccdc_geom_bond_type
C25   C31   A    
C5    N18   A    
C40   N11   S    
C6    C45   A    
C27   C29   A    
C53   C63   S    
C35   C36   A    
N18   Ni3   S    
C3    C6    A    
C11   H3    S    
C64   H38   S    
C39   C41   S    
C53   C54   A    
C41   H19   S    
N19   Ni2   S    
N5    Ni1   S    
C26   C27   A    
C37   C38   A    
C56   H12   S    
H46   N11   S    
C61   N6    A    
C18   C24   A    
C36   C37   A    
C67   N15   A    
N4    Ni2   S    
C60   H31   S    
C3    H49   S    
C16   N2    A    
C30   C31   A    
C52   N5    A    
C10   C17   A    
C23   C40   A    
C35   H13   S    
C1    H1    S    
C18   C19   A    
C1    N1    A    
C9    C66   A    
N13   Ni3   S    
C4    N19   A    
C46   C47   A    
C27   N9    S    
H42   N9    S    
C19   C20   A    
C36   H15   S    
N14   N15   A    
C26   H9    S    
C32   C41   S    
N2    Ni3   S    
C32   C38   A    
C4    C12   A    
C44   H20   S    
C66   N14   A    
N13   N16   A    
C28   C34   A    
C59   C60   S    
C18   H7    S    
C13   C14   A    
C66   H34   S    
C7    C56   A    
C49   H24   S    
N12   Ni2   S    
C1    C63   A    
C65   N13   A    
C44   C46   A    
C46   H21   S    
N7    Ni3   S    
C65   H23   S    
C22   C34   S    
N12   N18   A    
C3    N17   A    
C23   C47   S    
N3    Ni4   S    
N6    N19   A    
C5    C7    A    
C28   N3    A    
C50   H27   S    
C39   H17   S    
C25   C26   A    
C52   H33   S    
C13   C24   S    
C5    H50   S    
C28   H26   S    
C25   H8    S    
C43   C44   A    
C9    C67   A    
C62   C63   A    
C45   H37   S    
C2    H48   S    
C47   C48   A    
N17   Ni4   S    
C45   N8    A    
C51   C58   A    
C42   C48   A    
C54   H28   S    
C17   H51   S    
C42   C50   S    
N1    N7    A    
C50   H25   S    
C48   C49   S    
C15   H6    S    
N8    N17   A    
N15   Ni2   S    
C16   C23   A    
C7    C19   S    
C6    C43   S    
C55   C57   A    
C59   H30   S    
H47   N11   S    
C22   C24   A    
N6    Ni4   S    
C58   C59   S    
C8    C37   S    
C21   O1    S    
C40   N4    A    
N2    N4    A    
C64   H40   S    
C62   H36   S    
N14   Ni4   S    
C15   C17   A    
C54   C55   A    
N8    Ni1   S    
N1    Ni1   S    
C14   H5    S    
C2    C8    A    
C49   H22   S    
C55   H29   S    
N16   Ni1   S    
C62   N7    A    
C2    N16   A    
C64   H39   S    
C41   H18   S    
C34   C52   A    
C32   C33   A    
C60   H32   S    
C61   H35   S    
C59   N10   S    
C39   H16   S    
C12   C61   A    
C11   C13   A    
C57   C58   A    
C38   C39   S    
C64   O1    S    
C16   H14   S    
C33   C35   A    
C9    C57   S    
H41   N9    S    
N3    N5    A    
C10   C11   A    
C29   C30   A    
C30   H11   S    
C10   H2    S    
C67   H45   S    
C8    C65   A    
C29   H10   S    
C20   C21   A    
C49   C50   S    
C42   C43   A    
H44   N10   S    
C14   C15   A    
C51   C60   S    
C51   C53   A    
C12   C33   S    
C21   C22   A    
C4    H4    S    
C56   N12   A    
H43   N10   S    
C20   C31   S    
