data_mof_unit_30904.cif
_audit_creation_date              2012-12-10T16:39:33-0500
_audit_creation_method            fapswitch 2.2
_symmetry_space_group_name_H-M    P1
_symmetry_Int_Tables_number       1
_space_group_crystal_system       triclinic
_cell_length_a                    16.729903
_cell_length_b                    16.716988
_cell_length_c                    16.818514
_cell_angle_alpha                 65.445495
_cell_angle_beta                  65.507269
_cell_angle_gamma                 65.272998
_cell_volume                      3717.38971625

loop_
_atom_site_label
_atom_site_type_symbol
_atom_type_description
_atom_site_fract_x
_atom_site_fract_y
_atom_site_fract_z
_atom_type_partial_charge
C1    C     C_R   0.327229 0.945150 0.461505 0.037137
C2    C     C_R   0.327632 0.462077 0.942302 0.014240
C3    C     C_R   0.551416 0.417297 0.975556 -0.023881
C4    C     C_R   0.019732 0.449899 0.585463 -0.023863
C5    C     C_R   0.982109 0.550002 0.414711 -0.021892
C6    C     C_R   0.057728 0.671743 0.539388 -0.006850
C7    C     C_R   0.945091 0.327857 0.460162 0.012061
C8    C     C_R   0.445637 0.001210 0.452995 0.000914
C9    C     C_R   0.536381 0.036789 0.538141 -0.001790
C10   C     C_R   0.974626 0.459951 0.458873 -0.001297
C11   C     C_R   0.027683 0.539769 0.541045 -0.002370
C12   C     C_R   0.460425 0.460944 0.970491 -0.002514
C13   C     C_R   0.540257 0.542063 0.024978 -0.002990
C14   C     C_R   0.961850 0.180058 0.437866 0.933822
C15   C     C_R   0.668352 0.068178 0.535690 0.027794
C16   C     C_R   0.039110 0.819955 0.561791 0.912620
C17   C     C_R   0.180008 0.438337 0.960852 0.931945
C18   C     C_R   0.819943 0.561816 0.039005 0.920019
C19   C     C_R   0.430520 0.978110 0.177226 0.948940
C20   C     C_R   0.562495 0.037422 0.820260 0.922883
C21   C     C_R   0.560593 0.819951 0.041345 0.936389
C22   C     C_R   0.439076 0.180197 0.959309 0.918230
C23   C     C_R   0.039829 0.561269 0.820024 0.925033
C24   C     C_R   0.960605 0.438648 0.180045 0.918021
C25   C     C_R   0.819806 0.040672 0.560986 0.926239
C26   C     C_R   0.940530 0.463872 0.328173 0.031039
C27   C     C_R   0.179984 0.958892 0.439558 0.913779
C28   C     C_R   0.401041 0.982953 0.409933 -0.024181
C29   C     C_R   0.582444 0.051381 0.582796 -0.007030
C30   C     C_R   0.954137 0.417123 0.415354 -0.025360
C31   C     C_R   0.048072 0.582732 0.584467 -0.007802
C32   C     C_R   0.417460 0.417342 0.950147 -0.025119
C33   C     C_R   0.582935 0.584628 0.046965 -0.008193
C34   C     C_R   0.280883 0.934015 0.413202 -0.149065
C35   C     C_R   0.718148 0.070132 0.586943 -0.144622
C36   C     C_R   0.933280 0.413354 0.280793 -0.148709
C37   C     C_R   0.060842 0.536346 0.671885 0.022374
C38   C     C_R   0.067755 0.586839 0.719314 -0.142346
C39   C     C_R   0.413725 0.281713 0.930215 -0.140020
C40   C     C_R   0.585946 0.718594 0.070301 -0.148877
C41   C     C_R   0.589484 0.062640 0.720365 -0.163421
C42   C     C_R   0.392882 0.972825 0.273056 -0.120844
C43   C     C_R   0.719128 0.588261 0.065590 -0.164405
C44   C     C_R   0.280830 0.412349 0.933689 -0.143174
C45   C     C_R   0.066148 0.718895 0.588575 -0.166101
C46   C     C_R   0.936241 0.280990 0.411029 -0.140912
C47   C     C_R   0.446308 0.053988 0.712930 0.109755
C48   C     C_R   0.464456 0.329893 0.936017 0.024538
C49   C     C_R   0.484888 0.064494 0.263414 0.103240
C50   C     C_R   0.064913 0.707913 0.444566 0.106747
C51   C     C_R   0.939202 0.291015 0.554356 0.134910
C52   C     C_R   0.710645 0.445061 0.057585 0.108330
C53   C     C_R   0.290098 0.556783 0.937555 0.132668
C54   C     C_R   0.302067 0.920062 0.558208 0.101607
C55   C     C_R   0.696090 0.092844 0.438657 0.089985
C56   C     C_R   0.561391 0.297559 0.920634 0.095506
C57   C     C_R   0.439268 0.704872 0.075560 0.103212
C58   C     C_R   0.926963 0.560569 0.295384 0.106728
C59   C     C_R   0.535769 0.671341 0.062486 0.024100
C60   C     C_R   0.073665 0.439874 0.705253 0.107742
C61   C     C_R   0.326977 0.926765 0.326128 -0.002501
C62   C     C_R   0.671387 0.084607 0.672052 0.012198
C63   C     C_R   0.916249 0.329119 0.328637 0.003355
C64   C     C_R   0.085593 0.670839 0.671529 0.012128
C65   C     C_R   0.329158 0.329596 0.913331 0.000472
C66   C     C_R   0.670360 0.670398 0.087542 0.008264
C67   C     C_R   0.649169 0.080555 0.391763 0.032276
C68   C     C_R   0.338567 0.948702 0.601813 0.013789
C69   C     C_R   0.042757 0.398496 0.668578 0.029591
C70   C     C_R   0.540114 0.053191 0.674090 -0.013232
C71   C     C_R   0.957394 0.602123 0.332487 0.011023
C72   C     C_R   0.398006 0.669167 0.043340 0.029332
C73   C     C_R   0.604242 0.336073 0.948174 0.006514
C74   C     C_R   0.543451 0.066134 0.304034 0.027000
C75   C     C_R   0.413321 0.012780 0.679962 0.035988
C76   C     C_R   0.322674 0.593321 0.976662 0.023280
C77   C     C_R   0.679016 0.411391 0.015566 0.034527
C78   C     C_R   0.978609 0.322980 0.590976 0.023527
C79   C     C_R   0.025318 0.676000 0.408390 0.037801
C80   C     C_R   0.676476 0.100756 0.294990 0.059468
C81   C     C_R   0.426693 0.007227 0.314145 0.002254
C82   C     C_R   0.303241 0.942042 0.696595 0.085156
C83   C     C_R   0.036222 0.307124 0.710803 0.060543
C84   C     C_R   0.962518 0.694103 0.291556 0.084009
C85   C     C_R   0.306752 0.712246 0.036423 0.061284
C86   C     C_R   0.698082 0.297735 0.947914 0.077399
C87   C     C_R   0.622562 0.096003 0.251739 0.052683
C88   C     C_R   0.337418 0.977996 0.733987 0.062746
C89   C     C_R   0.269828 0.674676 0.002881 0.054261
C90   C     C_R   0.733935 0.333217 0.984101 0.050049
C91   C     C_R   0.004477 0.269862 0.671990 0.054802
C92   C     C_R   0.672696 0.539519 0.054970 -0.006681
C93   C     C_R   0.999399 0.729182 0.327143 0.063372
C94   C     C_R   0.521215 0.037158 0.400106 -0.020630
C95   C     C_R   0.455171 0.010207 0.589154 -0.015628
C96   C     C_R   0.991998 0.410571 0.544749 -0.022601
C97   C     C_R   0.010590 0.589005 0.455141 -0.017649
C98   C     C_R   0.410575 0.546560 0.989559 -0.023257
C99   C     C_R   0.590531 0.457363 0.004350 -0.016091
C100  C     C_R   0.570559 0.049193 0.443451 -0.024869
C101  C     C_R   0.413298 0.986093 0.548146 -0.024594
C102  C     C_R   0.449824 0.586579 0.018357 -0.023793
H1    H     H_    0.365099 0.825172 0.271329 0.180626
H2    H     H_    0.343710 0.250986 0.840424 0.165239
H3    H     H_    0.655565 0.749216 0.161425 0.177565
H4    H     H_    0.736333 0.651114 0.173358 0.177188
H5    H     H_    0.257708 0.037686 0.835977 0.180325
H6    H     H_    0.349426 0.944733 0.860700 0.205185
H7    H     H_    0.717480 0.069988 0.134191 0.176695
H8    H     H_    0.655492 0.183038 0.124525 0.193592
H9    H     H_    0.070322 0.822982 0.249609 0.186276
H10   H     H_    0.971667 0.858683 0.331366 0.200575
H11   H     H_    0.965893 0.163003 0.778136 0.165930
H12   H     H_    0.260591 0.839567 0.342804 0.167122
H13   H     H_    0.074687 0.133667 0.707916 0.188298
H14   H     H_    0.835427 0.254761 0.045861 0.178736
H15   H     H_    0.861272 0.344643 0.952222 0.207161
H16   H     H_    0.163402 0.783350 0.964724 0.168706
H17   H     H_    0.134112 0.710184 0.071418 0.187023
H18   H     H_    0.173882 0.952903 0.783390 0.187691
H19   H     H_    0.251718 0.847678 0.808367 0.198341
H20   H     H_    0.744524 0.189898 0.193388 0.197140
H21   H     H_    0.804320 0.076175 0.204094 0.181105
H22   H     H_    0.812963 0.240199 0.859745 0.198541
H23   H     H_    0.748768 0.159829 0.657060 0.185702
H24   H     H_    0.783505 0.166634 0.965635 0.187572
H25   H     H_    0.192013 0.786965 0.111473 0.181424
H26   H     H_    0.234923 0.848052 0.001952 0.191334
H27   H     H_    0.879631 0.810622 0.227849 0.201712
H28   H     H_    0.987284 0.774734 0.159751 0.185883
H29   H     H_    0.111030 0.192655 0.786547 0.182163
H30   H     H_    0.999540 0.235455 0.845236 0.190782
H31   H     H_    0.356440 0.104787 0.821734 0.212678
H32   H     H_    0.407714 0.180531 0.730497 0.168099
H33   H     H_    0.522265 0.128333 0.125672 0.257589
H34   H     H_    0.651463 0.171517 0.736846 0.178162
H35   H     H_    0.451822 0.199841 0.190758 0.183078
H36   H     H_    0.116134 0.818068 0.361525 0.213184
H37   H     H_    0.190393 0.724327 0.412963 0.167280
H38   H     H_    0.823642 0.280770 0.661312 0.167089
H39   H     H_    0.899742 0.177522 0.650945 0.237152
H40   H     H_    0.820908 0.357879 0.108112 0.214238
H41   H     H_    0.727122 0.407295 0.183654 0.167611
H42   H     H_    0.276042 0.666201 0.824381 0.167857
H43   H     H_    0.174369 0.652948 0.900936 0.239402
H44   H     H_    0.185382 0.885798 0.648033 0.239524
H45   H     H_    0.842757 0.344997 0.249489 0.166092
H46   H     H_    0.286304 0.798381 0.652147 0.183139
H47   H     H_    0.724611 0.210894 0.349319 0.188243
H48   H     H_    0.818620 0.114243 0.350303 0.244616
H49   H     H_    0.651656 0.175604 0.896239 0.242407
H50   H     H_    0.660820 0.272182 0.805175 0.182501
H51   H     H_    0.335983 0.725542 0.191067 0.191837
H52   H     H_    0.349394 0.824769 0.106644 0.246600
H53   H     H_    0.898712 0.651338 0.175701 0.243325
H54   H     H_    0.810734 0.663119 0.273168 0.183155
H55   H     H_    0.189955 0.336195 0.725775 0.188537
H56   H     H_    0.823643 0.271874 0.349896 0.176334
H57   H     H_    0.104671 0.349580 0.824161 0.244113
H58   H     H_    0.168879 0.739234 0.653434 0.178020
H59   H     H_    0.162803 0.654474 0.746791 0.183942
H60   H     H_    0.262176 0.347757 0.828982 0.181882
N1    N     N_3   0.304649 0.876311 0.290515 -0.407512
N2    N     N_3   0.006924 0.174740 0.710239 -0.482573
N3    N     N_3   0.829515 0.292801 0.980236 -0.492175
N4    N     N_3   0.175111 0.714351 0.004033 -0.485427
N5    N     N_3   0.229348 0.903086 0.755375 -0.494832
N6    N     N_3   0.760038 0.124509 0.239599 -0.499819
N7    N     N_3   0.757859 0.220600 0.913690 -0.494779
N8    N     N_3   0.252117 0.796580 0.059490 -0.498845
N9    N     N_3   0.932590 0.752735 0.212011 -0.490804
N10   N     N_3   0.057739 0.252781 0.795427 -0.498160
N11   N     N_3   0.379385 0.127553 0.750656 -0.474561
N12   N     N_3   0.706872 0.121008 0.710172 -0.404717
N13   N     N_3   0.465811 0.136126 0.182646 -0.443197
N14   N     N_3   0.138922 0.746374 0.382090 -0.479097
N15   N     N_3   0.870677 0.244373 0.614468 -0.467297
N16   N     N_3   0.749304 0.378957 0.130452 -0.486262
N17   N     N_3   0.241384 0.617751 0.870819 -0.466335
N18   N     N_3   0.250319 0.855224 0.609463 -0.472529
N19   N     N_3   0.757144 0.148556 0.390116 -0.461749
N20   N     N_3   0.615259 0.239742 0.861577 -0.459400
N21   N     N_3   0.383869 0.758215 0.139007 -0.458018
N22   N     N_3   0.865004 0.616049 0.240485 -0.462875
N23   N     N_3   0.877583 0.291800 0.294892 -0.403542
N24   N     N_3   0.137280 0.384146 0.758407 -0.465315
N25   N     N_3   0.121030 0.708790 0.708132 -0.404185
N26   N     N_3   0.290221 0.293060 0.878853 -0.402905
N27   N     N_3   0.708822 0.706250 0.123358 -0.401586
N28   N     N_3   0.297364 0.972004 0.829336 -0.493860
N29   N     N_3   0.652467 0.115377 0.154329 -0.488700
N30   N     N_3   0.002109 0.822678 0.282891 -0.487734
O1    O     O_R   0.982940 0.138950 0.510160 -0.627066
O2    O     O_R   0.982940 0.510160 0.138950 -0.625571
O3    O     O_R   0.861050 0.017060 0.489840 -0.625970
O4    O     O_R   0.138950 0.982940 0.510160 -0.622974
O5    O     O_R   0.867700 0.025880 0.612340 -0.605729
O6    O     O_R   0.132300 0.974120 0.387660 -0.613892
O7    O     O_R   0.025880 0.612340 0.867700 -0.604418
O8    O     O_R   0.974120 0.387660 0.132300 -0.613500
O9    O     O_R   0.612340 0.867700 0.025880 -0.597188
O10   O     O_R   0.387660 0.132300 0.974120 -0.612996
O11   O     O_R   0.387660 0.974120 0.132300 -0.605169
O12   O     O_R   0.017060 0.861050 0.489840 -0.650859
O13   O     O_R   0.612340 0.025880 0.867700 -0.592992
O14   O     O_R   0.132300 0.387660 0.974120 -0.600136
O15   O     O_R   0.867700 0.612340 0.025880 -0.592693
O16   O     O_R   0.974120 0.132300 0.387660 -0.596619
O17   O     O_R   0.025880 0.867700 0.612340 -0.594597
O18   O     O_R   0.138950 0.510160 0.982940 -0.627678
O19   O     O_R   0.861050 0.489840 0.017060 -0.652945
O20   O     O_R   0.510160 0.982940 0.138950 -0.643476
O21   O     O_R   0.489840 0.017060 0.861050 -0.654589
O22   O     O_R   0.489840 0.861050 0.017060 -0.628774
O23   O     O_R   0.510160 0.138950 0.982940 -0.647922
O24   O     O_R   0.017060 0.489840 0.861050 -0.631815
Zn1   Zn    Zn3+2 0.004880 0.004880 0.583590 0.954688
Zn2   Zn    Zn3+2 0.995120 0.995120 0.416410 0.931114
Zn3   Zn    Zn3+2 0.004880 0.583590 0.004880 0.955420
Zn4   Zn    Zn3+2 0.995120 0.416410 0.995120 0.928565
Zn5   Zn    Zn3+2 0.583590 0.004880 0.004880 0.946005
Zn6   Zn    Zn3+2 0.416410 0.995120 0.995120 0.926760

loop_
_geom_bond_atom_site_label_1
_geom_bond_atom_site_label_2
_ccdc_geom_bond_type
O7    Zn3   S    
H26   N8    S    
C5    C71   A    
C6    C45   A    
C14   O16   A    
C86   N7    S    
C32   C48   A    
O10   Zn6   S    
H29   N10   S    
O9    Zn5   S    
C84   N9    S    
C50   C79   A    
C20   C41   S    
H54   N22   S    
C75   C95   A    
C14   C46   S    
C27   C34   S    
H45   N23   S    
H25   N8    S    
C88   N28   S    
O19   Zn4   S    
C42   C81   A    
C43   C92   A    
C24   C36   S    
C56   N20   S    
H39   N15   S    
C41   C62   A    
H57   N24   S    
C50   N14   S    
C16   O17   A    
H32   N11   S    
C79   C93   A    
C80   C87   A    
C58   C71   A    
C57   C59   A    
C54   C68   A    
C76   C98   A    
C62   N12   S    
C66   N27   S    
C23   O7    A    
H8    N29   S    
C2    C32   A    
H41   N16   S    
C49   C81   A    
H13   N2    S    
C74   C94   A    
C3    C12   A    
O22   Zn6   S    
C40   C59   A    
C4    C96   A    
C3    C73   A    
C78   C96   A    
C53   N17   S    
H22   N7    S    
H51   N21   S    
H15   N3    S    
C63   N23   S    
C1    C28   A    
C15   C29   A    
C10   C96   A    
C74   C87   A    
C35   C62   A    
C36   C63   A    
C8    C101  A    
C9    C95   A    
C12   C98   A    
C25   O3    A    
C19   C42   S    
C9    C29   A    
C76   C89   A    
C82   N5    S    
C6    C31   A    
C65   N26   S    
C11   C31   A    
H9    N30   S    
C33   C59   A    
C7    C30   A    
C40   C66   A    
C22   O23   A    
C12   C32   A    
H47   N19   S    
C39   C65   A    
H6    N28   S    
H37   N14   S    
O6    Zn2   S    
C27   O6    A    
C20   O13   A    
O5    Zn1   S    
H23   N12   S    
O23   Zn5   S    
C15   C35   A    
C4    C69   A    
H27   N9    S    
C1    C34   A    
O4    Zn1   S    
H48   N19   S    
C38   C64   A    
O20   Zn5   S    
C72   C85   A    
O16   Zn2   S    
H2    N26   S    
H34   N12   S    
C77   C90   A    
H20   N6    S    
C22   O10   A    
C19   O20   A    
C37   C60   A    
C7    C46   A    
C21   O9    A    
C8    C94   A    
C68   C101  A    
C17   O18   A    
C86   C90   A    
C33   C92   A    
C2    C44   A    
C85   C89   A    
H53   N22   S    
O14   Zn4   S    
C98   C102  A    
H16   N4    S    
C34   C61   A    
O18   Zn3   S    
C31   C37   A    
O11   Zn6   S    
O12   Zn2   S    
C18   O15   A    
C15   C55   A    
C13   C99   A    
O1    Zn1   S    
C1    C54   A    
C47   C70   A    
C13   C33   A    
C37   C38   A    
C69   C83   A    
H3    N27   S    
H10   N30   S    
O21   Zn6   S    
C10   C30   A    
C42   C61   A    
H42   N17   S    
C94   C100  A    
H28   N9    S    
C83   N10   S    
H43   N17   S    
C19   O11   A    
H38   N15   S    
C55   N19   S    
H44   N18   S    
C49   C74   A    
C6    C50   A    
C4    C11   A    
C26   C58   A    
H17   N4    S    
C47   N11   S    
C67   C100  A    
C25   C35   S    
H21   N6    S    
H19   N5    S    
C26   C36   A    
C14   O1    A    
C5    C97   A    
C26   C30   A    
C9    C100  A    
H55   N24   S    
C90   N3    S    
H36   N14   S    
O8    Zn4   S    
C91   N2    S    
C52   C92   A    
C53   C76   A    
C24   O2    A    
H50   N20   S    
C52   C77   A    
H56   N23   S    
C49   N13   S    
O13   Zn5   S    
H49   N20   S    
C87   N29   S    
C71   C84   A    
C93   N30   S    
C48   C56   A    
C17   O14   A    
C58   N22   S    
C60   N24   S    
C56   C73   A    
C28   C81   A    
C61   N1    S    
O15   Zn3   S    
C79   C97   A    
C67   C80   A    
O24   Zn4   S    
C47   C75   A    
C2    C53   A    
C16   C45   S    
C55   C67   A    
H35   N13   S    
O2    Zn3   S    
C27   O4    A    
C78   C91   A    
C23   C38   S    
C83   C91   A    
C45   C64   A    
H1    N1    S    
C85   N8    S    
H4    N27   S    
C46   C63   A    
C11   C97   A    
O17   Zn1   S    
C20   O21   A    
C18   O19   A    
C17   C44   S    
C68   C82   A    
C5    C10   A    
H59   N25   S    
H52   N21   S    
C16   O12   A    
C18   C43   S    
H11   N2    S    
H60   N26   S    
C57   N21   S    
H12   N1    S    
H40   N16   S    
C21   C40   S    
C72   C102  A    
C60   C69   A    
H7    N29   S    
C43   C66   A    
C82   C88   A    
C22   C39   S    
H5    N28   S    
C44   C65   A    
C54   N18   S    
C77   C99   A    
C29   C70   A    
C84   C93   A    
C57   C72   A    
H14   N3    S    
C52   N16   S    
C89   N4    S    
C51   C78   A    
C64   N25   S    
C25   O5    A    
C7    C51   A    
C3    C99   A    
C75   C88   A    
C24   O8    A    
C8    C28   A    
H46   N18   S    
C23   O24   A    
H24   N7    S    
C21   O22   A    
C41   C70   A    
C73   C86   A    
H30   N10   S    
H58   N25   S    
C13   C102  A    
C51   N15   S    
H31   N11   S    
C80   N6    S    
O3    Zn2   S    
C95   C101  A    
H18   N5    S    
H33   N13   S    
C39   C48   A    
