data_mof_unit_14774.cif
_audit_creation_date              2012-12-10T16:56:33-0500
_audit_creation_method            fapswitch 2.2
_symmetry_space_group_name_H-M    P1
_symmetry_Int_Tables_number       1
_space_group_crystal_system       triclinic
_cell_length_a                    10.741732
_cell_length_b                    10.907129
_cell_length_c                    9.821377
_cell_angle_alpha                 91.235826
_cell_angle_beta                  89.869386
_cell_angle_gamma                 92.240537
_cell_volume                      1149.53850151

loop_
_atom_site_label
_atom_site_type_symbol
_atom_type_description
_atom_site_fract_x
_atom_site_fract_y
_atom_site_fract_z
_atom_type_partial_charge
C1    C     C_R   0.493605 0.265813 0.498705 0.797243
C2    C     C_3   0.877532 0.497692 0.499965 0.072112
C3    C     C_3   0.928284 0.624731 0.452154 -0.425389
C4    C     C_3   0.925843 0.396498 0.399636 0.022887
C5    C     C_2   0.513897 0.932291 0.392427 -0.157386
C6    C     C_2   0.518122 0.866753 0.505645 -0.327181
C7    C     C_2   0.525122 0.066078 0.399796 -0.177306
C8    C     C_2   0.468244 0.134323 0.495481 0.058394
C9    C     C_2   0.430173 0.424283 0.922082 0.347189
C10   C     C_2   0.444265 0.413194 0.076217 0.254931
C11   C     C_R   0.260336 0.501297 0.500069 0.748553
C12   C     C_R   0.504793 0.734345 0.501281 0.831546
C13   C     C_R   0.739478 0.498431 0.500042 0.774506
C14   C     C_3   0.070018 0.471225 0.643372 -0.444914
C15   C     C_3   0.928036 0.478172 0.645911 -0.343486
C16   C     C_3   0.073999 0.633153 0.455319 0.366515
C17   C     C_3   0.070136 0.399472 0.401418 -0.431574
C18   C     C_3   0.121979 0.503495 0.499352 0.139092
Cu1   Cu    Cu3+1 0.500030 0.500020 0.638630 1.008830
Cu2   Cu    Cu3+1 0.499970 0.499980 0.361370 0.936203
H1    H     H_    0.110877 0.532797 0.724568 0.195960
H2    H     H_    0.896156 0.418477 0.294590 0.179149
H3    H     H_    0.892480 0.640324 0.347803 0.173380
H4    H     H_    0.508863 0.888053 0.292349 0.176037
H5    H     H_    0.533172 0.911412 0.604418 0.179618
H6    H     H_    0.585498 0.109914 0.324749 0.134925
H7    H     H_    0.095531 0.376629 0.669693 0.171701
H8    H     H_    0.510265 0.584032 0.111752 0.228501
H9    H     H_    0.886143 0.393095 0.690189 0.195993
H10   H     H_    0.902121 0.555793 0.714437 0.208444
H11   H     H_    0.888142 0.698175 0.517422 0.162581
H12   H     H_    0.105991 0.410578 0.296127 0.160512
H13   H     H_    0.105229 0.310024 0.434513 0.168237
N1    N     N_2   0.498630 0.498660 0.846910 -0.021937
N2    N     N_2   0.498590 0.498630 0.153040 -0.267316
O1    O     O_R   0.500020 0.321960 0.617040 -0.567744
O2    O     O_R   0.499980 0.321920 0.382900 -0.598530
O3    O     O_R   0.317710 0.500000 0.617070 -0.605708
O4    O     O_R   0.317670 0.499960 0.382930 -0.597430
O5    O     O_R   0.500020 0.678080 0.617100 -0.548246
O6    O     O_R   0.499980 0.678040 0.382960 -0.584980
O7    O     O_R   0.682330 0.500040 0.617070 -0.522292
O8    O     O_R   0.682290 0.500000 0.382930 -0.572840
C19   C     C_3   0.122212 0.672128 0.312681 -0.831326
H14   H     H_    0.080124 0.759241 0.283332 0.224512
H15   H     H_    0.224613 0.689780 0.312187 0.251027
H16   H     H_    0.096820 0.603012 0.232169 0.218011
C20   C     C_3   0.367315 0.085144 0.589982 -0.863527
H17   H     H_    0.293025 0.152704 0.601195 0.205571
H18   H     H_    0.320739 0.999410 0.549483 0.250464
H19   H     H_    0.407049 0.069650 0.692093 0.235568
C21   C     C_3   0.333012 0.337480 0.856445 -0.863348
H20   H     H_    0.360174 0.241366 0.869455 0.214096
H21   H     H_    0.240257 0.352502 0.902725 0.197100
H22   H     H_    0.321580 0.342066 0.747624 0.275852
Cl1   Cl    Cl    0.643949 0.550373 0.906970 -0.585463
C22   C     C_3   0.387757 0.299338 0.142395 -0.751625
H23   H     H_    0.318373 0.245047 0.081975 0.179960
H24   H     H_    0.462551 0.235577 0.164582 0.234426
H25   H     H_    0.332659 0.324491 0.232911 0.254790
C23   C     C_3   0.117862 0.736779 0.557337 -0.850723
H26   H     H_    0.075503 0.724764 0.659477 0.224142
H27   H     H_    0.220827 0.740478 0.568115 0.223892
H28   H     H_    0.089847 0.827656 0.521456 0.230523
C24   C     C_3   0.871911 0.266429 0.428108 -0.878360
H29   H     H_    0.905410 0.200839 0.349385 0.235744
H30   H     H_    0.901440 0.234911 0.529297 0.240615
H31   H     H_    0.768678 0.263393 0.423635 0.229297

loop_
_geom_bond_atom_site_label_1
_geom_bond_atom_site_label_2
_ccdc_geom_bond_type
C12   O5    A    
C11   O3    A    
C2    C4    S    
C8    C20   S    
C11   C18   S    
N1    Cl1   S    
C10   N2    D    
C2    C15   S    
Cu1   O3    S    
C14   H7    S    
C23   H28   S    
C1    C8    S    
C4    H2    S    
C9    C10   S    
C14   C18   S    
C3    H3    S    
Cu1   Cu2   S    
C19   H16   S    
C1    O2    A    
C24   H31   S    
C10   C22   S    
C20   H18   S    
C17   C18   S    
Cu2   O4    S    
C7    C8    D    
C21   H20   S    
C3    H11   S    
Cu2   O2    S    
C9    C21   S    
Cu1   O7    S    
C22   H23   S    
C5    C6    D    
C7    H6    S    
C17   H13   S    
Cu2   O6    S    
C4    C17   S    
C14   H1    S    
C20   H17   S    
C21   H22   S    
C19   H15   S    
C9    N1    D    
C15   H9    S    
C2    C3    S    
Cu1   O1    S    
C6    C12   S    
C23   H26   S    
C11   O4    A    
C22   H24   S    
C6    H5    S    
Cu1   O5    S    
C3    C16   S    
C5    H4    S    
C13   O8    A    
Cu2   O8    S    
C19   H14   S    
H8    N2    S    
C15   H10   S    
C16   C18   S    
C24   H29   S    
C16   C23   S    
C17   H12   S    
C5    C7    S    
C2    C13   S    
C16   C19   S    
C4    C24   S    
C13   O7    A    
C22   H25   S    
C24   H30   S    
C14   C15   S    
Cu2   N2    S    
C20   H19   S    
C12   O6    A    
C1    O1    A    
C21   H21   S    
C23   H27   S    
Cu1   N1    S    
