data_mof_unit_44330.cif
_audit_creation_date              2013-03-05T15:40:19-0500
_audit_creation_method            fapswitch 2.2
_symmetry_space_group_name_H-M    P1
_symmetry_Int_Tables_number       1
_space_group_crystal_system       triclinic
_cell_length_a                    11.239224
_cell_length_b                    11.331171
_cell_length_c                    18.612363
_cell_angle_alpha                 90.192631
_cell_angle_beta                  90.511739
_cell_angle_gamma                 120.251109
_cell_volume                      2047.4036454

loop_
_atom_site_label
_atom_site_type_symbol
_atom_site_description
_atom_site_fract_x
_atom_site_fract_y
_atom_site_fract_z
_atom_type_partial_charge
O1    O     O_R   0.434100 0.092480 0.829780 -0.512192
O2    O     O_R   0.907520 0.341620 0.829780 -0.506089
O3    O     O_R   0.658380 0.565900 0.829780 -0.505114
O4    O     O_R   0.092480 0.434100 0.170220 -0.516260
O5    O     O_R   0.341620 0.907520 0.170220 -0.508746
O6    O     O_R   0.565900 0.658380 0.170220 -0.521050
O7    O     O_R   0.477510 0.362730 0.824640 -0.497743
O8    O     O_R   0.637270 0.114780 0.824640 -0.492868
O9    O     O_R   0.885220 0.522490 0.824640 -0.500300
O10   O     O_R   0.362730 0.477510 0.175360 -0.496980
O11   O     O_R   0.114780 0.637270 0.175360 -0.505205
O12   O     O_R   0.522490 0.885220 0.175360 -0.510673
C1    C     C_R   0.542674 0.479124 0.852778 0.570017
C2    C     C_R   0.521239 0.063863 0.852836 0.571529
C3    C     C_R   0.936736 0.457595 0.852830 0.561681
C4    C     C_R   0.478752 0.542402 0.147156 0.559483
C5    C     C_R   0.063210 0.520601 0.147200 0.551197
C6    C     C_R   0.457300 0.936172 0.147195 0.558099
O13   O     O_R   0.432250 0.092620 0.670380 -0.433326
O14   O     O_R   0.907380 0.339630 0.670380 -0.455828
O15   O     O_R   0.660370 0.567750 0.670380 -0.459976
O16   O     O_R   0.092620 0.432250 0.329620 -0.449883
O17   O     O_R   0.339630 0.907380 0.329620 -0.443455
O18   O     O_R   0.567750 0.660370 0.329620 -0.471580
O19   O     O_R   0.475790 0.362860 0.676880 -0.480339
O20   O     O_R   0.637140 0.112930 0.676880 -0.444964
O21   O     O_R   0.887070 0.524210 0.676880 -0.502538
O22   O     O_R   0.362860 0.475790 0.323120 -0.441449
O23   O     O_R   0.112930 0.637140 0.323120 -0.487489
O24   O     O_R   0.524210 0.887070 0.323120 -0.455888
C7    C     C_R   0.539847 0.480218 0.650138 0.580925
C8    C     C_R   0.550713 0.136247 0.641029 0.580417
C9    C     C_R   0.942766 0.460304 0.651433 0.562036
C10   C     C_R   0.479606 0.547110 0.353599 0.600045
C11   C     C_R   0.071010 0.522353 0.354586 0.569034
C12   C     C_R   0.462532 0.946720 0.347904 0.633219
C13   C     C_2   0.025246 0.515392 0.587737 -0.095417
C14   C     C_2   0.482999 0.503607 0.585822 -0.093474
C15   C     C_2   0.555071 0.133751 0.561806 -0.132137
C16   C     C_2   0.521781 0.040420 0.409928 -0.067293
C17   C     C_2   0.496358 0.527020 0.429257 -0.090997
C18   C     C_2   0.034954 0.508802 0.430550 -0.130231
C19   C     C_2   0.060737 0.427274 0.474482 0.147585
C20   C     C_2   0.522707 0.629316 0.476487 0.185598
C21   C     C_2   0.457342 0.102592 0.438202 0.146744
C22   C     C_2   0.447631 0.109036 0.517778 0.152079
C23   C     C_2   0.548852 0.622837 0.552517 0.171335
C24   C     C_2   0.070921 0.441968 0.553619 0.170876
Cr1   Cr    Cr6+3 0.464030 0.233680 0.750360 1.111684
Cr2   Cr    Cr6+3 0.766320 0.230350 0.750360 1.115725
Cr3   Cr    Cr6+3 0.769650 0.535970 0.750360 1.084683
Cr4   Cr    Cr6+3 0.233680 0.464030 0.249640 1.125095
Cr5   Cr    Cr6+3 0.230350 0.766320 0.249640 1.099141
Cr6   Cr    Cr6+3 0.535970 0.769650 0.249640 1.099564
O25   O     O_3   0.666667 0.333333 0.749450 -0.327628
O26   O     O_3   0.333333 0.666667 0.250550 -0.292193
C25   C     C_2   0.005283 0.503381 0.921952 -0.103347
C26   C     C_2   0.497765 0.502745 0.921376 -0.102164
C27   C     C_2   0.499016 0.996661 0.921624 -0.101921
C28   C     C_2   0.502145 0.004234 0.078633 -0.103635
C29   C     C_2   0.500602 0.497098 0.078200 -0.102680
C30   C     C_2   0.994127 0.497052 0.078210 -0.107496
C31   C     C_2   0.013679 0.604123 0.038744 -0.164966
C32   C     C_2   0.391948 0.412048 0.037019 -0.163057
C33   C     C_2   0.591142 0.986508 0.038933 -0.165672
C34   C     C_2   0.607312 0.018857 0.962615 -0.164634
C35   C     C_2   0.407894 0.396175 0.960596 -0.164783
C36   C     C_2   0.983251 0.588954 0.962078 -0.165754
N1    N     N_R   0.076426 0.318337 0.445388 0.147959
O27   O     O_R   0.969693 0.209127 0.419424 -0.251029
O28   O     O_R   0.193187 0.321653 0.452392 -0.259265
N2    N     N_R   0.531547 0.753157 0.453854 0.094326
O29   O     O_R   0.652171 0.853549 0.436474 -0.260593
O30   O     O_R   0.437989 0.779315 0.476439 -0.361176
N3    N     N_R   0.378090 0.140467 0.392143 0.090710
O31   O     O_R   0.261596 0.126603 0.412807 -0.186145
O32   O     O_R   0.424843 0.192599 0.329326 -0.352473
N4    N     N_R   0.314418 0.068520 0.546504 0.148306
O33   O     O_R   0.213006 0.944654 0.535325 -0.245622
O34   O     O_R   0.289301 0.159291 0.573891 -0.249238
N5    N     N_R   0.641461 0.747458 0.590622 0.137211
O35   O     O_R   0.602972 0.779234 0.649842 -0.276429
O36   O     O_R   0.762739 0.830900 0.565165 -0.213949
N6    N     N_R   0.111562 0.359916 0.594877 0.118282
O37   O     O_R   0.052275 0.228761 0.583634 -0.181676
O38   O     O_R   0.191454 0.412665 0.651036 -0.321159
H1    H     H_    0.015651 0.586735 0.451092 0.098616
H2    H     H_    0.485994 0.430783 0.446294 0.100774
H3    H     H_    0.597993 0.031871 0.441458 0.166095
H4    H     H_    0.654012 0.160601 0.538977 0.087855
H5    H     H_    0.398312 0.415531 0.559337 0.167555
H6    H     H_    0.015427 0.595354 0.561895 0.107833
H7    H     H_    0.057973 0.706047 0.061866 0.160327
H8    H     H_    0.288632 0.356397 0.058654 0.159493
H9    H     H_    0.649942 0.943174 0.061668 0.159500
H10   H     H_    0.710528 0.065608 0.940899 0.159153
H11   H     H_    0.348389 0.294262 0.937417 0.160469
H12   H     H_    0.937084 0.645048 0.939474 0.160157
H13   H     H_    0.945642 0.394730 0.055112 0.109812
H14   H     H_    0.604107 0.549419 0.056579 0.108656
H15   H     H_    0.447133 0.051784 0.056054 0.112422
H16   H     H_    0.395547 0.946252 0.943281 0.110910
H17   H     H_    0.553377 0.605148 0.944395 0.111951
H18   H     H_    0.055327 0.450894 0.944577 0.112003

loop_
_geom_bond_atom_site_label_1
_geom_bond_atom_site_label_2
_geom_bond_distance
_ccdc_geom_bond_type
O19   C7    1.257233 A    
O20   C8    1.306447 A    
O9    Cr3   1.947085 S    
O10   Cr4   1.962766 S    
N5    O35   1.301716 A    
C21   C22   1.490339 S    
O21   C9    1.265008 A    
O16   C11   1.251399 A    
O24   Cr6   1.956101 S    
O4    Cr4   2.056941 S    
O5    Cr5   2.083691 S    
N6    O38   1.301671 A    
O20   Cr2   1.937666 S    
C27   C34   1.341826 D    
N4    O34   1.299631 A    
O18   Cr6   2.079762 S    
C8    C15   1.476424 S    
N1    O28   1.299151 A    
C11   C18   1.461444 S    
O14   Cr2   2.083103 S    
O2    Cr2   2.054926 S    
O18   C10   1.248344 A    
C17   H2    1.085474 S    
C16   H3    1.078192 S    
C19   C24   1.478673 S    
C15   H4    1.085412 S    
O3    C1    1.251234 A    
C20   C23   1.452325 S    
O22   C10   1.269568 A    
C19   N1    1.436851 S    
C3    C25   1.446703 S    
C10   C17   1.452860 S    
O6    Cr6   2.076433 S    
O13   C8    1.291183 A    
N5    O36   1.300927 A    
O21   Cr3   1.959088 S    
O17   Cr5   2.062186 S    
O19   Cr1   1.962714 S    
C16   C21   1.347640 D    
Cr6   O26   1.967723 S    
C32   C35   1.457083 S    
C12   C16   1.472763 S    
N6    O37   1.301561 A    
O7    Cr1   1.957565 S    
N2    O30   1.300512 A    
C22   N4    1.435842 S    
O3    Cr3   2.078709 S    
N4    O33   1.301649 A    
O5    C6    1.251011 A    
Cr1   O25   1.967710 S    
C14   H5    1.084504 S    
C9    C13   1.447776 S    
C24   N6    1.445400 S    
C29   C32   1.341642 D    
N3    O31   1.299637 A    
C30   C31   1.341665 D    
C2    C27   1.449852 S    
C5    C30   1.447069 S    
O15   C7    1.263028 A    
O13   Cr1   2.073073 S    
O7    C1    1.251143 A    
C13   C24   1.338504 D    
O2    C3    1.256076 A    
N3    O32   1.301878 A    
C14   C23   1.328011 D    
C15   C22   1.359469 D    
O14   C9    1.268885 A    
C6    C28   1.450412 S    
C28   C33   1.342200 D    
O17   C12   1.262041 A    
C17   C20   1.358925 D    
C29   H14   1.087098 S    
C4    C29   1.448880 S    
O4    C5    1.256075 A    
C25   C36   1.341510 D    
C28   H15   1.087068 S    
O8    Cr2   1.965759 S    
O15   Cr3   2.066586 S    
C34   H10   1.086451 S    
Cr5   O26   1.982856 S    
C25   H18   1.087153 S    
C31   H7    1.086463 S    
C31   C36   1.453614 S    
O11   C5    1.255463 A    
O8    C2    1.251045 A    
C13   H6    1.080371 S    
C27   H16   1.087080 S    
N2    O29   1.301180 A    
O11   Cr5   1.943551 S    
C1    C26   1.449785 S    
O1    C2    1.249745 A    
O23   C11   1.284256 A    
Cr2   O25   1.983214 S    
C7    C14   1.438941 S    
O24   C12   1.275103 A    
C21   N3    1.444470 S    
O9    C3    1.255949 A    
C32   H8    1.086478 S    
O10   C4    1.251152 A    
O22   Cr4   1.940236 S    
O23   Cr5   1.963154 S    
C20   N2    1.421519 S    
O16   Cr4   2.080790 S    
Cr3   O25   1.983358 S    
C23   N5    1.442071 S    
N1    O27   1.301458 A    
C36   H12   1.086486 S    
C18   H1    1.079485 S    
C35   H11   1.086409 S    
O6    C4    1.249973 A    
C30   H13   1.087158 S    
C26   C35   1.342180 D    
C33   H9    1.086402 S    
C33   C34   1.458106 S    
C18   C19   1.369872 D    
O12   C6    1.251548 A    
C26   H17   1.087090 S    
O1    Cr1   2.083407 S    
O12   Cr6   1.964072 S    
Cr4   O26   1.983702 S    
