data_mof_unit_29974.cif
_audit_creation_date              2012-10-26T18:33:58-0400
_audit_creation_method            fapswitch 2.2
_symmetry_space_group_name_H-M    P1
_symmetry_Int_Tables_number       1
_space_group_crystal_system       triclinic
_cell_length_a                    11.068686
_cell_length_b                    10.859372
_cell_length_c                    9.582236
_cell_angle_alpha                 91.149482
_cell_angle_beta                  101.706849
_cell_angle_gamma                 92.448867
_cell_volume                      1126.30042037

loop_
_atom_site_label
_atom_site_type_symbol
_atom_type_description
_atom_site_fract_x
_atom_site_fract_y
_atom_site_fract_z
_atom_type_partial_charge
Br1   Br    Br    0.298593 0.316419 0.115036 -0.380888
Br2   Br    Br    0.695101 0.690102 0.881995 -0.399963
Br3   Br    Br    0.363868 0.847990 0.195907 -0.237584
Br4   Br    Br    0.628151 0.145995 0.802690 -0.265604
C1    C     C_R   0.509671 0.262388 0.500519 0.563764
C2    C     C_2   0.873100 0.493235 0.577329 0.003135
C3    C     C_2   0.050565 0.523601 0.456730 -0.019076
C4    C     C_2   0.926190 0.471637 0.461943 -0.000887
C5    C     C_R   0.489446 0.057872 0.367482 -0.034770
C6    C     C_R   0.497651 0.940415 0.629615 -0.024784
C7    C     C_R   0.455070 0.932266 0.368756 0.199462
C8    C     C_R   0.534097 0.065466 0.629054 0.197978
C9    C     C_R   0.473714 0.871359 0.499223 -0.055985
C10   C     C_R   0.517446 0.126872 0.498585 -0.063313
C11   C     C_2   0.861317 0.402484 0.329523 0.290099
C12   C     C_R   0.487501 0.736843 0.498737 0.590209
C13   C     C_2   0.070866 0.660324 0.480160 0.269871
C14   C     C_2   0.947195 0.529219 0.721245 0.241978
C15   C     C_2   0.120473 0.312400 0.407764 0.229217
C16   C     C_2   0.334273 0.335664 0.808855 0.362023
C17   C     C_2   0.664543 0.665701 0.190627 0.344912
C18   C     C_2   0.516610 0.111218 0.234264 0.374445
C19   C     C_2   0.463950 0.886952 0.759730 0.380651
C20   C     C_R   0.264227 0.492854 0.443772 0.586520
C21   C     C_R   0.737157 0.494872 0.555687 0.540157
C22   C     C_R   0.420140 0.422410 0.053210 0.275900
C23   C     C_R   0.578856 0.578728 0.946325 0.258171
C24   C     C_R   0.421067 0.421575 0.905131 0.124957
C25   C     C_R   0.578757 0.578718 0.094701 0.118271
C26   C     C_2   0.136421 0.449563 0.421587 0.009391
Cu1   Cu    Cu3+1 0.500000 0.500020 0.640660 1.072060
Cu2   Cu    Cu3+1 0.500000 0.499980 0.359340 1.079344
H1    H     H_    0.882041 0.426528 0.227200 0.103184
H2    H     H_    0.999576 0.712900 0.512827 0.127301
H3    H     H_    0.902310 0.566702 0.801998 0.171081
H4    H     H_    0.175204 0.261981 0.346311 0.158709
H5    H     H_    0.252715 0.368917 0.740924 0.167640
H6    H     H_    0.746491 0.633618 0.258970 0.078492
H7    H     H_    0.591878 0.179475 0.240863 0.177078
H8    H     H_    0.391175 0.815038 0.748278 0.145365
N1    N     N_R   0.500030 0.500030 0.852080 -0.279365
N2    N     N_R   0.499970 0.499970 0.147920 -0.274477
O1    O     O_R   0.499990 0.319660 0.618740 -0.460331
O2    O     O_2   0.163773 0.716073 0.460311 -0.474811
O3    O     O_2   0.057871 0.513636 0.752990 -0.487652
O4    O     O_2   0.054782 0.253805 0.473429 -0.423550
O5    O     O_2   0.349376 0.225007 0.811583 -0.404389
O6    O     O_2   0.647798 0.776065 0.187623 -0.407002
O7    O     O_2   0.457844 0.079818 0.116188 -0.333433
O8    O     O_2   0.513843 0.922289 0.880009 -0.328212
O9    O     O_R   0.500010 0.680340 0.381260 -0.449257
O10   O     O_R   0.499990 0.319630 0.381170 -0.505517
O11   O     O_R   0.500010 0.680370 0.618830 -0.498954
O12   O     O_R   0.320690 0.500020 0.575130 -0.524700
O13   O     O_R   0.679310 0.499980 0.424870 -0.525303
O14   O     O_R   0.320680 0.499990 0.337560 -0.454533
O15   O     O_R   0.679320 0.500010 0.662440 -0.470451
O16   O     O_2   0.791264 0.313687 0.335417 -0.456573

loop_
_geom_bond_atom_site_label_1
_geom_bond_atom_site_label_2
_ccdc_geom_bond_type
C5    C10   A    
Cu2   O9    S    
Br2   C23   S    
C6    C19   S    
C20   O14   A    
C5    C7    A    
C14   H3    S    
C23   N1    A    
Cu2   O13   S    
C22   C24   A    
Cu1   Cu2   S    
C12   O9    A    
C17   O6    D    
Cu1   O15   S    
C1    O1    A    
C15   O4    D    
C3    C4    S    
C1    O10   A    
C3    C26   D    
Cu1   N1    S    
Cu1   O11   S    
C16   H5    S    
C7    C9    A    
C1    C10   S    
Cu1   O1    S    
C18   O7    D    
C2    C14   S    
C18   H7    S    
C6    C8    A    
Cu2   O14   S    
C4    C11   S    
C15   H4    S    
Cu1   O12   S    
Br1   C22   S    
C25   N2    A    
C11   O16   D    
C20   C26   S    
C5    C18   S    
C13   O2    D    
C2    C21   S    
Br3   C7    S    
C13   H2    S    
C17   H6    S    
C20   O12   A    
C19   H8    S    
C16   O5    D    
C14   O3    D    
C21   O15   A    
C23   C25   A    
C22   N2    A    
C9    C12   S    
Cu2   N2    S    
C12   O11   A    
Cu2   O10   S    
C19   O8    D    
C2    C4    D    
C16   C24   S    
Br4   C8    S    
C15   C26   S    
C17   C25   S    
C11   H1    S    
C24   N1    A    
C21   O13   A    
C8    C10   A    
C3    C13   S    
C6    C9    A    
