data_mof_unit_20471.cif
_audit_creation_date              2012-12-10T17:26:24-0500
_audit_creation_method            fapswitch 2.2
_symmetry_space_group_name_H-M    P1
_symmetry_Int_Tables_number       1
_space_group_crystal_system       triclinic
_cell_length_a                    10.161118
_cell_length_b                    10.835771
_cell_length_c                    27.681054
_cell_angle_alpha                 90.245695
_cell_angle_beta                  79.821838
_cell_angle_gamma                 96.167228
_cell_volume                      2982.12182713

loop_
_atom_site_label
_atom_site_type_symbol
_atom_type_description
_atom_site_fract_x
_atom_site_fract_y
_atom_site_fract_z
_atom_type_partial_charge
C1    C     C_R   0.557466 0.732518 0.495443 0.858366
C2    C     C_R   0.464454 0.608896 0.129417 -0.231281
C3    C     C_R   0.493475 0.488691 0.647361 -0.293285
C4    C     C_R   0.504794 0.496236 0.353035 -0.281585
C5    C     C_R   0.459688 0.604095 0.027538 -0.123184
C6    C     C_R   0.521265 0.388809 0.975009 -0.131506
C7    C     C_R   0.555047 0.404790 0.022223 -0.004147
C8    C     C_R   0.474549 0.606585 0.975670 -0.002429
C9    C     C_R   0.511966 0.507851 0.049925 -0.055151
C10   C     C_R   0.494913 0.494488 0.950170 -0.057292
C11   C     C_R   0.391595 0.691448 0.057910 0.447308
C12   C     C_R   0.442487 0.267539 0.504552 0.813734
C13   C     C_R   0.510516 0.271594 0.951982 0.471637
C14   C     C_R   0.402332 0.699525 0.107689 0.420528
C15   C     C_R   0.507019 0.265480 0.901636 0.438679
C16   C     C_R   0.498144 0.497816 0.594168 0.951768
C17   C     C_R   0.500841 0.498536 0.406026 0.922317
C18   C     C_R   0.476106 0.717125 0.948051 0.546414
C19   C     C_R   0.632871 0.324010 0.042444 0.544519
C20   C     C_2   0.593372 0.864863 0.495031 0.200448
C21   C     C_2   0.406318 0.135336 0.504735 0.187461
C22   C     C_2   0.496578 0.937083 0.491008 0.395994
C23   C     C_R   0.491964 0.488786 0.899534 -0.138701
C24   C     C_2   0.502524 0.062842 0.509082 0.406236
C25   C     C_2   0.924973 0.507048 0.505206 0.641645
C26   C     C_2   0.069756 0.480598 0.500989 0.652593
C27   C     C_R   0.478784 0.591097 0.823347 0.648883
C28   C     C_R   0.582492 0.424343 0.171656 0.578425
C29   C     C_R   0.509857 0.375650 0.823487 0.602521
C30   C     C_R   0.469001 0.607340 0.179955 0.675127
C31   C     C_R   0.615547 0.484386 0.715513 0.533129
C32   C     C_R   0.635900 0.537657 0.271174 0.545056
C33   C     C_R   0.614954 0.492910 0.665096 -0.380059
C34   C     C_R   0.519393 0.513235 0.100246 -0.140619
C35   C     C_R   0.627147 0.534556 0.322165 -0.431205
C36   C     C_R   0.369821 0.474138 0.680588 0.424967
C37   C     C_R   0.388828 0.458489 0.332865 0.408673
C38   C     C_R   0.369620 0.470627 0.731069 0.419654
C39   C     C_R   0.395209 0.468241 0.282075 0.422378
C40   C     C_R   0.492748 0.477760 0.748203 0.023740
C41   C     C_R   0.518374 0.508763 0.251640 0.027915
C42   C     C_3   0.202516 0.347178 0.655821 -0.284806
C43   C     C_3   0.270339 0.291891 0.376089 -0.119142
C44   C     C_3   0.190507 0.060707 0.533713 -0.098618
C45   C     C_R   0.479468 0.597370 0.873664 -0.082653
C46   C     C_3   0.806804 0.945627 0.465270 -0.103164
C47   C     C_3   0.155543 0.683217 0.581458 0.005753
C48   C     C_3   0.836971 0.337167 0.412393 -0.046048
C49   C     C_3   0.212431 0.357644 0.788649 -0.293926
C50   C     C_3   0.260228 0.325053 0.247181 -0.305834
C51   C     C_3   0.862812 0.518958 0.249082 -0.193027
C52   C     C_3   0.825351 0.416263 0.710961 -0.208149
C53   C     C_3   0.425698 0.902620 0.128012 -0.166298
C54   C     C_3   0.380918 0.095354 0.879197 -0.158625
C55   C     C_3   0.181598 0.694631 0.040878 -0.265554
C56   C     C_R   0.581069 0.421840 0.121409 -0.062640
C57   C     C_3   0.372376 0.144190 0.009609 -0.276210
C58   C     C_3   0.626350 0.868610 0.969364 -0.227135
C59   C     C_3   0.826466 0.304061 0.989416 -0.317188
C60   C     C_R   0.473181 0.710561 0.897999 -0.254397
C61   C     C_R   0.640901 0.330543 0.092048 -0.280724
C62   C     C_R   0.504516 0.375423 0.874597 -0.229891
F1    F     F_    0.111126 0.376665 0.478227 -0.640006
F2    F     F_    0.877931 0.597351 0.535662 -0.646525
F3    F     F_    0.609323 0.107957 0.530190 -0.629859
F4    F     F_    0.388996 0.891574 0.470404 -0.622759
H1    H     H_    0.470964 0.795888 0.878023 0.209701
H2    H     H_    0.165873 0.250993 0.390259 0.223009
H3    H     H_    0.171700 0.144711 0.556107 0.127608
H4    H     H_    0.221981 0.987682 0.556083 0.134228
H5    H     H_    0.094087 0.023348 0.522970 0.206132
H6    H     H_    0.772452 0.020955 0.444908 0.138873
H7    H     H_    0.825363 0.864634 0.441081 0.131929
H8    H     H_    0.904002 0.982226 0.475596 0.203393
H9    H     H_    0.264877 0.709319 0.578878 0.170527
H10   H     H_    0.120759 0.601015 0.606207 0.153070
H11   H     H_    0.103913 0.762045 0.598381 0.136339
H12   H     H_    0.695790 0.264270 0.107210 0.206084
H13   H     H_    0.849373 0.428218 0.392695 0.133772
H14   H     H_    0.731465 0.294037 0.418346 0.167420
H15   H     H_    0.897402 0.274362 0.388160 0.124079
H16   H     H_    0.234993 0.367256 0.826339 0.161733
H17   H     H_    0.261369 0.278291 0.770190 0.148410
H18   H     H_    0.102179 0.333838 0.792172 0.188834
H19   H     H_    0.204853 0.265352 0.278228 0.182076
H20   H     H_    0.355685 0.286747 0.231246 0.160270
H21   H     H_    0.197063 0.321030 0.218251 0.186137
H22   H     H_    0.834463 0.417605 0.256308 0.163316
H23   H     H_    0.714941 0.565665 0.337927 0.195773
H24   H     H_    0.905846 0.562924 0.279971 0.166827
H25   H     H_    0.943211 0.528873 0.216103 0.201466
H26   H     H_    0.882960 0.458902 0.676099 0.158943
H27   H     H_    0.774900 0.322733 0.704412 0.165831
H28   H     H_    0.899106 0.402802 0.735108 0.205141
H29   H     H_    0.440196 0.935866 0.089270 0.167529
H30   H     H_    0.524895 0.893378 0.138678 0.154831
H31   H     H_    0.378122 0.974573 0.151521 0.182039
H32   H     H_    0.315290 0.159816 0.866466 0.109010
H33   H     H_    0.334989 0.057160 0.916175 0.166194
H34   H     H_    0.709570 0.506498 0.639743 0.228340
H35   H     H_    0.385925 0.016254 0.853608 0.201677
H36   H     H_    0.135122 0.660640 0.078591 0.172149
H37   H     H_    0.191316 0.615390 0.015253 0.140431
H38   H     H_    0.112483 0.754930 0.028225 0.185736
H39   H     H_    0.288545 0.168941 0.991706 0.111889
H40   H     H_    0.374609 0.198362 0.043620 0.153488
H41   H     H_    0.350129 0.044757 0.020551 0.238626
H42   H     H_    0.686372 0.876707 0.931549 0.167532
H43   H     H_    0.667874 0.802829 0.991960 0.120237
H44   H     H_    0.636547 0.961060 0.986466 0.248836
H45   H     H_    0.277477 0.302188 0.629162 0.143619
H46   H     H_    0.887993 0.347856 0.015718 0.149748
H47   H     H_    0.807440 0.375015 0.963269 0.163774
H48   H     H_    0.886073 0.236228 0.967744 0.192033
H49   H     H_    0.109903 0.346102 0.639707 0.171336
H50   H     H_    0.176178 0.292287 0.690643 0.162588
H51   H     H_    0.329079 0.285797 0.406035 0.180333
H52   H     H_    0.311752 0.234101 0.344843 0.088214
N1    N     N_R   0.493614 0.481548 0.799638 -0.310757
N2    N     N_R   0.525003 0.514785 0.199737 -0.311376
N3    N     N_2   0.842700 0.448890 0.480020 0.026537
N4    N     N_2   0.157300 0.551110 0.519980 0.014156
O1    O     O_R   0.431060 0.692470 0.504020 -0.573515
O2    O     O_2   0.638241 0.335572 0.192686 -0.597035
O3    O     O_2   0.417087 0.696103 0.209446 -0.484445
O4    O     O_2   0.530112 0.271567 0.797553 -0.525598
O5    O     O_3   0.248377 0.471558 0.664377 -0.574112
O6    O     O_3   0.267344 0.416812 0.362191 -0.555122
O7    O     O_3   0.286094 0.090166 0.490774 -0.565421
O8    O     O_3   0.714241 0.910405 0.508430 -0.545668
O9    O     O_3   0.121530 0.663382 0.534793 -0.523191
O10   O     O_3   0.885216 0.346669 0.456860 -0.523473
O11   O     O_3   0.248405 0.472302 0.763049 -0.551671
O12   O     O_R   0.568940 0.307530 0.495980 -0.573475
O13   O     O_3   0.278685 0.449188 0.262407 -0.558259
O14   O     O_3   0.754011 0.580387 0.239624 -0.591890
O15   O     O_3   0.733978 0.496309 0.734562 -0.578977
O16   O     O_3   0.340441 0.790116 0.135705 -0.544076
O17   O     O_3   0.512969 0.151632 0.878896 -0.529514
O18   O     O_3   0.306679 0.765301 0.040530 -0.557789
O19   O     O_3   0.498478 0.160620 0.977910 -0.539359
O20   O     O_3   0.489105 0.833590 0.968414 -0.564968
O21   O     O_3   0.705302 0.240202 0.014218 -0.573013
O22   O     O_R   0.651120 0.659650 0.491200 -0.569456
O23   O     O_R   0.348880 0.340350 0.508800 -0.579434
O24   O     O_R   0.389980 0.516390 0.577660 -0.621245
O25   O     O_R   0.610020 0.483610 0.422340 -0.680413
O26   O     O_R   0.610040 0.483570 0.564830 -0.569597
O27   O     O_R   0.389960 0.516430 0.435170 -0.528154
O28   O     O_2   0.464861 0.693698 0.798023 -0.539997
Zn1   Zn    Zn3+2 0.353060 0.521910 0.508560 1.070852
Zn2   Zn    Zn3+2 0.646940 0.478090 0.491440 1.046094

loop_
_geom_bond_atom_site_label_1
_geom_bond_atom_site_label_2
_ccdc_geom_bond_type
C49   H16   S    
C57   H39   S    
C45   C60   A    
C34   C56   A    
C23   C45   A    
C53   H29   S    
C58   H43   S    
C54   H35   S    
C42   H45   S    
C28   C56   A    
C39   C41   A    
C39   O13   S    
C31   C40   A    
C29   N1    A    
C55   H36   S    
C49   H18   S    
C17   O25   A    
C47   H10   S    
C5    C11   A    
C50   O13   S    
O27   Zn1   S    
C51   H24   S    
C11   C14   A    
C3    C33   A    
C55   H37   S    
C48   H15   S    
C44   H5    S    
C16   O24   A    
C38   O11   S    
C24   F3    S    
C22   F4    S    
C50   H19   S    
C51   H25   S    
C23   C62   A    
C14   O16   S    
C60   H1    S    
C43   H2    S    
C32   C41   A    
C31   C33   A    
C11   O18   S    
C44   H4    S    
C13   O19   S    
C31   O15   S    
C46   H6    S    
C37   O6    S    
C27   C45   A    
C57   H40   S    
C30   O3    S    
C59   O21   S    
C12   O12   A    
C29   O4    S    
C53   H30   S    
C59   H46   S    
C15   O17   S    
O1    Zn1   S    
C54   H32   S    
C53   O16   S    
C32   C35   A    
C49   H17   S    
C18   O20   S    
C28   N2    A    
C32   O14   S    
C53   H31   S    
C44   O7    S    
C12   C21   S    
C8    C18   A    
C55   O18   S    
C47   O9    S    
C25   F2    S    
C12   O23   A    
C43   O6    S    
C26   F1    S    
C1    O1    A    
C5    C9    A    
C51   O14   S    
C58   O20   S    
C54   O17   S    
C61   H12   S    
C59   H47   S    
O12   Zn2   S    
C52   O15   S    
C52   H27   S    
C52   H28   S    
C21   O7    S    
O23   Zn1   S    
C50   H21   S    
C43   H51   S    
C4    C17   S    
C42   O5    S    
C42   H50   S    
C57   H41   S    
C20   C22   D    
C27   O28   S    
C7    C19   A    
C13   C15   A    
C9    C34   A    
C22   C24   S    
C54   H33   S    
C52   H26   S    
C36   O5    S    
C47   H11   S    
N3    O10   S    
C35   H23   S    
N4    O9    S    
C46   H8    S    
C48   H13   S    
C18   C60   A    
C7    C9    A    
C49   O11   S    
C29   C62   A    
C1    C20   S    
C19   O21   S    
C58   H44   S    
C8    C10   A    
C17   O27   A    
O26   Zn2   S    
C20   O8    S    
C51   H22   S    
C46   O8    S    
C5    C8    A    
C28   O2    S    
C6    C7    A    
C27   N1    A    
C10   C23   A    
N3    Zn2   S    
C57   O19   S    
C2    C30   A    
C33   H34   S    
N4    Zn1   S    
C48   H14   S    
C36   C38   A    
O25   Zn2   S    
C25   C26   S    
C47   H9    S    
C37   C39   A    
C1    O22   A    
C6    C13   A    
C38   C40   A    
C2    C34   A    
C16   O26   A    
C30   N2    A    
C3    C36   A    
C19   C61   A    
C59   H48   S    
C55   H38   S    
C15   C62   A    
C58   H42   S    
C41   N2    S    
C2    C14   A    
C4    C35   A    
C6    C10   A    
C50   H20   S    
C43   H52   S    
O24   Zn1   S    
C42   H49   S    
C40   N1    S    
C4    C37   A    
O22   Zn2   S    
C21   C24   D    
C44   H3    S    
C56   C61   A    
C48   O10   S    
C26   N4    D    
C25   N3    D    
C46   H7    S    
C3    C16   S    
