data_mof_unit_19545.cif
_audit_creation_date              2012-12-11T15:26:41-0500
_audit_creation_method            fapswitch 2.2
_symmetry_space_group_name_H-M    P1
_symmetry_Int_Tables_number       1
_space_group_crystal_system       triclinic
_cell_length_a                    8.46329
_cell_length_b                    15.414969
_cell_length_c                    18.917067
_cell_angle_alpha                 95.767532
_cell_angle_beta                  95.257131
_cell_angle_gamma                 99.376223
_cell_volume                      2407.94162376

loop_
_atom_site_label
_atom_site_type_symbol
_atom_type_description
_atom_site_fract_x
_atom_site_fract_y
_atom_site_fract_z
_atom_type_partial_charge
Ba1   Ba    Ba6+2 0.161750 0.544670 0.467760 1.803050
Ba2   Ba    Ba6+2 0.648430 0.455320 0.532180 1.763283
C1    C     C_3   0.579264 0.884992 0.258733 0.318340
C2    C     C_3   0.494210 0.796325 0.282048 0.820856
C3    C     C_3   0.564301 0.726546 0.640938 0.275456
C4    C     C_3   0.556411 0.824573 0.653888 -0.249100
C5    C     C_3   0.825484 0.206803 0.671783 0.343553
C6    C     C_3   0.738484 0.113465 0.678096 -0.123841
C7    C     C_3   0.356426 0.271607 0.734826 0.315495
C8    C     C_3   0.357853 0.248595 0.813023 0.653718
C9    C     C_R   0.643786 0.834286 0.460609 -0.026145
C10   C     C_R   0.886741 0.799474 0.525770 -0.007810
C11   C     C_R   0.066936 0.235258 0.526131 -0.255027
C12   C     C_3   0.979810 0.782385 0.291037 0.344609
C13   C     C_R   0.159431 0.176763 0.554603 -0.025625
C14   C     C_R   0.096672 0.085837 0.546890 -0.030790
C15   C     C_R   0.939725 0.050707 0.512907 0.024152
C16   C     C_R   0.858142 0.110810 0.476123 -0.096924
C17   C     C_R   0.865492 0.957271 0.510355 -0.059968
C18   C     C_R   0.708093 0.927918 0.471208 -0.149382
C19   C     C_R   0.626134 0.993646 0.442937 0.356370
C20   C     C_R   0.712717 0.076745 0.435633 -0.024732
C21   C     C_R   0.934757 0.892686 0.548909 0.366123
C22   C     C_R   0.741351 0.773452 0.481771 -0.346639
C23   C     C_3   0.045865 0.866071 0.258525 0.265588
C24   C     C_R   0.920053 0.204797 0.483258 0.091299
C25   C     C_R   0.612320 0.545510 0.304507 -0.254432
C26   C     C_R   0.458338 0.498547 0.280923 0.070347
C27   C     C_R   0.406140 0.486672 0.207891 -0.006165
C28   C     C_R   0.509070 0.511978 0.156671 0.041483
C29   C     C_R   0.667689 0.553600 0.181140 -0.032834
C30   C     C_R   0.716978 0.572094 0.254423 -0.006699
C31   C     C_R   0.553360 0.484229 0.027132 -0.032730
C32   C     C_R   0.500609 0.477848 0.954358 -0.037702
C33   C     C_R   0.341024 0.483915 0.930852 0.060565
C34   C     C_3   0.759332 0.363590 0.323630 0.399285
C35   C     C_R   0.236045 0.498356 0.982300 -0.061979
C36   C     C_R   0.290158 0.507528 0.055273 -0.034660
C37   C     C_R   0.449463 0.499776 0.078823 0.093776
C38   C     C_R   0.130311 0.431910 0.824907 -0.114611
C39   C     C_R   0.081790 0.423591 0.751272 -0.005022
C40   C     C_R   0.342471 0.506278 0.732740 0.026257
C41   C     C_R   0.390479 0.514505 0.806103 -0.116552
C42   C     C_R   0.286280 0.476437 0.852983 -0.012422
C43   C     C_R   0.190278 0.458398 0.705348 -0.286502
C44   C     C_3   0.698767 0.349584 0.244615 -0.194627
C45   C     C_3   0.050643 0.642268 0.681230 0.308541
C46   C     C_3   0.088769 0.661821 0.762053 -0.336244
C47   C     C_3   0.217645 0.257644 0.253212 0.776386
C48   C     C_3   0.292384 0.179981 0.214106 0.516422
H1    H     H_    0.740510 0.292635 0.216581 0.258244
H2    H     H_    0.567106 0.337628 0.237626 0.111318
H3    H     H_    0.742792 0.407696 0.218198 0.044272
H4    H     H_    0.152200 0.617469 0.657836 -0.007359
H5    H     H_    0.939682 0.591621 0.669209 0.055561
H6    H     H_    0.995266 0.695591 0.784818 0.148828
H7    H     H_    0.589147 0.762600 0.305663 -0.376283
H8    H     H_    0.709574 0.884291 0.261410 -0.031950
H9    H     H_    0.691798 0.718027 0.640067 0.048213
H10   H     H_    0.496057 0.701130 0.587883 0.032288
H11   H     H_    0.614582 0.852898 0.708098 0.178018
H12   H     H_    0.617367 0.860805 0.613392 0.083221
H13   H     H_    0.428837 0.833103 0.649753 0.178191
H14   H     H_    0.571746 0.939473 0.300061 0.038788
H15   H     H_    0.608608 0.112221 0.681130 0.162025
H16   H     H_    0.750170 0.068335 0.630127 0.073454
H17   H     H_    0.787614 0.087857 0.726530 0.212606
H18   H     H_    0.231458 0.278861 0.715878 -0.145990
H19   H     H_    0.114961 0.305428 0.533643 0.060829
H20   H     H_    0.173694 0.043369 0.567281 0.190693
H21   H     H_    0.654024 0.120393 0.406099 0.203754
H22   H     H_    0.507114 0.553105 0.826708 0.084119
H23   H     H_    0.675991 0.476971 0.042693 0.072218
H24   H     H_    0.281771 0.462342 0.192505 0.169929
H25   H     H_    0.113245 0.505319 0.966257 0.076366
H26   H     H_    0.047176 0.403323 0.859876 0.090938
H27   H     H_    0.752039 0.574288 0.143885 0.102107
H28   H     H_    0.152380 0.453143 0.648648 0.054516
H29   H     H_    0.655559 0.554052 0.360818 0.045339
H30   H     H_    0.020393 0.923845 0.292809 -0.040036
H31   H     H_    0.177639 0.872642 0.259516 0.137059
H32   H     H_    0.876684 0.409041 0.331498 0.079798
O1    O     O_2   0.164990 0.721870 0.541490 -0.440985
O2    O     O_3   0.342271 0.318427 0.299992 -0.668461
O3    O     O_3   0.014631 0.708320 0.250532 -0.503409
O4    O     O_2   0.645300 0.278070 0.458480 -0.431379
O5    O     O_3   0.917280 0.391520 0.460790 -0.510154
O6    O     O_3   0.421200 0.332510 0.586090 -0.481180
O7    O     O_3   0.777400 0.281586 0.345798 -0.483352
O8    O     O_3   0.383620 0.545480 0.584560 -0.492656
O9    O     O_3   0.845920 0.377940 0.622610 -0.524512
O10   O     O_2   0.752780 0.430756 0.744756 -0.438840
O11   O     O_3   0.801935 0.266001 0.730217 -0.506037
O12   O     O_3   0.893010 0.608480 0.539150 -0.528468
O13   O     O_3   0.426680 0.454510 0.415380 -0.493899
O14   O     O_2   0.638220 0.542340 0.670930 -0.472835
O15   O     O_3   0.497996 0.684352 0.696631 -0.629389
O16   O     O_2   0.495677 0.177744 0.563520 -0.427088
O17   O     O_3   0.407069 0.205789 0.689732 -0.606330
O18   O     O_3   0.389100 0.667490 0.413860 -0.466984
O19   O     O_2   0.309960 0.812217 0.461552 -0.370273
O20   O     O_3   0.027860 0.721283 0.655051 -0.547124
O21   O     O_3   0.382264 0.811489 0.330872 -0.605681
O22   O     O_2   0.172070 0.457600 0.329050 -0.405760
O23   O     O_3   0.964370 0.622050 0.377340 -0.517039
O24   O     O_2   0.022512 0.543063 0.254247 -0.399431
P1    P     P_3+3 0.990670 0.707470 0.561860 1.066346
P2    P     P_3+3 0.340140 0.430100 0.338890 1.096333
P3    P     P_3+3 0.928159 0.612734 0.284579 1.050856
P4    P     P_3+3 0.819620 0.292520 0.438080 1.142600
P5    P     P_3+3 0.872705 0.375110 0.714107 1.009046
P6    P     P_3+3 0.437885 0.782250 0.416427 1.078438
P7    P     P_3+3 0.466513 0.569538 0.673664 0.951240
P8    P     P_3+3 0.367286 0.221832 0.599115 1.019918
S1    S     S_3+6 0.389597 0.719784 0.210218 -0.015367
O25   O     O_2   0.310696 0.641114 0.241578 -0.307654
O26   O     O_2   0.260693 0.756720 0.170485 -0.214001
O27   O     O_3   0.518142 0.692570 0.153167 -0.514765
H33   H     H_    0.455062 0.681353 0.105435 0.371746
H34   H     H_    0.208196 0.705266 0.775674 0.154118
H35   H     H_    0.090067 0.600031 0.786802 0.049899
S2    S     S_3+6 0.093126 0.300878 0.185263 -0.061513
O28   O     O_2   0.959414 0.227351 0.152456 -0.226463
O29   O     O_2   0.019526 0.374581 0.217212 -0.347588
O30   O     O_3   0.188477 0.336969 0.117113 -0.513314
H36   H     H_    0.101801 0.341147 0.079431 0.373282
S3    S     S_3+6 0.089157 0.205428 0.312442 -0.064782
O31   O     O_2   0.918835 0.180775 0.278841 -0.208707
O32   O     O_2   0.135424 0.122135 0.335331 -0.369548
O33   O     O_3   0.112130 0.279714 0.384555 -0.573275
H37   H     H_    0.215108 0.273371 0.411316 0.325931
S4    S     S_3+6 0.519708 0.917783 0.171571 0.115805
O34   O     O_2   0.529497 0.849644 0.110441 -0.179128
O35   O     O_2   0.352029 0.937458 0.166109 -0.199461
O36   O     O_3   0.645911 0.010044 0.161049 -0.381349
H38   H     H_    0.652455 0.008053 0.108900 0.418304
H39   H     H_    0.192378 0.122620 0.202178 0.031020
S5    S     S_3+6 0.444279 0.143802 0.271922 0.022851
O37   O     O_2   0.600470 0.149914 0.240251 -0.173357
O38   O     O_2   0.471944 0.199019 0.342783 -0.261526
O39   O     O_3   0.384610 0.039269 0.287011 -0.439572
H40   H     H_    0.270406 0.023477 0.268013 0.350727
S6    S     S_3+6 0.355291 0.187598 0.124971 0.076818
O40   O     O_2   0.451311 0.116742 0.106747 -0.168358
O41   O     O_2   0.209206 0.171286 0.070862 -0.141525
O42   O     O_3   0.466839 0.285811 0.116963 -0.537060
H41   H     H_    0.527137 0.274934 0.075554 0.394475
S7    S     S_3+6 0.960372 0.868379 0.168015 0.057047
O43   O     O_2   0.065767 0.840808 0.113534 -0.115444
O44   O     O_2   0.802793 0.806164 0.153673 -0.223736
O45   O     O_3   0.935949 0.972123 0.156196 -0.416284
H42   H     H_    0.945386 0.004650 0.204512 0.348591
H43   H     H_    0.774902 0.224645 0.620298 0.036367
H44   H     H_    0.955950 0.206122 0.669876 0.003910
H45   H     H_    0.437965 0.335813 0.734444 0.041056
H46   H     H_    0.311224 0.301576 0.844504 -0.092654
S8    S     S_3+6 0.553849 0.244998 0.856727 0.017009
O46   O     O_2   0.538879 0.232986 0.933901 -0.234004
O47   O     O_2   0.620713 0.168516 0.822627 -0.206186
O48   O     O_3   0.680396 0.339919 0.853599 -0.551171
H47   H     H_    0.770559 0.340116 0.890779 0.351713
H48   H     H_    0.038543 0.787895 0.346761 0.022271
S9    S     S_3+6 0.227069 0.147109 0.820976 0.071248
O49   O     O_2   0.209555 0.139490 0.898698 -0.129246
O50   O     O_2   0.063592 0.147233 0.783176 -0.310117
O51   O     O_3   0.303944 0.059630 0.787069 -0.403304
H49   H     H_    0.293119 0.061008 0.734935 0.382180
H50   H     H_    0.696780 0.703267 0.468326 0.060958
S10   S     S_3+6 0.420232 0.999658 0.450780 -0.052589
O52   O     O_2   0.303033 0.944308 0.393329 -0.292370
O53   O     O_2   0.383554 0.974661 0.522952 -0.310144
O54   O     O_3   0.389172 0.102872 0.444330 -0.446985
H51   H     H_    0.271887 0.098775 0.443296 0.373011
S11   S     S_3+6 0.021363 0.922330 0.639541 -0.091415
O55   O     O_2   0.193434 0.908864 0.645813 -0.289059
O56   O     O_2   0.014144 0.016270 0.666117 -0.334079
O57   O     O_3   0.918797 0.859716 0.693509 -0.536259
H52   H     H_    0.977950 0.877772 0.741773 0.398857
H53   H     H_    0.585293 0.467936 0.916364 0.119722
H54   H     H_    0.848572 0.777472 0.292377 -0.054673
H55   H     H_    0.207350 0.522576 0.093099 0.124275
H56   H     H_    0.671920 0.393749 0.353917 -0.065536

loop_
_geom_bond_atom_site_label_1
_geom_bond_atom_site_label_2
_ccdc_geom_bond_type
C34   O7    S    
Ba1   O5    S    
S6    O42   S    
C6    H16   S    
C8    S9    S    
C23   H30   S    
S10   O52   D    
C2    S1    S    
C17   C18   A    
C16   C24   A    
S7    O45   S    
O17   P8    S    
C48   H39   S    
O36   H38   S    
C46   H34   S    
C21   S11   S    
C1    H14   S    
O54   H51   S    
O19   P6    D    
C10   C21   A    
C31   C37   A    
C36   H55   S    
C4    H11   S    
Ba1   O22   S    
C26   C27   A    
S9    O50   D    
C35   C36   A    
S7    O44   D    
C32   C33   A    
O3    P3    S    
C3    C4    S    
S6    O40   D    
O16   P8    D    
C13   C14   A    
C2    O21   S    
C44   H2    S    
C9    C22   A    
S6    O41   D    
Ba1   Ba2   S    
O8    P7    S    
O9    P5    S    
Ba2   O8    S    
O27   H33   S    
O2    P2    S    
S11   O55   D    
S8    O46   D    
C29   C30   A    
C34   H32   S    
S4    O34   D    
S1    O26   D    
C2    H7    S    
O45   H42   S    
Ba2   O6    S    
C43   H28   S    
C7    C8    S    
C24   P4    S    
O30   H36   S    
C25   C30   A    
C6    H15   S    
C7    O17   S    
C45   O20   S    
C19   C20   A    
C35   H25   S    
C23   H31   S    
S10   O53   D    
C32   H53   S    
S4    O35   D    
C5    O11   S    
Ba1   O18   S    
C31   C32   A    
C47   S3    S    
O12   P1    S    
C30   P3    S    
C3    H9    S    
C1    S4    S    
Ba2   O12   S    
S9    O51   S    
C14   H20   S    
S7    O43   D    
S5    O37   D    
C8    H46   S    
C46   H35   S    
O5    P4    S    
C14   C15   A    
C27   H24   S    
O4    P4    D    
C9    C18   A    
C38   H26   S    
O21   P6    S    
C40   C43   A    
C4    H13   S    
C12   H48   S    
C17   C21   A    
C41   C42   A    
S3    O32   D    
C27   C28   A    
C40   P7    S    
C45   C46   S    
C5    H43   S    
C28   C29   A    
Ba1   O13   S    
S1    O27   S    
C15   C16   A    
C13   P8    S    
O20   P1    S    
C34   C44   S    
C33   C42   S    
C8    S8    S    
S11   O57   S    
Ba1   P1    S    
C45   H4    S    
C31   H23   S    
C38   C39   A    
C3    O15   S    
O18   P6    S    
S8    O48   S    
C11   C13   A    
O51   H49   S    
S10   O54   S    
O14   P7    D    
C34   H56   S    
C40   C41   A    
O15   P7    S    
C1    C2    S    
Ba1   O8    S    
C20   H21   S    
O22   P2    D    
C48   S6    S    
C33   C35   A    
C45   H5    S    
O42   H41   S    
C47   O2    S    
C46   H6    S    
C41   H22   S    
O23   P3    S    
Ba2   P4    S    
C29   H27   S    
C3    H10   S    
C22   H50   S    
C9    P6    S    
C16   C20   A    
O7    P4    S    
C12   O3    S    
S5    O39   S    
Ba2   O13   S    
Ba1   O12   S    
C10   P1    S    
C48   S5    S    
O10   P5    D    
S3    O31   D    
S5    O38   D    
Ba1   O1    S    
C10   C22   A    
C25   H29   S    
O48   H47   S    
C4    H12   S    
S2    O30   S    
Ba2   O14   S    
O33   H37   S    
C7    H18   S    
O11   P5    S    
O39   H40   S    
C36   C37   A    
C5    H44   S    
C11   H19   S    
C26   P2    S    
S4    O36   S    
C19   S10   S    
C47   S2    S    
C44   H1    S    
C44   H3    S    
C15   C17   A    
O1    P1    D    
C28   C37   S    
Ba2   O4    S    
C23   S7    S    
C12   C23   S    
O6    P8    S    
Ba2   O9    S    
C11   C24   A    
S11   O56   D    
S3    O33   S    
S9    O49   D    
C5    C6    S    
O13   P2    S    
O57   H52   S    
Ba1   P2    S    
C1    H8    S    
Ba2   O5    S    
C38   C42   A    
C18   C19   A    
C7    H45   S    
C6    H17   S    
S8    O47   D    
C47   C48   S    
C39   P5    S    
C25   C26   A    
C39   C43   A    
S2    O28   D    
S2    O29   D    
C12   H54   S    
S1    O25   D    
Ba1   O23   S    
O24   P3    D    
