data_mof_unit_38918.cif
_audit_creation_date              2012-12-11T14:28:35-0500
_audit_creation_method            fapswitch 2.2
_symmetry_space_group_name_H-M    P1
_symmetry_Int_Tables_number       1
_space_group_crystal_system       triclinic
_cell_length_a                    11.066234
_cell_length_b                    19.143797
_cell_length_c                    18.370456
_cell_angle_alpha                 89.874293
_cell_angle_beta                  90.854492
_cell_angle_gamma                 89.288507
_cell_volume                      3891.03243986

loop_
_atom_site_label
_atom_site_type_symbol
_atom_type_description
_atom_site_fract_x
_atom_site_fract_y
_atom_site_fract_z
_atom_type_partial_charge
C1    C     C_R   0.318780 0.969494 0.646132 0.542689
C2    C     C_R   0.322067 0.970780 0.852292 0.530555
C3    C     C_R   0.322858 0.029993 0.353082 0.560407
C4    C     C_R   0.318849 0.031711 0.145146 0.522366
C5    C     C_R   0.818783 0.469502 0.646140 0.543805
C6    C     C_R   0.822153 0.471089 0.852013 0.525123
C7    C     C_R   0.822859 0.529998 0.353087 0.560739
C8    C     C_R   0.818927 0.532270 0.144759 0.522563
C9    C     C_3   0.149013 0.721510 0.467121 -0.123437
C10   C     C_3   0.156044 0.717134 0.033340 -0.113893
C11   C     C_3   0.038784 0.329106 0.507868 -0.119547
C12   C     C_3   0.143648 0.242917 0.963419 -0.109739
C13   C     C_3   0.649004 0.221534 0.467110 -0.123517
C14   C     C_3   0.649240 0.214029 0.031903 -0.115084
C15   C     C_3   0.538719 0.829090 0.507866 -0.119253
C16   C     C_3   0.669708 0.729385 0.967499 -0.144460
C17   C     C_3   0.019199 0.726212 0.438274 0.051278
C18   C     C_3   0.028039 0.728668 0.061965 0.061006
C19   C     C_3   0.024732 0.269961 0.562343 0.051727
C20   C     C_3   0.020601 0.270353 0.937576 0.057886
C21   C     C_3   0.519189 0.226211 0.438273 0.051238
C22   C     C_3   0.522080 0.226999 0.061050 0.057734
C23   C     C_3   0.524744 0.769941 0.562349 0.052975
C24   C     C_3   0.554413 0.757426 0.932772 0.068100
C25   C     C_R   0.340420 0.989910 0.421509 -0.003272
C26   C     C_R   0.322191 0.001432 0.070940 -0.043708
C27   C     C_R   0.324223 0.002311 0.573331 -0.009697
C28   C     C_R   0.338074 0.012447 0.919389 -0.043383
C29   C     C_R   0.840419 0.489938 0.421528 -0.003334
C30   C     C_R   0.823312 0.503688 0.069891 -0.044294
C31   C     C_R   0.824235 0.502339 0.573350 -0.010202
C32   C     C_R   0.838332 0.514215 0.918212 -0.043229
C33   C     C_R   0.556652 0.992172 0.431203 -0.091533
C34   C     C_R   0.539485 0.974268 0.078510 -0.064117
C35   C     C_R   0.545381 0.015604 0.580421 -0.074489
C36   C     C_R   0.560066 0.999142 0.930395 -0.086877
C37   C     C_R   0.056656 0.492206 0.431216 -0.091494
C38   C     C_R   0.041409 0.479399 0.077375 -0.060865
C39   C     C_R   0.045399 0.515608 0.580438 -0.074678
C40   C     C_R   0.060613 0.500827 0.928686 -0.082848
C41   C     C_R   0.660851 0.990416 0.473486 0.103897
C42   C     C_R   0.652332 0.966308 0.046727 0.111429
C43   C     C_R   0.656296 0.001524 0.549063 0.136186
C44   C     C_R   0.662246 0.976705 0.970247 0.097651
C45   C     C_R   0.160856 0.490439 0.473495 0.103886
C46   C     C_R   0.153484 0.469979 0.045422 0.108902
C47   C     C_R   0.156306 0.501521 0.549076 0.136187
C48   C     C_R   0.162292 0.477581 0.968565 0.103716
C49   C     C_R   0.437743 0.007722 0.539768 -0.074329
C50   C     C_R   0.444982 0.003124 0.961998 -0.047898
C51   C     C_R   0.444855 0.999610 0.463415 -0.053394
C52   C     C_R   0.435753 0.993751 0.037697 -0.045005
C53   C     C_R   0.937756 0.507743 0.539786 -0.074310
C54   C     C_R   0.945950 0.506937 0.960645 -0.054102
C55   C     C_R   0.944861 0.499637 0.463431 -0.053375
C56   C     C_R   0.937245 0.498425 0.036618 -0.048930
C57   C     C_R   0.220836 0.995650 0.527588 0.030890
C58   C     C_R   0.230770 0.031173 0.953566 -0.001538
C59   C     C_R   0.237606 0.970006 0.456897 0.013815
C60   C     C_R   0.216099 0.008659 0.025818 0.010964
C61   C     C_R   0.720844 0.495695 0.527612 0.030875
C62   C     C_R   0.730943 0.532228 0.952492 0.001307
C63   C     C_R   0.737602 0.470049 0.456922 0.013832
C64   C     C_R   0.717104 0.509400 0.024760 0.007516
C65   C     C_R   0.103024 0.017228 0.546568 0.107664
C66   C     C_R   0.132011 0.061546 0.913919 0.130992
C67   C     C_R   0.141144 0.943592 0.416623 0.105004
C68   C     C_R   0.095588 0.998015 0.049841 0.136054
C69   C     C_R   0.603033 0.517259 0.546608 0.107998
C70   C     C_R   0.631018 0.560880 0.912560 0.135557
C71   C     C_R   0.641139 0.443620 0.416662 0.104916
C72   C     C_R   0.597113 0.496936 0.048606 0.131697
C73   C     C_R   0.009405 0.008561 0.495256 -0.141054
C74   C     C_R   0.016845 0.058267 0.942396 -0.111369
C75   C     C_R   0.027733 0.968559 0.432467 -0.103086
C76   C     C_R   0.998625 0.026120 0.009121 -0.143250
C77   C     C_R   0.509400 0.508564 0.495316 -0.140909
C78   C     C_R   0.516160 0.555867 0.940885 -0.109960
C79   C     C_R   0.527728 0.468551 0.432534 -0.103196
C80   C     C_R   0.499273 0.523691 0.007649 -0.144270
C81   C     C_R   0.131817 0.757534 0.644442 0.538528
C82   C     C_R   0.133462 0.757555 0.855655 0.547583
C83   C     C_R   0.131572 0.243113 0.355021 0.541043
C84   C     C_R   0.130342 0.243497 0.145371 0.539873
C85   C     C_R   0.631818 0.257533 0.644441 0.540083
C86   C     C_R   0.631915 0.257209 0.855177 0.540650
C87   C     C_R   0.631590 0.743109 0.355027 0.540674
C88   C     C_R   0.630044 0.743630 0.145736 0.540569
C89   C     C_R   0.497692 0.786770 0.637138 0.556866
C90   C     C_R   0.538226 0.770393 0.856445 0.576199
C91   C     C_R   0.494715 0.211509 0.362296 0.569016
C92   C     C_R   0.495830 0.212399 0.136879 0.570490
C93   C     C_R   0.997685 0.286776 0.637139 0.559652
C94   C     C_R   0.996344 0.287419 0.862142 0.569443
C95   C     C_R   0.994719 0.711510 0.362297 0.568862
C96   C     C_R   0.998000 0.713182 0.136708 0.569749
C97   C     C_3   0.997654 0.795369 0.478643 -0.114094
C98   C     C_3   0.015891 0.798844 0.021952 -0.110490
C99   C     C_3   0.141727 0.234654 0.538488 -0.116247
C100  C     C_3   0.954630 0.221565 0.989824 -0.123498
C101  C     C_3   0.497610 0.295354 0.478655 -0.114235
C102  C     C_3   0.512703 0.297725 0.021804 -0.106908
C103  C     C_3   0.641816 0.734686 0.538510 -0.116556
C104  C     C_3   0.474727 0.715854 0.984792 -0.113955
C105  C     C_3   0.128458 0.790204 0.508444 -0.114998
C106  C     C_3   0.144175 0.787197 0.992324 -0.108240
C107  C     C_3   0.157243 0.294379 0.483570 -0.097845
C108  C     C_3   0.079934 0.195092 0.017522 -0.111559
C109  C     C_3   0.628416 0.290213 0.508448 -0.115201
C110  C     C_3   0.640360 0.284647 0.991943 -0.109367
C111  C     C_3   0.657257 0.794419 0.483583 -0.097721
C112  C     C_3   0.592607 0.688146 0.021175 -0.111483
C113  C     C_3   0.082143 0.747532 0.572455 0.057343
C114  C     C_3   0.088385 0.747802 0.927873 0.061504
C115  C     C_3   0.083242 0.253106 0.427332 0.061399
C116  C     C_3   0.081209 0.254139 0.073010 0.050009
C117  C     C_3   0.582142 0.247523 0.572455 0.057148
C118  C     C_3   0.583226 0.246839 0.926857 0.060319
C119  C     C_3   0.583308 0.753093 0.427347 0.061445
C120  C     C_3   0.591067 0.751341 0.071527 0.057274
C121  C     C_3   0.952117 0.753312 0.544556 -0.141167
C122  C     C_3   0.961179 0.760181 0.955697 -0.153832
C123  C     C_3   0.068588 0.193073 0.481703 -0.129671
C124  C     C_3   0.956601 0.280191 0.047569 -0.160074
C125  C     C_3   0.452112 0.253276 0.544562 -0.141036
C126  C     C_3   0.456177 0.260618 0.955020 -0.149600
C127  C     C_3   0.568739 0.693050 0.481725 -0.129489
C128  C     C_3   0.473598 0.778673 0.037328 -0.162544
C129  C     C_3   0.971876 0.684051 0.502408 -0.134064
C130  C     C_3   0.972226 0.689695 0.997327 -0.144424
C131  C     C_3   0.949883 0.227827 0.507561 -0.145142
C132  C     C_3   0.020863 0.328432 0.993470 -0.114375
C133  C     C_3   0.471911 0.184030 0.502401 -0.133995
C134  C     C_3   0.464041 0.189578 0.995910 -0.143776
C135  C     C_3   0.449954 0.727751 0.507566 -0.144738
C136  C     C_3   0.550327 0.820276 0.983561 -0.095595
C137  C     C_3   0.103087 0.679007 0.531663 -0.111292
C138  C     C_3   0.100809 0.677984 0.968161 -0.112235
C139  C     C_3   0.964791 0.287491 0.451261 -0.146796
C140  C     C_3   0.146078 0.301806 0.019467 -0.079296
C141  C     C_3   0.603125 0.179011 0.531648 -0.111306
C142  C     C_3   0.592227 0.176446 0.966281 -0.113477
C143  C     C_3   0.464781 0.787421 0.451260 -0.147108
C144  C     C_3   0.668599 0.792720 0.018411 -0.083528
Cr1   Cr    Cr6+3 0.488160 0.884660 0.750000 1.019944
Cr2   Cr    Cr6+3 0.488160 0.115340 0.250000 0.991612
Cr3   Cr    Cr6+3 0.988160 0.384660 0.750000 1.016803
Cr4   Cr    Cr6+3 0.988160 0.615340 0.250000 0.992508
Cr5   Cr    Cr6+3 0.173480 0.883120 0.750000 1.021344
Cr6   Cr    Cr6+3 0.173480 0.116880 0.250000 0.989482
Cr7   Cr    Cr6+3 0.673480 0.383120 0.750000 1.015918
Cr8   Cr    Cr6+3 0.673480 0.616880 0.250000 0.988728
Cr9   Cr    Cr6+3 0.333410 0.727260 0.750000 1.005669
Cr10  Cr    Cr6+3 0.333410 0.272740 0.250000 1.003875
Cr11  Cr    Cr6+3 0.833410 0.227260 0.750000 1.004294
Cr12  Cr    Cr6+3 0.833410 0.772740 0.250000 1.004177
H1    H     H_    0.194611 0.832970 0.514077 0.123680
H2    H     H_    0.214531 0.827800 0.987876 0.119029
H3    H     H_    0.242254 0.322240 0.473717 0.128465
H4    H     H_    0.112695 0.143301 0.035578 0.146978
H5    H     H_    0.694543 0.332990 0.514087 0.123775
H6    H     H_    0.712489 0.324280 0.988281 0.115916
H7    H     H_    0.742255 0.822320 0.473736 0.128439
H8    H     H_    0.615494 0.636499 0.043951 0.154420
H9    H     H_    0.925869 0.036343 0.502452 0.147831
H10   H     H_    0.941900 0.082846 0.913396 0.126840
H11   H     H_    0.960058 0.960782 0.391111 0.133132
H12   H     H_    0.908573 0.025580 0.030176 0.122920
H13   H     H_    0.425848 0.536323 0.502530 0.147886
H14   H     H_    0.440162 0.578808 0.911485 0.120956
H15   H     H_    0.460049 0.460732 0.391199 0.133325
H16   H     H_    0.409492 0.522522 0.028553 0.123139
H17   H     H_    0.950495 0.841338 0.454671 0.131897
H18   H     H_    0.978696 0.847384 0.045429 0.153245
H19   H     H_    0.207755 0.210109 0.576875 0.125376
H20   H     H_    0.877529 0.188491 0.973415 0.120054
H21   H     H_    0.450445 0.341323 0.454693 0.131900
H22   H     H_    0.477228 0.346458 0.045827 0.154980
H23   H     H_    0.707852 0.710162 0.576915 0.124156
H24   H     H_    0.394628 0.685156 0.968334 0.123953
H25   H     H_    0.878441 0.769852 0.580974 0.118532
H26   H     H_    0.888501 0.781565 0.919636 0.124262
H27   H     H_    0.083306 0.137905 0.466394 0.141940
H28   H     H_    0.882436 0.296033 0.084284 0.111723
H29   H     H_    0.378421 0.269768 0.580982 0.119411
H30   H     H_    0.383614 0.283191 0.919775 0.125353
H31   H     H_    0.583634 0.637868 0.466428 0.141950
H32   H     H_    0.396034 0.799645 0.068410 0.105514
H33   H     H_    0.904009 0.642306 0.497001 0.117808
H34   H     H_    0.901385 0.649641 0.002513 0.112831
H35   H     H_    0.869484 0.198196 0.523856 0.117817
H36   H     H_    0.985645 0.379177 0.976464 0.137941
H37   H     H_    0.404071 0.142274 0.496985 0.117879
H38   H     H_    0.390425 0.151015 0.999861 0.112132
H39   H     H_    0.369574 0.698079 0.523827 0.117880
H40   H     H_    0.521527 0.871332 0.962588 0.159914
H41   H     H_    0.153653 0.634751 0.555870 0.138870
H42   H     H_    0.139289 0.629802 0.944216 0.126419
H43   H     H_    0.893605 0.309383 0.414239 0.129190
H44   H     H_    0.229186 0.331103 0.030955 0.155373
H45   H     H_    0.653718 0.134758 0.555839 0.138902
H46   H     H_    0.629200 0.128372 0.941446 0.126366
H47   H     H_    0.393636 0.809323 0.414250 0.129115
H48   H     H_    0.749964 0.822975 0.032232 0.153312
H49   H     H_    0.227173 0.708268 0.432412 0.134618
H50   H     H_    0.235428 0.699334 0.066396 0.128127
H51   H     H_    0.024330 0.382967 0.525158 0.146058
H52   H     H_    0.213855 0.224417 0.925584 0.136219
H53   H     H_    0.727151 0.208320 0.432383 0.134684
H54   H     H_    0.727346 0.194524 0.064995 0.130416
H55   H     H_    0.524177 0.882966 0.525144 0.146064
H56   H     H_    0.741276 0.705077 0.934447 0.120067
H57   H     H_    0.563875 0.979102 0.374051 0.140222
H58   H     H_    0.532698 0.960487 0.135486 0.152437
H59   H     H_    0.544505 0.030235 0.637290 0.153893
H60   H     H_    0.571372 0.010989 0.873286 0.152028
H61   H     H_    0.063879 0.479141 0.374063 0.140480
H62   H     H_    0.035326 0.465140 0.134229 0.157043
H63   H     H_    0.044530 0.530223 0.637312 0.153648
H64   H     H_    0.071737 0.511294 0.871284 0.152166
O1    O     O_R   0.575450 0.828820 0.667950 -0.501304
O2    O     O_R   0.575450 0.828820 0.832050 -0.502873
O3    O     O_R   0.575450 0.171180 0.332050 -0.515362
O4    O     O_R   0.575450 0.171180 0.167950 -0.516215
O5    O     O_R   0.075450 0.328820 0.667950 -0.496621
O6    O     O_R   0.075450 0.328820 0.832050 -0.487421
O7    O     O_R   0.075450 0.671180 0.332050 -0.515430
O8    O     O_R   0.075450 0.671180 0.167950 -0.515693
O9    O     O_R   0.416860 0.942890 0.674680 -0.531043
O10   O     O_R   0.416860 0.942890 0.825320 -0.515268
O11   O     O_R   0.416860 0.057110 0.325320 -0.531274
O12   O     O_R   0.416860 0.057110 0.174680 -0.520248
O13   O     O_R   0.916860 0.442890 0.674680 -0.530892
O14   O     O_R   0.916860 0.442890 0.825320 -0.528685
O15   O     O_R   0.916860 0.557110 0.325320 -0.531031
O16   O     O_R   0.916860 0.557110 0.174680 -0.520806
O17   O     O_R   0.213790 0.953680 0.668330 -0.489283
O18   O     O_R   0.213790 0.953680 0.831670 -0.505912
O19   O     O_R   0.213790 0.046320 0.331670 -0.503957
O20   O     O_R   0.213790 0.046320 0.168330 -0.521182
O21   O     O_R   0.713790 0.453680 0.668330 -0.488157
O22   O     O_R   0.713790 0.453680 0.831670 -0.505176
O23   O     O_R   0.713790 0.546320 0.331670 -0.503648
O24   O     O_R   0.713790 0.546320 0.168330 -0.522642
O25   O     O_R   0.121360 0.817890 0.672660 -0.503852
O26   O     O_R   0.121360 0.817890 0.827340 -0.497540
O27   O     O_R   0.121360 0.182110 0.327340 -0.507130
O28   O     O_R   0.121360 0.182110 0.172660 -0.511207
O29   O     O_R   0.621360 0.317890 0.672660 -0.501833
O30   O     O_R   0.621360 0.317890 0.827340 -0.497979
O31   O     O_R   0.621360 0.682110 0.327340 -0.507185
O32   O     O_R   0.621360 0.682110 0.172660 -0.514689
O33   O     O_R   0.206850 0.711370 0.665820 -0.543060
O34   O     O_R   0.206850 0.711370 0.834180 -0.539885
O35   O     O_R   0.206850 0.288630 0.334180 -0.543272
O36   O     O_R   0.206850 0.288630 0.165820 -0.513586
O37   O     O_R   0.706850 0.211370 0.665820 -0.542645
O38   O     O_R   0.706850 0.211370 0.834180 -0.545240
O39   O     O_R   0.706850 0.788630 0.334180 -0.543637
O40   O     O_R   0.706850 0.788630 0.165820 -0.511172
O41   O     O_R   0.457710 0.733190 0.672630 -0.510192
O42   O     O_R   0.457710 0.733190 0.827370 -0.495462
O43   O     O_R   0.457710 0.266810 0.327370 -0.521223
O44   O     O_R   0.457710 0.266810 0.172630 -0.495094
O45   O     O_R   0.957710 0.233190 0.672630 -0.504861
O46   O     O_R   0.957710 0.233190 0.827370 -0.486743
O47   O     O_R   0.957710 0.766810 0.327370 -0.521371
O48   O     O_R   0.957710 0.766810 0.172630 -0.495358
O49   O     O_3   0.331690 0.831680 0.750000 -0.284314
O50   O     O_3   0.331690 0.168320 0.250000 -0.295619
O51   O     O_3   0.831690 0.331680 0.750000 -0.303536
O52   O     O_3   0.831690 0.668320 0.250000 -0.294189
N1    N     N_3   0.769523 0.974011 0.438340 -0.685311
H65   H     H_    0.780690 0.012361 0.398324 0.220989
H66   H     H_    0.759321 0.926226 0.411622 0.229247
N2    N     N_3   0.750205 0.946052 0.094897 -0.632782
H67   H     H_    0.826268 0.927666 0.068664 0.229046
H68   H     H_    0.774756 0.989918 0.125231 0.221135
N3    N     N_3   0.760566 0.997083 0.595838 -0.635440
H69   H     H_    0.816890 0.956111 0.579115 0.261788
H70   H     H_    0.805497 0.044615 0.593684 0.213754
N4    N     N_3   0.765218 0.956203 0.928313 -0.631491
H71   H     H_    0.800729 0.000735 0.904524 0.219601
H72   H     H_    0.832401 0.929438 0.957360 0.230038
N5    N     N_3   0.269521 0.474037 0.438343 -0.685350
H73   H     H_    0.280716 0.512404 0.398351 0.221176
H74   H     H_    0.259304 0.426269 0.411601 0.229349
N6    N     N_3   0.250980 0.449685 0.093896 -0.639854
H75   H     H_    0.324687 0.427247 0.068463 0.228545
H76   H     H_    0.279367 0.494120 0.122003 0.222410
N7    N     N_3   0.260552 0.496998 0.595853 -0.635515
H77   H     H_    0.316880 0.456055 0.579073 0.262001
H78   H     H_    0.305492 0.544521 0.593801 0.213604
N8    N     N_3   0.263769 0.454297 0.926792 -0.627508
H79   H     H_    0.299475 0.497297 0.900197 0.218260
H80   H     H_    0.331447 0.429006 0.956824 0.228114
N9    N     N_3   0.161907 0.903145 0.352092 -0.633925
H81   H     H_    0.124191 0.854114 0.359716 0.250730
H82   H     H_    0.116678 0.926703 0.307889 0.245649
N10   N     N_3   0.067812 0.952833 0.109824 -0.648851
H83   H     H_    0.026901 0.982128 0.150836 0.248290
H84   H     H_    0.145060 0.927462 0.130626 0.246271
N11   N     N_3   0.081402 0.056292 0.611741 -0.609361
H85   H     H_    0.043175 0.104626 0.597616 0.227258
H86   H     H_    0.017119 0.029579 0.641830 0.243365
N12   N     N_3   0.147390 0.099858 0.847257 -0.604100
H87   H     H_    0.108548 0.071478 0.804571 0.258771
H88   H     H_    0.238690 0.106937 0.836046 0.219993
N13   N     N_3   0.661894 0.403164 0.352135 -0.633681
H89   H     H_    0.624205 0.354129 0.359771 0.250729
H90   H     H_    0.616636 0.426708 0.307936 0.245929
N14   N     N_3   0.570983 0.451478 0.108633 -0.647288
H91   H     H_    0.529090 0.480329 0.149617 0.248679
H92   H     H_    0.649089 0.426986 0.129399 0.246287
N15   N     N_3   0.581422 0.556327 0.611781 -0.610660
H93   H     H_    0.543161 0.604653 0.597659 0.227011
H94   H     H_    0.517172 0.529609 0.641887 0.243089
N16   N     N_3   0.644636 0.598593 0.845337 -0.619677
H95   H     H_    0.605551 0.569623 0.803173 0.258808
H96   H     H_    0.735562 0.606092 0.833426 0.218654

loop_
_geom_bond_atom_site_label_1
_geom_bond_atom_site_label_2
_ccdc_geom_bond_type
C6    C32   S    
Cr1   O10   S    
C7    C29   S    
C119  C143  S    
Cr4   O52   S    
N7    H77   S    
C120  C144  S    
C47   N7    S    
C110  C118  S    
C41   N1    S    
N11   H86   S    
Cr10  O44   S    
N4    H71   S    
C4    O12   A    
C121  H25   S    
C16   C144  S    
Cr8   O24   S    
C57   C59   A    
Cr1   O1    S    
C8    O24   A    
C58   C60   A    
C62   C70   A    
C61   C63   A    
C69   N15   S    
C62   C64   A    
Cr10  O43   S    
C144  H48   S    
C23   C103  S    
C91   O43   A    
C49   C51   A    
C34   C42   A    
C84   O36   A    
C50   C52   A    
C38   H62   S    
C23   C89   S    
C5    O21   A    
C13   H53   S    
C71   N13   S    
C88   O32   A    
C97   C105  S    
C40   H64   S    
C73   C75   A    
C42   C44   A    
C20   C132  S    
C21   C133  S    
Cr3   O6    S    
Cr10  O35   S    
C45   C47   A    
C112  H8    S    
C46   C48   A    
C115  C123  S    
Cr2   O50   S    
C27   C57   A    
C87   O39   A    
C112  C120  S    
Cr11  O38   S    
C33   H57   S    
C29   C55   A    
C30   C56   A    
C100  C124  S    
C81   O25   A    
Cr11  O51   S    
N11   H85   S    
C104  C128  S    
C12   C20   S    
N12   H87   S    
C13   C21   S    
C85   C117  S    
Cr11  O45   S    
C137  H41   S    
C113  C137  S    
C36   C44   A    
C33   C51   A    
C80   H16   S    
C37   C45   A    
C130  C138  S    
C36   C50   A    
N10   H83   S    
C39   C47   A    
C40   C48   A    
Cr9   O33   S    
C133  C141  S    
C24   C90   S    
C28   C58   A    
C98   C106  S    
C140  H44   S    
C33   C41   A    
N5    H74   S    
C66   N12   S    
C10   C18   S    
C76   H12   S    
N3    H70   S    
C95   O7    A    
C2    C28   S    
C32   C62   A    
C93   O5    A    
C134  H38   S    
C129  C137  S    
C126  C134  S    
Cr6   O19   S    
C83   O27   A    
C10   C138  S    
C81   O33   A    
Cr10  O50   S    
C130  H34   S    
C57   C65   A    
C96   O48   A    
C143  H47   S    
C14   C142  S    
C85   O29   A    
Cr5   O26   S    
C69   C77   A    
Cr4   O8    S    
Cr6   O50   S    
C71   C79   A    
C110  H6    S    
Cr6   O28   S    
C68   N10   S    
C74   C76   A    
C96   O8    A    
C105  C113  S    
N7    H78   S    
C124  H28   S    
C89   O1    A    
C78   C80   A    
C9    C105  S    
C66   C74   A    
C78   H14   S    
N14   H91   S    
C124  C132  S    
C125  H29   S    
C20   C94   S    
C97   C121  S    
C59   C67   A    
C95   O47   A    
C129  H33   S    
C35   C49   A    
C123  H27   S    
C35   C43   A    
C132  H36   S    
C24   C136  S    
C135  C143  S    
C6    O14   A    
C84   C116  S    
N9    H82   S    
C11   H51   S    
Cr7   O30   S    
Cr2   O11   S    
N13   H90   S    
C100  C108  S    
C82   O26   A    
C83   C115  S    
C103  C127  S    
C70   N16   S    
C73   H9    S    
C3    O11   A    
C104  C112  S    
C94   O6    A    
C1    O17   A    
N6    H76   S    
C87   C119  S    
Cr7   O21   S    
Cr2   O4    S    
C127  H31   S    
Cr12  O48   S    
C44   N4    S    
C43   N3    S    
C15   C143  S    
C40   C54   A    
C102  H22   S    
C10   C106  S    
C67   C75   A    
Cr3   O13   S    
Cr8   O32   S    
C14   C110  S    
Cr1   O9    S    
C102  C126  S    
C68   C76   A    
C38   C56   A    
N4    H72   S    
C84   O28   A    
Cr4   O15   S    
C85   O37   A    
C14   C22   S    
C10   H50   S    
C42   N2    S    
C72   C80   A    
C36   H60   S    
N1    H66   S    
C114  C138  S    
C90   O42   A    
C38   C46   A    
C131  C139  S    
C2    O10   A    
C37   C55   A    
Cr3   O14   S    
C113  C121  S    
N2    H67   S    
C133  H37   S    
C22   C92   S    
C6    O22   A    
C25   C59   A    
C17   C97   S    
C27   C49   A    
C119  C127  S    
C29   C63   A    
C30   C64   A    
C41   C43   A    
C31   C61   A    
C37   H61   S    
Cr3   O5    S    
C109  C117  S    
Cr10  O36   S    
C65   N11   S    
C11   C19   S    
C142  H46   S    
C127  C135  S    
C136  H40   S    
C128  C136  S    
N8    H79   S    
Cr11  O37   S    
C93   O45   A    
C101  C109  S    
C45   N5    S    
C103  C111  S    
C79   H15   S    
C11   C139  S    
C86   O38   A    
Cr3   O51   S    
C9    C137  S    
C105  H1    S    
C100  H20   S    
N12   H88   S    
N3    H69   S    
C12   C140  S    
C17   C95   S    
C13   C141  S    
C88   C120  S    
C19   C93   S    
Cr12  O39   S    
C77   C79   A    
N15   H93   S    
Cr5   O25   S    
C67   N9    S    
C32   C54   A    
N10   H84   S    
C7    O15   A    
C126  H30   S    
C97   H17   S    
Cr8   O23   S    
C35   H59   S    
C34   H58   S    
Cr1   O2    S    
C83   O35   A    
C117  C141  S    
N5    H73   S    
C134  C142  S    
C20   C100  S    
C92   O4    A    
Cr5   O18   S    
C4    O20   A    
C86   C118  S    
C63   C71   A    
C8    O16   A    
C22   C134  S    
Cr6   O20   S    
C102  C110  S    
C91   O3    A    
C74   H10   S    
C16   C112  S    
C12   C108  S    
C21   C91   S    
C39   H63   S    
C19   C99   S    
C116  C124  S    
C123  C131  S    
C128  H32   S    
C121  C129  S    
C4    C26   S    
C120  C128  S    
Cr12  O52   S    
C132  C140  S    
C99   C107  S    
Cr4   O16   S    
C34   C52   A    
C23   C135  S    
C8    C30   S    
C108  C116  S    
Cr5   O49   S    
C136  C144  S    
C39   C53   A    
N14   H92   S    
C103  H23   S    
Cr11  O46   S    
C101  H21   S    
C88   O40   A    
C135  H39   S    
C60   C68   A    
C81   C113  S    
Cr5   O17   S    
C82   O34   A    
C9    H49   S    
C3    O19   A    
C86   O30   A    
Cr9   O34   S    
C70   C78   A    
C18   C96   S    
N9    H81   S    
Cr7   O29   S    
Cr2   O12   S    
N13   H89   S    
C106  C114  S    
C12   H52   S    
C111  C119  S    
C141  H45   S    
C90   O2    A    
C98   H18   S    
C139  H43   S    
C65   C73   A    
Cr1   O49   S    
C15   H55   S    
C28   C50   A    
C58   C66   A    
C13   C109  S    
C21   C101  S    
C15   C23   S    
C16   C24   S    
C5    O13   A    
Cr12  O40   S    
Cr4   O7    S    
C53   C55   A    
C19   C131  S    
Cr6   O27   S    
C94   O46   A    
C54   C56   A    
N15   H94   S    
C14   H54   S    
C17   C129  S    
C15   C111  S    
C16   H56   S    
C111  H7    S    
C82   C114  S    
C2    O18   A    
C106  H2    S    
C24   C104  S    
C25   C51   A    
N16   H95   S    
C26   C52   A    
C101  C125  S    
C125  C133  S    
N1    H65   S    
C99   H19   S    
C92   O44   A    
C31   C53   A    
Cr9   O42   S    
C107  C115  S    
C98   C122  S    
C138  H42   S    
C48   N8    S    
C9    C17   S    
N2    H68   S    
C11   C107  S    
N16   H96   S    
Cr9   O41   S    
C72   N14   S    
C99   C123  S    
C61   C69   A    
Cr9   O49   S    
C115  C139  S    
C118  C142  S    
C107  H3    S    
C108  H4    S    
C131  H35   S    
C118  C126  S    
C22   C102  S    
C46   N6    S    
N6    H75   S    
C87   O31   A    
C109  H5    S    
Cr7   O22   S    
N8    H80   S    
Cr2   O3    S    
Cr7   O51   S    
C104  H24   S    
Cr12  O47   S    
C26   C60   A    
Cr8   O52   S    
C64   C72   A    
C18   C130  S    
C114  C122  S    
C1    O9    A    
C122  H26   S    
C3    C25   S    
C89   O41   A    
C77   H13   S    
C7    O23   A    
C1    C27   S    
C75   H11   S    
C18   C98   S    
C116  C140  S    
C117  C125  S    
C122  C130  S    
Cr8   O31   S    
C5    C31   S    
