data_mof_unit_12298.cif
_audit_creation_date              2013-03-05T16:12:44-0500
_audit_creation_method            fapswitch 2.2
_symmetry_space_group_name_H-M    P1
_symmetry_Int_Tables_number       1
_space_group_crystal_system       triclinic
_cell_length_a                    10.704202
_cell_length_b                    9.802102
_cell_length_c                    27.577549
_cell_angle_alpha                 90.020009
_cell_angle_beta                  89.898698
_cell_angle_gamma                 90.02419
_cell_volume                      2893.53296565

loop_
_atom_site_label
_atom_site_type_symbol
_atom_site_description
_atom_site_fract_x
_atom_site_fract_y
_atom_site_fract_z
_atom_type_partial_charge
O1    O     O_R   0.316770 0.614620 0.500000 -0.626335
O2    O     O_R   0.683230 0.385380 0.500000 -0.626531
O3    O     O_R   0.683230 0.614620 0.500000 -0.628190
O4    O     O_R   0.316770 0.385380 0.500000 -0.629101
C1    C     C_R   0.259775 0.499958 0.499954 0.865600
C2    C     C_R   0.740219 0.500016 0.500085 0.865670
O5    O     O_R   0.500030 0.614650 0.428760 -0.620568
O6    O     O_R   0.499970 0.385350 0.571240 -0.616800
O7    O     O_R   0.499970 0.614650 0.571240 -0.617888
O8    O     O_R   0.500030 0.385350 0.428760 -0.614711
C3    C     C_R   0.498932 0.499926 0.405582 0.890676
C4    C     C_R   0.501192 0.499968 0.594381 0.891916
Zn1   Zn    Zn3+2 0.500000 0.653120 0.500000 0.947629
Zn2   Zn    Zn3+2 0.500000 0.346880 0.500000 0.943033
C5    C     C_R   0.395903 0.599678 0.178842 0.484613
C6    C     C_R   0.600537 0.606244 0.821051 0.484506
O9    O     O_2   0.289903 0.604553 0.205383 -0.559709
O10   O     O_2   0.706076 0.617999 0.794505 -0.559975
N1    N     N_R   0.507116 0.570380 0.200764 -0.351767
N2    N     N_R   0.491079 0.569829 0.799125 -0.351522
C7    C     C_R   0.617375 0.572142 0.175766 0.509622
C8    C     C_R   0.380942 0.564312 0.824129 0.510033
C9    C     C_R   0.549413 0.644021 0.282279 -0.138825
C10   C     C_R   0.445825 0.641616 0.717667 -0.138544
C11   C     C_R   0.548312 0.624936 0.331625 -0.262821
C12   C     C_R   0.447428 0.622650 0.668309 -0.261471
C13   C     C_R   0.459159 0.396131 0.321344 0.124497
C14   C     C_R   0.545540 0.398290 0.678429 0.123563
C15   C     C_R   0.466846 0.414391 0.270008 0.182949
C16   C     C_R   0.538018 0.416369 0.729773 0.181884
C17   C     C_R   0.508343 0.541526 0.251520 0.263037
C18   C     C_R   0.491292 0.541237 0.748346 0.263420
C19   C     C_R   0.503445 0.618958 0.101869 -0.052971
C20   C     C_R   0.492172 0.618431 0.898037 -0.052699
C21   C     C_R   0.391530 0.621425 0.128772 -0.021952
C22   C     C_R   0.603746 0.628227 0.871130 -0.021998
C23   C     C_R   0.278006 0.643039 0.105114 -0.137595
C24   C     C_R   0.715895 0.657285 0.894790 -0.138266
C25   C     C_R   0.617851 0.598598 0.125921 -0.023589
C26   C     C_R   0.379066 0.590585 0.873986 -0.023599
C27   C     C_R   0.502042 0.504000 0.352084 -0.102428
C28   C     C_R   0.498147 0.503983 0.647817 -0.101672
H1    H     H_    0.191129 0.649609 0.125202 0.190409
H2    H     H_    0.802251 0.669549 0.874699 0.190353
C29   C     C_R   0.380544 0.628423 0.975581 0.045995
C30   C     C_R   0.614344 0.636187 0.024330 0.046127
C31   C     C_R   0.610514 0.646829 0.973176 0.045365
C32   C     C_R   0.383784 0.639407 0.026732 0.045477
C33   C     C_R   0.494229 0.632821 0.949068 0.071279
C34   C     C_R   0.500620 0.633129 0.050840 0.071184
C35   C     C_R   0.267865 0.605748 0.950105 -0.216304
C36   C     C_R   0.728053 0.621042 0.049809 -0.216033
C37   C     C_R   0.267553 0.586007 0.900270 -0.140275
C38   C     C_R   0.729426 0.601391 0.099642 -0.140315
O11   O     O_2   0.274135 0.532134 0.800808 -0.559326
O12   O     O_2   0.725720 0.546918 0.199072 -0.558710
C39   C     C_R   0.273906 0.651500 0.054907 -0.219196
C40   C     C_R   0.719534 0.666072 0.944999 -0.219467
H3    H     H_    0.409621 0.703442 0.645895 0.180310
H4    H     H_    0.582765 0.707585 0.354029 0.180075
H5    H     H_    0.409153 0.735929 0.732442 0.154798
H6    H     H_    0.582191 0.740117 0.267579 0.154546
H7    H     H_    0.179373 0.565063 0.882517 0.189127
H8    H     H_    0.818582 0.586314 0.117395 0.188599
H9    H     H_    0.178724 0.595538 0.967966 0.139376
H10   H     H_    0.817599 0.616732 0.031951 0.138626
H11   H     H_    0.183154 0.668415 0.039121 0.139361
H12   H     H_    0.809204 0.688952 0.960785 0.140161
C41   C     C_R   0.063863 0.379683 0.511514 -0.188065
C42   C     C_R   0.936125 0.620198 0.488637 -0.187579
C43   C     C_R   0.935911 0.379814 0.511706 -0.193248
C44   C     C_R   0.064050 0.620108 0.488504 -0.188005
H13   H     H_    0.112668 0.286434 0.520763 0.156510
H14   H     H_    0.887344 0.713442 0.479358 0.155510
H15   H     H_    0.886939 0.286694 0.521131 0.151548
H16   H     H_    0.112980 0.713304 0.479153 0.151273
C45   C     C_R   0.872571 0.500032 0.500190 -0.012709
C46   C     C_R   0.127411 0.499867 0.499945 -0.015328
C47   C     C_R   0.586151 0.072148 0.526406 -0.083950
C48   C     C_R   0.413960 0.927861 0.473533 -0.073518
C49   C     C_R   0.413842 0.072009 0.473606 -0.086294
C50   C     C_R   0.586038 0.927995 0.526470 -0.075085
H17   H     H_    0.654996 0.127058 0.547403 0.130388
H18   H     H_    0.345338 0.872952 0.452386 0.127004
H19   H     H_    0.344970 0.126815 0.452639 0.134669
H20   H     H_    0.654650 0.873188 0.547617 0.132117
N3    N     N_R   0.500000 0.857200 0.500000 -0.079924
N4    N     N_R   0.500000 0.142800 0.500000 -0.077195
C51   C     C_3   0.398888 0.268103 0.342727 -0.416783
C52   C     C_3   0.268436 0.298380 0.362657 -0.827451
H21   H     H_    0.271632 0.374467 0.392382 0.256783
H22   H     H_    0.207726 0.338058 0.333239 0.267707
H23   H     H_    0.226203 0.203100 0.377017 0.236619
H24   H     H_    0.388341 0.184629 0.316226 0.212374
H25   H     H_    0.459221 0.221332 0.370669 0.226942
C53   C     C_3   0.609744 0.272862 0.656815 -0.414144
C54   C     C_3   0.738368 0.308514 0.636203 -0.835012
H26   H     H_    0.731617 0.384914 0.606703 0.254806
H27   H     H_    0.798943 0.350021 0.665362 0.269105
H28   H     H_    0.782986 0.215194 0.621309 0.234871
H29   H     H_    0.624000 0.190035 0.683287 0.213141
H30   H     H_    0.550237 0.223520 0.629140 0.225922
C55   C     C_3   0.433828 0.300397 0.234633 -0.403781
C56   C     C_3   0.538600 0.194822 0.231694 -0.862499
H31   H     H_    0.624507 0.242941 0.216832 0.284778
H32   H     H_    0.560407 0.151350 0.267827 0.252759
H33   H     H_    0.510218 0.110453 0.207188 0.256402
H34   H     H_    0.343346 0.252257 0.244258 0.215182
H35   H     H_    0.419066 0.338622 0.197326 0.218209
C57   C     C_3   0.576800 0.304516 0.765070 -0.403918
C58   C     C_3   0.476411 0.194067 0.768716 -0.861047
H36   H     H_    0.455068 0.149136 0.732750 0.252759
H37   H     H_    0.508984 0.111458 0.793158 0.257124
H38   H     H_    0.389224 0.238201 0.783992 0.284662
H39   H     H_    0.668705 0.260592 0.754974 0.215392
H40   H     H_    0.591558 0.343982 0.802229 0.218320

loop_
_geom_bond_atom_site_label_1
_geom_bond_atom_site_label_2
_geom_bond_distance
_ccdc_geom_bond_type
C43   H15   1.083878 S    
C23   H1    1.083527 S    
C10   H5    1.083615 S    
C53   H30   1.106049 S    
C13   C15   1.429267 A    
C58   H36   1.109197 S    
C44   H16   1.083798 S    
O3    C2    1.278538 A    
N1    C17   1.428201 S    
C56   H32   1.109152 S    
C54   H26   1.108406 S    
C32   C39   1.413485 A    
C31   C33   1.418787 A    
O5    C3    1.293358 A    
C19   C25   1.408071 A    
C16   C57   1.524632 S    
O1    C1    1.278613 A    
N1    C7    1.365870 A    
C10   C12   1.373829 A    
C48   N3    1.365274 A    
C25   C38   1.396174 A    
C29   C35   1.414361 A    
C50   N3    1.365306 A    
C30   C36   1.414385 A    
C15   C55   1.524894 S    
C35   H9    1.077679 S    
C51   H24   1.102781 S    
C41   C43   1.369622 A    
O7    Zn1   2.000612 S    
C57   C58   1.528281 S    
C47   N4    1.365121 A    
C4    C28   1.474446 S    
C24   C40   1.387902 A    
C9    H6    1.083600 S    
C47   H17   1.081212 S    
C42   H14   1.083757 S    
C44   C46   1.396562 A    
C41   H13   1.083738 S    
C55   H34   1.109043 S    
C11   H4    1.083625 S    
C12   H3    1.083741 S    
O3    Zn1   1.997463 S    
O6    C4    1.291979 A    
C32   C34   1.418776 A    
C53   H29   1.102855 S    
C42   C45   1.396613 A    
C41   C46   1.396826 A    
O2    C2    1.278352 A    
C39   H11   1.078130 S    
C5    C21   1.398115 A    
C56   H31   1.111072 S    
C54   H27   1.110844 S    
C36   C38   1.387875 A    
C48   H18   1.081797 S    
O8    Zn2   2.000617 S    
C11   C27   1.402806 A    
O4    C1    1.278335 A    
C2    C45   1.416735 S    
C19   C34   1.414520 A    
C50   H20   1.081767 S    
C35   C37   1.387823 A    
C9    C17   1.386552 A    
C51   H25   1.106031 S    
C5    N1    1.366767 A    
C10   C18   1.386798 A    
C24   H2    1.083522 S    
C47   C50   1.413001 A    
C13   C27   1.430977 A    
C52   H22   1.110867 S    
C7    C25   1.398933 A    
C29   C33   1.419197 A    
C6    N2    1.366677 A    
C8    C26   1.398861 A    
C53   C54   1.528992 S    
Zn1   N3    2.000413 S    
C58   H37   1.110439 S    
C40   H12   1.078131 S    
N2    C8    1.365785 A    
C20   C26   1.408082 A    
O1    Zn1   1.997151 S    
C22   C24   1.396545 A    
C57   H40   1.106763 S    
C43   C45   1.396732 A    
C54   H28   1.110392 S    
C36   H10   1.077683 S    
C12   C28   1.402171 A    
C52   H23   1.110280 S    
N2    C18   1.428030 S    
C29   C32   1.415189 A    
C5    O9    1.350002 S    
C30   C31   1.415241 A    
C20   C33   1.414530 A    
O6    Zn2   2.000353 S    
C21   C23   1.396550 A    
C48   C49   1.412956 A    
C7    O12   1.349896 S    
C8    O11   1.349945 S    
C30   C34   1.419201 A    
C55   H35   1.106697 S    
C14   C53   1.529025 S    
C14   C16   1.429057 A    
C51   C52   1.528917 S    
Zn2   N4    2.000413 S    
C15   C17   1.417547 A    
C6    C22   1.398182 A    
C31   C40   1.413483 A    
C16   C18   1.417675 A    
C37   H7    1.083599 S    
C52   H21   1.108622 S    
C38   H8    1.083587 S    
C14   C28   1.430363 A    
C19   C21   1.408182 A    
C13   C51   1.528826 S    
C58   H38   1.111057 S    
C20   C22   1.408204 A    
C9    C11   1.373742 A    
O4    Zn2   1.997463 S    
O2    Zn2   1.997151 S    
O7    C4    1.292924 A    
C49   H19   1.080958 S    
C49   N4    1.365053 A    
O8    C3    1.292498 A    
O5    Zn1   2.000359 S    
C6    O10   1.349984 S    
C26   C37   1.396134 A    
C3    C27   1.476217 S    
C55   C56   1.528354 S    
C42   C44   1.369334 A    
C1    C46   1.416853 S    
C57   H39   1.109055 S    
C56   H33   1.110436 S    
C23   C39   1.387861 A    
