data_mof_unit_37231.cif
_audit_creation_date              2012-12-10T17:36:50-0500
_audit_creation_method            fapswitch 2.2
_symmetry_space_group_name_H-M    P1
_symmetry_Int_Tables_number       1
_space_group_crystal_system       triclinic
_cell_length_a                    10.675657
_cell_length_b                    12.345993
_cell_length_c                    13.281603
_cell_angle_alpha                 117.617738
_cell_angle_beta                  76.73209
_cell_angle_gamma                 100.999943
_cell_volume                      1502.42850716

loop_
_atom_site_label
_atom_site_type_symbol
_atom_type_description
_atom_site_fract_x
_atom_site_fract_y
_atom_site_fract_z
_atom_type_partial_charge
C1    C     C_R   0.513389 0.854456 0.286069 0.935240
C2    C     C_3   0.021485 0.038511 0.611436 -0.200063
C3    C     C_3   0.932484 0.924313 0.544463 0.114415
C4    C     C_3   0.875216 0.001265 0.505315 -0.177960
C5    C     C_R   0.650910 0.297283 0.971856 0.643472
C6    C     C_R   0.509864 0.230414 0.830416 -0.124643
C7    C     C_R   0.426543 0.804093 0.107075 0.089535
C8    C     C_R   0.419339 0.728241 0.988894 0.240779
C9    C     C_R   0.475178 0.615075 0.931980 0.162409
C10   C     C_R   0.523890 0.573186 0.997445 -0.010579
C11   C     C_R   0.560489 0.661401 0.103643 -0.096022
C12   C     C_R   0.739544 0.000750 0.502123 0.907870
C13   C     C_R   0.543602 0.448323 0.959701 0.024452
C14   C     C_R   0.627840 0.420067 0.010669 -0.068840
C15   C     C_R   0.690468 0.515574 0.097014 -0.227711
C16   C     C_R   0.655949 0.634961 0.144713 0.575251
C17   C     C_R   0.478338 0.350703 0.875612 -0.212003
C18   C     C_R   0.593457 0.203222 0.880919 -0.279461
C19   C     C_R   0.504369 0.774077 0.162743 -0.121986
C20   C     C_R   0.720267 0.349144 0.337471 0.469988
C21   C     C_R   0.309480 0.748475 0.633252 0.346835
C22   C     C_R   0.258133 0.637659 0.640883 0.112287
C23   C     C_R   0.487395 0.145906 0.713188 0.787968
C24   C     C_R   0.331356 0.538997 0.587536 -0.248541
C25   C     C_R   0.453347 0.545569 0.523270 0.030471
C26   C     C_R   0.495489 0.652630 0.504525 0.216947
C27   C     C_R   0.530832 0.445100 0.470945 -0.059219
C28   C     C_R   0.645264 0.448858 0.393524 -0.067384
C29   C     C_R   0.682443 0.551449 0.372087 -0.190858
C30   C     C_R   0.607428 0.649523 0.424492 -0.187377
C31   C     C_R   0.500304 0.341051 0.493770 -0.145016
C32   C     C_R   0.682078 0.247473 0.360111 0.709082
C33   C     C_R   0.260073 0.001114 0.500645 0.800925
C34   C     C_3   0.978588 0.966768 0.396931 0.644948
C35   C     C_3   0.035730 0.889127 0.435366 0.038705
C36   C     C_3   0.123926 0.003052 0.501125 -0.148605
C37   C     C_3   0.067116 0.080793 0.462444 0.057597
C38   C     C_3   0.963468 0.115015 0.571277 0.095464
Cu1   Cu    Cu3+1 0.529830 0.098270 0.475420 1.002849
Cu2   Cu    Cu3+1 0.470170 0.901730 0.524580 0.940939
H1    H     H_    0.406418 0.367198 0.840130 0.166244
H2    H     H_    0.771334 0.557173 0.315342 0.208742
H3    H     H_    0.420153 0.333763 0.557071 0.165595
H4    H     H_    0.288803 0.456268 0.595203 0.143382
H5    H     H_    0.639622 0.720909 0.399085 0.259765
H6    H     H_    0.040842 0.068170 0.699616 0.167695
H7    H     H_    0.620841 0.110800 0.845168 0.174746
H8    H     H_    0.765499 0.497529 0.128132 0.222018
N1    N     N_R   0.575030 0.246270 0.438190 -0.278769
N2    N     N_R   0.425760 0.754330 0.561190 -0.226183
O1    O     O_R   0.537510 0.972500 0.318130 -0.521547
O2    O     O_R   0.487140 0.806530 0.359650 -0.594032
O3    O     O_R   0.708330 0.082950 0.479220 -0.514925
O4    O     O_R   0.657960 0.916980 0.520740 -0.610347
O5    O     O_R   0.512860 0.193470 0.640350 -0.586845
O6    O     O_R   0.462490 0.027500 0.681870 -0.596038
O7    O     O_R   0.342040 0.083020 0.479260 -0.593271
O8    O     O_R   0.291670 0.917050 0.520780 -0.588459
C39   C     C_3   0.075178 0.759998 0.357380 -0.730876
H9    H     H_    0.990382 0.698433 0.320685 0.254109
H10   H     H_    0.152788 0.761155 0.286178 0.225603
H11   H     H_    0.110782 0.724825 0.407829 0.239477
C40   C     C_3   0.355033 0.918814 0.173521 -0.783441
H12   H     H_    0.279737 0.922617 0.130685 0.249414
H13   H     H_    0.303362 0.922808 0.257432 0.206956
H14   H     H_    0.424497 0.001861 0.187700 0.256325
C41   C     C_3   0.504088 0.552633 0.801337 -0.862001
H15   H     H_    0.575515 0.484440 0.767720 0.247845
H16   H     H_    0.413620 0.507276 0.765490 0.223831
H17   H     H_    0.549717 0.621222 0.768406 0.242935
C42   C     C_3   0.352954 0.769533 0.924862 -0.851069
H18   H     H_    0.248023 0.771397 0.959566 0.240149
H19   H     H_    0.396189 0.862260 0.934018 0.244352
H20   H     H_    0.360451 0.708523 0.831994 0.244520
F1    F     F_    0.725355 0.726368 0.222380 -0.665272
F2    F     F_    0.753329 0.150115 0.305031 -0.573810
F3    F     F_    0.829145 0.349728 0.260922 -0.602373
C43   C     C_3   0.228399 0.855559 0.706547 -0.743218
H21   H     H_    0.132568 0.832891 0.678902 0.205065
H22   H     H_    0.214536 0.873466 0.798176 0.204032
H23   H     H_    0.265348 0.943492 0.706668 0.264360
F4    F     F_    0.955282 0.929807 0.286849 -0.588562
C44   C     C_3   0.124415 0.622168 0.705778 -0.848918
H24   H     H_    0.117438 0.688300 0.798104 0.245264
H25   H     H_    0.050338 0.636743 0.667881 0.239198
H26   H     H_    0.100310 0.528679 0.701478 0.231301
C45   C     C_3   0.139792 0.171012 0.415781 -0.713933
H27   H     H_    0.069912 0.211316 0.395687 0.262640
H28   H     H_    0.194235 0.245698 0.481280 0.213339
H29   H     H_    0.208049 0.123193 0.336298 0.237948
C46   C     C_3   0.921261 0.243030 0.649762 -0.800375
H30   H     H_    0.004625 0.305778 0.688167 0.229795
H31   H     H_    0.885518 0.278252 0.599432 0.244897
H32   H     H_    0.842770 0.239415 0.719587 0.232141
C47   C     C_3   0.859328 0.837666 0.595013 -0.776965
H33   H     H_    0.927051 0.807260 0.626543 0.221572
H34   H     H_    0.783343 0.885165 0.667737 0.240425
H35   H     H_    0.814845 0.755898 0.527855 0.241527
F5    F     F_    0.733202 0.268911 0.018410 -0.628139

loop_
_geom_bond_atom_site_label_1
_geom_bond_atom_site_label_2
_ccdc_geom_bond_type
Cu1   O1    S    
C45   H27   S    
C40   H13   S    
C33   O8    A    
C29   H2    S    
C34   C37   S    
C30   H5    S    
C47   H33   S    
C18   H7    S    
C47   H35   S    
C7    C8    A    
C2    H6    S    
C11   C19   A    
C37   C38   S    
C31   H3    S    
C20   F3    S    
C36   C37   S    
C26   N2    A    
C43   H22   S    
C15   C16   A    
C16   F1    S    
C33   C36   S    
C35   C39   S    
C34   C35   S    
Cu1   O5    S    
C5    F5    S    
C8    C9    A    
C39   H11   S    
C21   C43   S    
C4    C12   S    
C9    C10   A    
C12   O3    A    
C40   H14   S    
C39   H9    S    
C21   C22   A    
C15   H8    S    
C31   N1    A    
C21   N2    A    
C6    C18   A    
C4    C34   S    
C39   H10   S    
Cu2   O8    S    
C27   C31   A    
C41   H15   S    
C23   O6    A    
C24   C25   A    
C46   H30   S    
C42   H19   S    
C43   H21   S    
C5    C18   A    
C20   C28   A    
Cu2   O6    S    
C25   C26   A    
Cu2   O2    S    
C1    C19   S    
C38   C46   S    
C41   H16   S    
C35   C36   S    
C9    C41   S    
C29   C30   A    
C46   H31   S    
C11   C16   A    
C2    C38   S    
C44   H24   S    
C3    C35   S    
C1    O1    A    
C7    C40   S    
C5    C14   A    
C44   H25   S    
C4    C38   S    
C26   C30   A    
C7    C19   A    
C45   H28   S    
C24   H4    S    
C22   C24   A    
C3    C4    S    
Cu1   Cu2   S    
C20   C32   A    
C2    C36   S    
C6    C17   A    
C28   C29   A    
C8    C42   S    
C33   O7    A    
Cu1   N1    S    
C37   C45   S    
C10   C13   A    
C32   F2    S    
C42   H20   S    
C47   H34   S    
C23   O5    A    
C25   C27   A    
Cu2   O4    S    
C13   C17   A    
C41   H17   S    
C22   C44   S    
C2    C3    S    
C42   H18   S    
C46   H32   S    
C43   H23   S    
Cu1   O3    S    
Cu2   N2    S    
C6    C23   S    
C1    O2    A    
C17   H1    S    
C32   N1    A    
C10   C11   A    
C40   H12   S    
C44   H26   S    
C45   H29   S    
C27   C28   A    
C14   C15   A    
C3    C47   S    
C34   F4    S    
C13   C14   A    
C12   O4    A    
Cu1   O7    S    
