data_mof_unit_22886.cif
_audit_creation_date              2012-12-11T15:28:46-0500
_audit_creation_method            fapswitch 2.2
_symmetry_space_group_name_H-M    P1
_symmetry_Int_Tables_number       1
_space_group_crystal_system       triclinic
_cell_length_a                    6.960619
_cell_length_b                    19.594796
_cell_length_c                    23.391191
_cell_angle_alpha                 96.085409
_cell_angle_beta                  91.253379
_cell_angle_gamma                 88.591049
_cell_volume                      3170.8364825

loop_
_atom_site_label
_atom_site_type_symbol
_atom_type_description
_atom_site_fract_x
_atom_site_fract_y
_atom_site_fract_z
_atom_type_partial_charge
O1    O     O_R   0.617180 0.809390 0.808140 -0.522513
O2    O     O_R   0.382820 0.190610 0.191860 -0.522513
O3    O     O_R   0.293300 0.672410 0.795490 -0.535227
O4    O     O_R   0.706700 0.327590 0.204510 -0.535227
O5    O     O_R   0.117220 0.690610 0.691850 -0.521669
O6    O     O_R   0.882780 0.309390 0.308150 -0.521668
C1    C     C_R   0.465037 0.647882 0.805309 0.696923
C2    C     C_R   0.534963 0.352118 0.194691 0.696923
O7    O     O_R   0.287840 0.807750 0.814460 -0.525593
O8    O     O_R   0.712160 0.192250 0.185540 -0.525593
O9    O     O_R   0.111720 0.826910 0.710960 -0.532250
O10   O     O_R   0.888280 0.173090 0.289040 -0.532250
C3    C     C_R   0.456523 0.830745 0.833173 0.714992
C4    C     C_R   0.543477 0.169255 0.166827 0.714991
O11   O     O_R   0.622680 0.673080 0.789040 -0.533708
O12   O     O_R   0.377320 0.326920 0.210960 -0.533708
O13   O     O_3   0.448820 0.756130 0.716020 -0.357488
O14   O     O_3   0.551180 0.243870 0.283980 -0.357488
V1    V     V_3+5 0.176220 0.748860 0.756300 1.426390
V2    V     V_3+5 0.823780 0.251140 0.243700 1.426390
O15   O     O_R   0.781670 0.827580 0.704500 -0.533651
O16   O     O_R   0.218330 0.172420 0.295500 -0.533652
C5    C     C_R   0.947644 0.851836 0.694095 0.699053
C6    C     C_R   0.052356 0.148164 0.305905 0.699053
O17   O     O_R   0.787130 0.692240 0.685530 -0.524652
O18   O     O_R   0.212870 0.307760 0.314470 -0.524653
C7    C     C_R   0.956084 0.669238 0.666793 0.717665
C8    C     C_R   0.043916 0.330762 0.333207 0.717665
V3    V     V_3+5 0.675510 0.751130 0.743690 1.431459
V4    V     V_3+5 0.324490 0.248870 0.256310 1.431459
O19   O     O_3   0.952780 0.743870 0.783980 -0.360167
O20   O     O_3   0.047220 0.256130 0.216020 -0.360166
C9    C     C_1   0.966585 0.617179 0.614735 -0.203393
C10   C     C_1   0.033415 0.382821 0.385265 -0.203393
C11   C     C_1   0.978157 0.573665 0.571919 0.019475
C12   C     C_1   0.021842 0.426335 0.428081 0.019475
C13   C     C_1   0.993410 0.521860 0.521315 0.022286
C14   C     C_1   0.006590 0.478139 0.478685 0.022286
C15   C     C_R   0.945134 0.914165 0.663587 -0.049878
C16   C     C_R   0.054866 0.085835 0.336413 -0.049878
C17   C     C_R   0.852808 0.033749 0.663075 -0.103974
C18   C     C_R   0.147192 0.966251 0.336925 -0.103974
C19   C     C_R   0.873754 0.975384 0.691805 -0.179500
C20   C     C_R   0.126246 0.024615 0.308195 -0.179500
C21   C     C_R   0.995574 0.911655 0.605500 -0.181811
C22   C     C_R   0.004426 0.088344 0.394500 -0.181811
C23   C     C_R   0.972057 0.970437 0.574371 0.068276
C24   C     C_R   0.027942 0.029562 0.425629 0.068276
C25   C     C_R   0.899061 0.032237 0.604603 0.068149
C26   C     C_R   0.100939 0.967763 0.395396 0.068149
C27   C     C_R   0.015284 0.969686 0.514352 0.005636
C28   C     C_R   0.984716 0.030314 0.485648 0.005636
C29   C     C_R   0.912403 0.089883 0.517895 -0.182053
C30   C     C_R   0.087597 0.910117 0.482104 -0.182053
C31   C     C_R   0.870888 0.091276 0.575869 0.251193
C32   C     C_R   0.129112 0.908724 0.424131 0.251193
H1    H     H_    0.953319 0.137397 0.414152 0.101105
H2    H     H_    0.046681 0.862603 0.585848 0.101105
H3    H     H_    0.167893 0.022158 0.263634 0.112869
H4    H     H_    0.832107 0.977842 0.736366 0.112869
H5    H     H_    0.796685 0.079746 0.687200 0.173523
H6    H     H_    0.203315 0.920254 0.312800 0.173523
H7    H     H_    0.885083 0.137122 0.499286 0.158070
H8    H     H_    0.114917 0.862878 0.500714 0.158070
C33   C     C_R   0.485684 0.585762 0.835509 -0.049842
C34   C     C_R   0.514316 0.414238 0.164491 -0.049842
C35   C     C_R   0.592661 0.467281 0.833678 -0.148796
C36   C     C_R   0.407338 0.532719 0.166322 -0.148796
C37   C     C_R   0.555098 0.525211 0.805361 -0.159911
C38   C     C_R   0.444902 0.474789 0.194639 -0.159911
C39   C     C_R   0.454617 0.588166 0.894876 -0.213372
C40   C     C_R   0.545382 0.411833 0.105124 -0.213372
C41   C     C_R   0.496536 0.530042 0.925281 0.087305
C42   C     C_R   0.503464 0.469958 0.074719 0.087305
C43   C     C_R   0.565867 0.469257 0.893099 0.131918
C44   C     C_R   0.434133 0.530743 0.106901 0.131918
C45   C     C_R   0.475619 0.530280 0.986288 0.057533
C46   C     C_R   0.524381 0.469720 0.013712 0.057533
C47   C     C_R   0.591559 0.410918 0.979190 -0.185232
C48   C     C_R   0.408441 0.589082 0.020810 -0.185232
C49   C     C_R   0.611168 0.410861 0.920300 -0.191792
C50   C     C_R   0.388832 0.589139 0.079700 -0.191792
H9    H     H_    0.664184 0.364434 0.895732 0.132888
H10   H     H_    0.335815 0.635566 0.104268 0.132888
H11   H     H_    0.595946 0.363413 0.084017 0.096764
H12   H     H_    0.404054 0.636587 0.915983 0.096764
H13   H     H_    0.418095 0.476980 0.240267 0.115819
H14   H     H_    0.581905 0.523020 0.759733 0.115819
H15   H     H_    0.646469 0.420986 0.809134 0.131294
H16   H     H_    0.353530 0.579014 0.190866 0.131294
H17   H     H_    0.631380 0.363628 0.996344 0.125588
H18   H     H_    0.368620 0.636372 0.003656 0.125588
C51   C     C_1   0.467268 0.882812 0.885231 -0.214420
C52   C     C_1   0.532732 0.117188 0.114769 -0.214420
C53   C     C_1   0.478694 0.926330 0.928056 0.002764
C54   C     C_1   0.521306 0.073670 0.071944 0.002764
C55   C     C_1   0.493583 0.978138 0.978677 0.002179
C56   C     C_1   0.506417 0.021861 0.021323 0.002179
Br1   Br    Br    0.772428 0.176985 0.613184 -0.540221
Br2   Br    Br    0.227572 0.823015 0.386816 -0.540221

loop_
_geom_bond_atom_site_label_1
_geom_bond_atom_site_label_2
_ccdc_geom_bond_type
C2    C34   S    
O6    C8    A    
O13   V3    S    
C17   H5    S    
O4    C2    A    
V1    O19   S    
C55   C56   T    
C23   C25   A    
C45   C46   A    
C7    C9    S    
C16   C22   A    
O9    V1    S    
C42   C44   A    
C11   C13   S    
O3    C1    A    
C9    C11   T    
C5    C15   S    
C20   H3    S    
O12   V4    S    
C35   H15   S    
C21   C23   A    
O7    C3    A    
C6    C16   S    
O5    C7    A    
O7    V1    S    
C34   C40   A    
O8    V2    S    
C54   C56   S    
C36   H16   S    
O3    V1    S    
O14   V4    S    
C18   H6    S    
C47   H17   S    
C15   C21   A    
C24   C26   A    
C8    C10   S    
C51   C53   T    
C41   C43   A    
C18   C20   A    
C38   H13   S    
C17   C25   A    
C49   H9    S    
O11   V3    S    
C22   C24   A    
C29   C31   A    
C40   H11   S    
O17   V3    S    
C30   C32   A    
C21   H2    S    
C27   C28   A    
C48   C50   A    
O8    C4    A    
C44   C50   A    
C39   C41   A    
C46   C47   A    
C43   C49   A    
C15   C19   A    
C1    O11   A    
C25   C31   A    
O15   V3    S    
C26   C32   A    
C3    C51   S    
C35   C37   A    
C48   H18   S    
C13   C14   T    
C1    C33   S    
C39   H12   S    
C16   C20   A    
O10   V2    S    
O1    V3    S    
C36   C44   A    
C52   C54   T    
C37   H14   S    
C19   H4    S    
C18   C26   A    
C40   C42   A    
O18   V4    S    
C50   H10   S    
O15   C5    A    
C22   H1    S    
O16   C6    A    
O1    C3    A    
C32   Br2   S    
C28   C29   A    
C47   C49   A    
V2    O20   S    
C45   C48   A    
O16   V4    S    
C17   C19   A    
C23   C27   A    
C53   C55   S    
O5    V1    S    
O17   C7    A    
O6    V2    S    
O10   C6    A    
O18   C8    A    
O2    V4    S    
C27   C30   A    
C12   C14   S    
V3    O19   S    
C33   C39   A    
V4    O20   S    
C29   H7    S    
C34   C38   A    
C30   H8    S    
C33   C37   A    
O9    C5    A    
O13   V1    S    
C10   C12   T    
O14   V2    S    
O2    C4    A    
O4    V2    S    
C24   C28   A    
C35   C43   A    
C2    O12   A    
C42   C46   A    
C31   Br1   S    
C36   C38   A    
C41   C45   A    
C4    C52   S    
