data_mof_unit_68381.cif
_audit_creation_date              2013-03-05T16:14:16-0500
_audit_creation_method            fapswitch 2.2
_symmetry_space_group_name_H-M    P1
_symmetry_Int_Tables_number       1
_space_group_crystal_system       triclinic
_cell_length_a                    10.793354
_cell_length_b                    10.779514
_cell_length_c                    9.928912
_cell_angle_alpha                 89.995758
_cell_angle_beta                  90.974451
_cell_angle_gamma                 91.618762
_cell_volume                      1154.57210669

loop_
_atom_site_label
_atom_site_type_symbol
_atom_site_description
_atom_site_fract_x
_atom_site_fract_y
_atom_site_fract_z
_atom_type_partial_charge
O1    O     O_R   0.499990 0.316750 0.614620 -0.655909
O2    O     O_R   0.500010 0.683250 0.385380 -0.621701
O3    O     O_R   0.499990 0.316780 0.385290 -0.594594
O4    O     O_R   0.500010 0.683220 0.614710 -0.592106
C1    C     C_R   0.501667 0.260327 0.499350 0.922927
C2    C     C_R   0.499367 0.739807 0.500788 0.945504
O5    O     O_R   0.316760 0.500000 0.614660 -0.654127
O6    O     O_R   0.683240 0.500000 0.385340 -0.618259
O7    O     O_R   0.316760 0.500020 0.385330 -0.616241
O8    O     O_R   0.683240 0.499980 0.614670 -0.606810
C3    C     C_R   0.260242 0.500296 0.498665 0.922551
C4    C     C_R   0.739712 0.497002 0.501075 0.933651
Zn1   Zn    Zn3+2 0.500000 0.499980 0.653120 0.974552
Zn2   Zn    Zn3+2 0.500000 0.500020 0.346880 0.991556
H1    H     H_    0.237019 0.728670 0.922979 0.209369
H2    H     H_    0.784750 0.265616 0.083710 0.209323
C5    C     C_R   0.193404 0.768746 0.129799 0.299839
C6    C     C_R   0.819687 0.221642 0.875508 0.299735
C7    C     C_R   0.147470 0.718426 0.251033 0.191023
C8    C     C_R   0.857888 0.270740 0.750343 0.192878
C9    C     C_R   0.117927 0.589816 0.259300 -0.163558
C10   C     C_R   0.882168 0.399926 0.737452 -0.154102
C11   C     C_R   0.133203 0.512126 0.145686 0.302455
C12   C     C_R   0.868411 0.479593 0.848963 0.314677
C13   C     C_R   0.175545 0.565384 0.025620 -0.213992
C14   C     C_R   0.833567 0.428369 0.972709 -0.235091
H3    H     H_    0.184322 0.509423 0.936149 0.201762
H4    H     H_    0.825834 0.486160 0.060527 0.173228
C15   C     C_R   0.205687 0.691328 0.017935 -0.228136
C16   C     C_R   0.809771 0.301523 0.985893 -0.211954
C17   C     C_R   0.932784 0.536490 0.387405 -0.177397
C18   C     C_R   0.067329 0.452311 0.609558 -0.184622
H5    H     H_    0.881092 0.570198 0.301431 0.148228
H6    H     H_    0.119322 0.417920 0.695564 0.160701
C19   C     C_R   0.872346 0.493338 0.502004 -0.014562
C20   C     C_R   0.127607 0.498256 0.496048 -0.010411
C21   C     C_R   0.939844 0.449162 0.613742 0.132498
C22   C     C_R   0.060032 0.539761 0.382926 0.137875
C23   C     C_R   0.559940 0.063263 0.393971 0.266425
C24   C     C_R   0.444965 0.937345 0.608322 0.264879
C25   C     C_R   0.559408 0.935486 0.399208 -0.224349
C26   C     C_R   0.444618 0.064993 0.602401 -0.235184
H7    H     H_    0.605526 0.885688 0.321859 0.163066
H8    H     H_    0.399432 0.115214 0.680130 0.160724
C27   C     C_R   0.500608 0.872491 0.503479 -0.061059
C28   C     C_R   0.502396 0.127850 0.497505 -0.051354
C29   C     C_R   0.563588 0.590779 0.072397 0.241937
C30   C     C_R   0.429463 0.413538 0.928946 0.247114
C31   C     C_R   0.567828 0.586212 0.928796 -0.172033
C32   C     C_R   0.433410 0.413222 0.072522 -0.136362
H9    H     H_    0.621147 0.654355 0.873656 0.183050
H10   H     H_    0.377277 0.348875 0.129762 0.180150
N1    N     N_R   0.499970 0.499970 0.857200 -0.128583
N2    N     N_R   0.500030 0.500030 0.142800 -0.120170
N3    N     N_R   0.226676 0.898217 0.118578 0.229990
O9    O     O_R   0.214926 0.954527 0.003455 -0.385078
O10   O     O_R   0.277527 0.958131 0.219961 -0.369476
N4    N     N_R   0.791632 0.091367 0.892015 0.230224
O11   O     O_R   0.806480 0.038955 0.009007 -0.377758
O12   O     O_R   0.741546 0.026675 0.793677 -0.362945
N5    N     N_R   0.121991 0.798930 0.361856 0.238954
O13   O     O_R   0.171342 0.779875 0.480212 -0.392595
O14   O     O_R   0.049109 0.891907 0.344435 -0.259301
N6    N     N_R   0.881578 0.189095 0.639974 0.241377
O15   O     O_R   0.957837 0.098647 0.655895 -0.257981
O16   O     O_R   0.831447 0.207946 0.521939 -0.400404
N7    N     N_R   0.104804 0.380483 0.149206 0.202967
O17   O     O_R   0.112251 0.317912 0.260935 -0.346546
O18   O     O_R   0.084674 0.319589 0.037530 -0.394389
N8    N     N_R   0.893352 0.611301 0.838655 0.204251
O19   O     O_R   0.862044 0.672505 0.731036 -0.349872
O20   O     O_R   0.940461 0.672752 0.940568 -0.404474
N9    N     N_2   0.617378 0.125578 0.284342 -0.281818
H11   H     H_    0.707875 0.100390 0.271242 0.283356
C33   C     C_3   0.545532 0.116283 0.160326 -0.680880
H12   H     H_    0.545323 0.019822 0.120846 0.241450
H13   H     H_    0.585843 0.179535 0.083876 0.223613
H14   H     H_    0.448686 0.143481 0.177464 0.273269
N10   N     N_2   0.392330 0.875710 0.721191 -0.280198
H15   H     H_    0.305372 0.906119 0.743948 0.279695
C34   C     C_3   0.474244 0.876748 0.838122 -0.665914
H16   H     H_    0.485152 0.971527 0.879965 0.237670
H17   H     H_    0.567241 0.844883 0.810744 0.274766
H18   H     H_    0.435906 0.814803 0.916884 0.214670
N11   N     N_2   0.605875 0.699582 0.141767 -0.306364
H19   H     H_    0.539676 0.766659 0.139256 0.218012
C35   C     C_3   0.727884 0.749625 0.111638 -0.633633
H20   H     H_    0.731589 0.784922 0.006855 0.284112
H21   H     H_    0.797605 0.678769 0.129752 0.247596
H22   H     H_    0.752003 0.828346 0.179742 0.258176
N12   N     N_2   0.341960 0.332204 0.861637 -0.330037
H23   H     H_    0.336532 0.337425 0.759359 0.278014
C36   C     C_3   0.325132 0.207018 0.911765 -0.667781
H24   H     H_    0.258856 0.154559 0.844916 0.276832
H25   H     H_    0.284460 0.205389 0.013136 0.307132
H26   H     H_    0.415227 0.160831 0.914308 0.212308

loop_
_geom_bond_atom_site_label_1
_geom_bond_atom_site_label_2
_geom_bond_distance
_ccdc_geom_bond_type
N3    O9    1.300151 A    
C36   H24   1.110438 S    
C2    C27   1.430203 S    
C5    C15   1.399658 A    
N9    H11   1.031512 S    
O7    Zn2   2.020649 S    
C34   H16   1.105381 S    
C12   N8    1.441512 S    
C29   C31   1.428209 A    
N11   H19   1.030795 S    
O5    C3    1.294124 A    
C32   N2    1.350766 A    
O1    C1    1.296748 A    
C29   N11   1.420369 S    
C3    C20   1.430917 S    
C7    C9    1.416440 A    
C12   C14   1.399932 A    
C29   N2    1.376401 A    
H2    C16   1.081183 S    
C26   C28   1.389542 A    
C11   N7    1.443826 S    
O4    Zn1   2.011687 S    
N5    O14   1.301199 A    
C6    N4    1.438144 S    
C9    C22   1.481633 S    
C31   H9    1.075764 S    
C30   N12   1.427979 S    
C32   H10   1.076617 S    
C17   H5    1.080372 S    
N8    O19   1.300556 A    
C6    C16   1.401245 A    
C5    N3    1.436038 S    
C30   C32   1.425468 A    
C36   H25   1.104840 S    
C25   H7    1.074203 S    
O2    C2    1.298220 A    
C26   H8    1.074400 S    
C34   H17   1.108228 S    
H1    C15   1.080913 S    
Zn1   N1    2.026298 S    
N11   C35   1.444958 S    
C13   C15   1.389474 A    
C30   N1    1.390297 A    
N7    O17   1.300757 A    
O4    C2    1.285076 A    
N12   H23   1.017845 S    
N10   C34   1.447151 S    
N4    O11   1.301103 A    
C10   C21   1.478247 S    
N7    O18   1.300551 A    
N6    O16   1.300829 A    
C8    N6    1.436386 S    
C33   H12   1.111194 S    
N12   C36   1.445974 S    
C33   H13   1.106698 S    
O6    C4    1.292417 A    
C24   N10   1.421366 S    
C18   C21   1.376782 A    
C4    C19   1.433100 S    
O7    C3    1.289137 A    
O3    Zn2   2.011686 S    
O8    C4    1.291950 A    
C23   C28   1.404804 A    
Zn2   N2    2.026298 S    
C8    C10   1.415907 A    
C14   C16   1.390686 A    
C36   H26   1.104831 S    
N3    O10   1.301113 A    
C10   C12   1.413620 A    
O1    Zn1   2.011806 S    
N9    C33   1.445942 S    
C18   C20   1.394781 A    
C34   H18   1.106335 S    
O6    Zn2   2.007920 S    
C19   C21   1.407265 A    
C24   C26   1.377349 A    
O3    C1    1.285694 A    
O8    Zn1   2.020647 S    
C13   H3    1.080839 S    
C1    C28   1.428404 S    
C14   H4    1.077414 S    
C17   C22   1.374366 A    
N6    O15   1.301519 A    
C9    C11   1.419624 A    
C7    N5    1.436437 S    
C31   N1    1.360126 A    
C17   C19   1.394498 A    
C20   C22   1.408606 A    
C5    C7    1.412081 A    
C6    C8    1.414052 A    
C23   N9    1.421155 S    
N5    O13   1.300674 A    
O2    Zn2   2.011806 S    
C33   H14   1.109466 S    
N10   H15   1.031516 S    
O5    Zn1   2.007923 S    
C11   C13   1.401144 A    
C24   C27   1.406465 A    
C23   C25   1.378206 A    
C35   H20   1.108720 S    
C35   H22   1.107564 S    
C35   H21   1.099943 S    
C25   C27   1.390555 A    
N8    O20   1.298008 A    
N4    O12   1.301055 A    
C18   H6    1.084891 S    
