data_mof_unit_45512.cif
_audit_creation_date              2012-12-10T20:49:28-0500
_audit_creation_method            fapswitch 2.2
_symmetry_space_group_name_H-M    P1
_symmetry_Int_Tables_number       1
_space_group_crystal_system       triclinic
_cell_length_a                    15.749156
_cell_length_b                    8.924802
_cell_length_c                    8.127445
_cell_angle_alpha                 90.040574
_cell_angle_beta                  90.026212
_cell_angle_gamma                 89.863899
_cell_volume                      1142.37459058

loop_
_atom_site_label
_atom_site_type_symbol
_atom_type_description
_atom_site_fract_x
_atom_site_fract_y
_atom_site_fract_z
_atom_type_partial_charge
C1    C     C_1   0.499901 0.065227 0.499945 -0.189667
C2    C     C_3   0.971615 0.563810 0.639224 -0.337663
C3    C     C_1   0.248772 0.500758 0.498674 -0.189045
C4    C     C_1   0.751309 0.497679 0.500230 -0.163293
C5    C     C_3   0.029010 0.424390 0.626460 0.592332
C6    C     C_3   0.971302 0.573309 0.370349 0.598759
C7    C     C_3   0.082913 0.500838 0.495501 0.041323
C8    C     C_3   0.917200 0.496097 0.500719 0.082743
C9    C     C_1   0.173631 0.501096 0.496367 -0.038964
C10   C     C_1   0.826485 0.496311 0.500475 0.016940
C11   C     C_3   0.994005 0.738086 0.153139 0.060032
C12   C     C_1   0.499897 0.934777 0.500050 -0.189504
C13   C     C_3   0.974446 0.903329 0.186767 -0.327814
C14   C     C_3   0.036056 0.005968 0.096294 -0.942101
C15   C     C_3   0.103247 0.434528 0.872334 0.062316
C16   C     C_3   0.178981 0.351289 0.946436 -0.339708
C17   C     C_3   0.233183 0.454868 0.052186 -0.916050
C18   C     C_R   0.499947 0.218080 0.499963 0.932366
C19   C     C_R   0.499930 0.781922 0.500036 0.934570
C20   C     C_R   0.337510 0.500168 0.499800 0.898766
C21   C     C_R   0.662511 0.499537 0.500072 0.898334
C22   C     C_3   0.973073 0.354731 0.491428 -0.247514
C23   C     C_3   0.026900 0.642826 0.506461 -0.349155
C24   C     C_3   0.027881 0.432888 0.357906 -0.326033
H1    H     H_    0.052574 0.380161 0.244189 0.157260
H2    H     H_    0.018940 0.124595 0.120992 0.270384
H3    H     H_    0.032705 0.986037 0.961481 0.277180
H4    H     H_    0.057557 0.464010 0.971069 0.141701
H5    H     H_    0.126840 0.541250 0.817704 0.140353
H6    H     H_    0.155909 0.256635 0.022773 0.223202
H7    H     H_    0.219090 0.304982 0.845877 0.242830
H8    H     H_    0.263105 0.542576 0.974639 0.269230
H9    H     H_    0.284095 0.388618 0.112638 0.282363
H10   H     H_    0.193667 0.509605 0.148009 0.256435
H11   H     H_    0.946413 0.614122 0.754119 0.159642
H12   H     H_    0.949577 0.237560 0.488633 0.158780
H13   H     H_    0.051475 0.759150 0.511825 0.160334
H14   H     H_    0.987408 0.717551 0.019117 0.150809
H15   H     H_    0.061503 0.712173 0.184585 0.121637
H16   H     H_    0.908649 0.928944 0.145748 0.238722
H17   H     H_    0.978569 0.926090 0.320907 0.214536
H18   H     H_    0.102045 0.986047 0.139584 0.257142
N1    N     N_1   0.500010 0.500000 0.073640 -0.032028
N2    N     N_1   0.499990 0.500000 0.926360 -0.031111
O1    O     O_R   0.500000 0.285340 0.636850 -0.614717
O2    O     O_3   0.062315 0.339556 0.757964 -0.641027
O3    O     O_R   0.500000 0.714660 0.363150 -0.613440
O4    O     O_R   0.500000 0.285340 0.363150 -0.616552
O5    O     O_R   0.500000 0.714660 0.636850 -0.615272
O6    O     O_R   0.376770 0.500000 0.636850 -0.619413
O7    O     O_R   0.623230 0.500000 0.363150 -0.606515
O8    O     O_R   0.376780 0.500000 0.363100 -0.623438
O9    O     O_R   0.623220 0.500000 0.636900 -0.612499
O10   O     O_3   0.933858 0.647412 0.235070 -0.641164
Zn1   Zn    Zn3+2 0.499990 0.500000 0.682780 0.991830
Zn2   Zn    Zn3+2 0.500010 0.500000 0.317220 0.990835

loop_
_geom_bond_atom_site_label_1
_geom_bond_atom_site_label_2
_ccdc_geom_bond_type
C2    H11   S    
C11   H14   S    
C8    C22   S    
N1    N2    T    
C5    C7    S    
C3    C9    T    
C14   H3    S    
C22   H12   S    
C5    O2    S    
C19   O5    A    
O6    Zn1   S    
C14   H18   S    
C6    C24   S    
C13   H17   S    
C15   H4    S    
C3    C20   S    
C20   O8    A    
O5    Zn1   S    
C13   C14   S    
C14   H2    S    
C16   H7    S    
C21   O9    A    
C4    C21   S    
C11   C13   S    
N2    Zn1   S    
C1    C18   S    
C1    C12   T    
C17   H9    S    
C6    O10   S    
C20   O6    A    
C7    C23   S    
C6    C23   S    
C12   C19   S    
C11   O10   S    
C15   H5    S    
C22   C24   S    
O9    Zn1   S    
C11   H15   S    
C19   O3    A    
C2    C5    S    
C17   H10   S    
C4    C10   T    
C7    C24   S    
C18   O1    A    
O8    Zn2   S    
N1    Zn2   S    
C21   O7    A    
C24   H1    S    
O1    Zn1   S    
C7    C9    S    
O7    Zn2   S    
C2    C23   S    
O4    Zn2   S    
C17   H8    S    
C16   C17   S    
C13   H16   S    
C6    C8    S    
C15   O2    S    
C23   H13   S    
C16   H6    S    
C8    C10   S    
C2    C8    S    
C5    C22   S    
C15   C16   S    
O3    Zn2   S    
C18   O4    A    
