data_mof_unit_44481.cif
_audit_creation_date              2012-12-10T17:17:22-0500
_audit_creation_method            fapswitch 2.2
_symmetry_space_group_name_H-M    P1
_symmetry_Int_Tables_number       1
_space_group_crystal_system       triclinic
_cell_length_a                    10.193186
_cell_length_b                    10.840874
_cell_length_c                    12.302605
_cell_angle_alpha                 90.654176
_cell_angle_beta                  109.304076
_cell_angle_gamma                 96.002126
_cell_volume                      1274.47620439

loop_
_atom_site_label
_atom_site_type_symbol
_atom_type_description
_atom_site_fract_x
_atom_site_fract_y
_atom_site_fract_z
_atom_type_partial_charge
C1    C     C_R   0.050287 0.732171 0.489861 0.939097
C2    C     C_R   0.207986 0.528284 0.837636 -0.118065
C3    C     C_2   0.073800 0.863426 0.475205 -0.381824
C4    C     C_R   0.135248 0.516564 0.713792 0.861026
C5    C     C_2   0.970804 0.931833 0.470639 -0.141511
C6    C     C_2   0.910890 0.134703 0.498448 -0.386244
C7    C     C_2   0.993272 0.063800 0.467526 -0.146487
C8    C     C_2   0.432447 0.512230 0.508524 -0.121231
C9    C     C_2   0.567260 0.488870 0.490072 -0.130260
C10   C     C_R   0.946534 0.267444 0.504668 0.952007
C11   C     C_R   0.866214 0.489320 0.286094 0.868341
C12   C     C_R   0.428427 0.527572 0.992440 0.088218
C13   C     C_R   0.793558 0.598830 0.987858 -0.202027
C14   C     C_R   0.797555 0.501407 0.164077 -0.053615
C15   C     C_R   0.134993 0.489159 0.912164 -0.195364
C16   C     C_R   0.207569 0.474034 0.027499 -0.152289
C17   C     C_R   0.353086 0.490090 0.067335 -0.187715
C18   C     C_R   0.353724 0.561163 0.880783 0.092849
C19   C     C_R   0.575330 0.532679 0.024384 0.082155
C20   C     C_R   0.646981 0.589510 0.953263 0.181769
C21   C     C_R   0.571447 0.638453 0.850222 -0.255916
C22   C     C_R   0.426383 0.624612 0.814294 -0.206291
C23   C     C_R   0.652844 0.480893 0.124756 -0.252179
C24   C     C_R   0.869171 0.557295 0.094729 -0.205958
H1    H     H_    0.982238 0.574994 0.125672 0.155414
H2    H     H_    0.603084 0.428671 0.177506 0.139186
H3    H     H_    0.022403 0.465984 0.880429 0.161793
H4    H     H_    0.403533 0.475422 0.157476 0.128668
H5    H     H_    0.151300 0.444219 0.085139 0.144239
H6    H     H_    0.371486 0.665387 0.734524 0.154942
H7    H     H_    0.083744 0.102976 0.445910 0.188521
H8    H     H_    0.820714 0.095086 0.520104 0.150202
H9    H     H_    0.870904 0.891507 0.476001 0.189647
H10   H     H_    0.173479 0.904186 0.469920 0.149060
H11   H     H_    0.564839 0.415517 0.428439 0.156619
H12   H     H_    0.434688 0.586801 0.568796 0.158432
H13   H     H_    0.684467 0.622208 0.602973 0.154763
H14   H     H_    0.315750 0.376608 0.398203 0.154654
H15   H     H_    0.624308 0.685752 0.796530 0.134475
H16   H     H_    0.849435 0.643152 0.934911 0.140421
N1    N     N_2   0.313640 0.446500 0.454900 -0.192951
N2    N     N_2   0.686360 0.553430 0.545150 -0.190177
O1    O     O_R   0.936910 0.692950 0.509080 -0.608330
O2    O     O_R   0.138320 0.658600 0.480130 -0.617593
O3    O     O_R   0.002900 0.525670 0.675280 -0.610027
O4    O     O_R   0.204310 0.491320 0.646330 -0.599776
O5    O     O_R   0.861680 0.341400 0.519870 -0.609070
O6    O     O_R   0.063090 0.307050 0.490920 -0.605892
O7    O     O_R   0.795690 0.508680 0.353670 -0.608379
O8    O     O_R   0.997100 0.474330 0.324720 -0.616858
Zn1   Zn    Zn3+2 0.865520 0.522940 0.519330 0.935394
Zn2   Zn    Zn3+2 0.134480 0.477060 0.480670 0.934141

loop_
_geom_bond_atom_site_label_1
_geom_bond_atom_site_label_2
_ccdc_geom_bond_type
C14   C23   A    
C6    C10   S    
O8    Zn2   S    
C6    C7    D    
C11   O7    A    
C2    C18   A    
N1    Zn2   S    
C2    C4    S    
C19   C20   A    
C21   H15   S    
N2    Zn1   S    
C3    C5    D    
C1    O2    A    
O2    Zn2   S    
C8    N1    D    
C11   O8    A    
C4    O4    A    
C21   C22   A    
C24   H1    S    
C12   C17   A    
C2    C15   A    
O1    Zn1   S    
C9    N2    D    
C12   C19   A    
C1    O1    A    
C4    O3    A    
C10   O6    A    
C11   C14   S    
C10   O5    A    
C7    H7    S    
O3    Zn1   S    
C14   C24   A    
C15   C16   A    
O4    Zn2   S    
O6    Zn2   S    
C20   C21   A    
H14   N1    S    
C5    C7    S    
C6    H8    S    
C8    H12   S    
C23   H2    S    
C12   C18   A    
H13   N2    S    
C9    H11   S    
C19   C23   A    
C16   C17   A    
C13   H16   S    
O5    Zn1   S    
C22   H6    S    
C3    H10   S    
O7    Zn1   S    
C16   H5    S    
C18   C22   A    
C17   H4    S    
C15   H3    S    
C13   C20   A    
C13   C24   A    
C8    C9    S    
C1    C3    S    
C5    H9    S    
