data_mof_unit_41799.cif
_audit_creation_date              2013-03-05T16:48:44-0500
_audit_creation_method            fapswitch 2.2
_symmetry_space_group_name_H-M    P1
_symmetry_Int_Tables_number       1
_space_group_crystal_system       triclinic
_cell_length_a                    27.435467
_cell_length_b                    8.91749
_cell_length_c                    8.094247
_cell_angle_alpha                 89.996967
_cell_angle_beta                  89.618524
_cell_angle_gamma                 89.964228
_cell_volume                      1980.25778742

loop_
_atom_site_label
_atom_site_type_symbol
_atom_site_description
_atom_site_fract_x
_atom_site_fract_y
_atom_site_fract_z
_atom_type_partial_charge
O1    O     O_R   0.500000 0.285350 0.636850 -0.625551
O2    O     O_R   0.500000 0.714650 0.363150 -0.629606
O3    O     O_R   0.500000 0.714650 0.636850 -0.599142
O4    O     O_R   0.500000 0.285350 0.363150 -0.614337
C1    C     C_R   0.499906 0.217958 0.500011 0.936491
C2    C     C_R   0.499943 0.782029 0.500008 0.977333
O5    O     O_R   0.428760 0.500000 0.636860 -0.582739
O6    O     O_R   0.571240 0.500000 0.363140 -0.621154
O7    O     O_R   0.571240 0.500000 0.636860 -0.620123
O8    O     O_R   0.428760 0.500000 0.363140 -0.586472
C3    C     C_R   0.405648 0.502520 0.500715 0.944988
C4    C     C_R   0.594241 0.499693 0.499504 1.004940
Zn1   Zn    Zn3+2 0.500000 0.500000 0.682780 1.033494
Zn2   Zn    Zn3+2 0.500000 0.500000 0.317220 1.023088
C5    C     C_R   0.177331 0.577692 0.661068 0.528813
C6    C     C_R   0.819904 0.679883 0.388653 0.525429
C7    C     C_R   0.178157 0.664105 0.382089 0.524920
C8    C     C_R   0.819463 0.598366 0.669354 0.525613
O9    O     O_2   0.201712 0.522651 0.792193 -0.531205
O10   O     O_2   0.795101 0.708926 0.248747 -0.539816
O11   O     O_2   0.203577 0.697060 0.243393 -0.535808
O12   O     O_2   0.794100 0.550420 0.802732 -0.536633
N1    N     N_R   0.201694 0.608319 0.517090 -0.332710
N2    N     N_R   0.795905 0.625719 0.524394 -0.334668
C9    C     C_R   0.283915 0.665969 0.610518 -0.191897
C10   C     C_R   0.729435 0.444056 0.508299 -0.191845
C11   C     C_R   0.272207 0.473343 0.402998 -0.179938
C12   C     C_R   0.711543 0.710718 0.509948 -0.197404
C13   C     C_R   0.334020 0.640773 0.606856 0.454822
C14   C     C_R   0.679611 0.411184 0.504641 0.417358
C15   C     C_R   0.322212 0.443681 0.401029 0.446313
C16   C     C_R   0.661798 0.679915 0.498790 0.419450
C17   C     C_R   0.253086 0.583009 0.508969 0.154910
C18   C     C_R   0.745149 0.593301 0.513563 0.190061
C19   C     C_R   0.101602 0.653955 0.533407 -0.048209
C20   C     C_R   0.895974 0.667401 0.538742 -0.048655
C21   C     C_R   0.127003 0.601115 0.672297 -0.032449
C22   C     C_R   0.870382 0.702212 0.393460 -0.032913
C23   C     C_R   0.127677 0.687478 0.387557 -0.033752
C24   C     C_R   0.869927 0.618591 0.679241 -0.032111
C25   C     C_R   0.101751 0.570728 0.818485 -0.140618
C26   C     C_R   0.895671 0.755209 0.255461 -0.148557
C27   C     C_R   0.102957 0.742508 0.250364 -0.146538
C28   C     C_R   0.894729 0.588209 0.825141 -0.141655
C29   C     C_R   0.353197 0.527504 0.503699 -0.281857
C30   C     C_R   0.646056 0.529799 0.499048 -0.239640
H1    H     H_    0.248131 0.409396 0.324309 0.185525
H2    H     H_    0.724131 0.825624 0.517180 0.163150
H3    H     H_    0.268874 0.750587 0.692274 0.182431
H4    H     H_    0.755962 0.354062 0.508112 0.162455
H5    H     H_    0.120623 0.531955 0.927697 0.197328
H6    H     H_    0.876655 0.785929 0.143536 0.192948
H7    H     H_    0.122309 0.771357 0.137619 0.193639
H8    H     H_    0.875358 0.553393 0.935760 0.199139
C31   C     C_R   0.972780 0.637745 0.688643 0.045115
C32   C     C_R   0.025013 0.719933 0.396391 0.044117
C33   C     C_R   0.973288 0.723542 0.397822 0.044391
C34   C     C_R   0.024470 0.633258 0.686963 0.044941
C35   C     C_R   0.947558 0.677624 0.542218 0.076779
C36   C     C_R   0.050167 0.670288 0.539354 0.076832
C37   C     C_R   0.945090 0.598225 0.830402 -0.231583
C38   C     C_R   0.052710 0.758933 0.254430 -0.227624
C39   C     C_R   0.946056 0.766581 0.257501 -0.228121
C40   C     C_R   0.051577 0.586904 0.826282 -0.230658
H9    H     H_    0.960961 0.571201 0.947762 0.147028
H10   H     H_    0.036896 0.800563 0.142192 0.145923
H11   H     H_    0.962335 0.807160 0.144901 0.145886
H12   H     H_    0.035345 0.558609 0.943457 0.147309
C41   C     C_1   0.499821 0.065200 0.500050 -0.199084
C42   C     C_1   0.499834 0.934779 0.500052 -0.192164
N3    N     N_1   0.500000 0.500000 0.073640 -0.022239
N4    N     N_1   0.500000 0.500000 0.926360 -0.019582
O13   O     O_3   0.340759 0.336288 0.294728 -0.564080
C43   C     C_3   0.340415 0.196950 0.377049 -0.290059
H13   H     H_    0.355528 0.110532 0.292448 0.202684
H14   H     H_    0.302655 0.162358 0.410806 0.165385
H15   H     H_    0.363860 0.199325 0.488781 0.130735
O14   O     O_3   0.628057 0.795394 0.502000 -0.626729
C44   C     C_3   0.629389 0.870687 0.348807 -0.253341
H16   H     H_    0.622115 0.792458 0.244584 0.171495
H17   H     H_    0.664676 0.929646 0.329493 0.190023
H18   H     H_    0.600322 0.957151 0.348506 0.199838
O15   O     O_3   0.364221 0.723497 0.708279 -0.561410
C45   C     C_3   0.371540 0.865831 0.636350 -0.297902
H19   H     H_    0.386612 0.856550 0.508600 0.134431
H20   H     H_    0.398526 0.928066 0.711284 0.202452
H21   H     H_    0.337229 0.932351 0.636251 0.156588
O16   O     O_3   0.663534 0.264383 0.495510 -0.622129
C46   C     C_3   0.669485 0.195835 0.651076 -0.282494
H22   H     H_    0.650550 0.260124 0.750603 0.172803
H23   H     H_    0.708704 0.181147 0.681013 0.174656
H24   H     H_    0.652798 0.082659 0.647028 0.223147

loop_
_geom_bond_atom_site_label_1
_geom_bond_atom_site_label_2
_geom_bond_distance
_ccdc_geom_bond_type
C31   C35   1.421466 A    
Zn2   N3    1.971597 S    
C45   H21   1.112335 S    
C20   C35   1.418687 A    
C11   C17   1.400266 A    
O5    C3    1.275241 A    
C7    N1    1.366552 A    
C43   H14   1.113398 S    
O1    C1    1.260186 A    
C40   H12   1.075198 S    
C19   C21   1.407656 A    
C45   H20   1.109313 S    
C22   C26   1.393723 A    
C10   H4    1.083029 S    
C7    C23   1.400829 A    
C33   C35   1.421747 A    
C34   C36   1.422189 A    
C32   C33   1.419409 A    
O13   C43   1.409910 S    
O7    Zn1   1.987096 S    
C5    C21   1.398727 A    
C1    C41   1.362219 S    
C5    O9    1.350483 S    
C27   H7    1.083789 S    
N1    C17   1.428856 S    
C43   H15   1.113493 S    
C8    N2    1.365228 A    
C46   H23   1.112178 S    
C24   C28   1.393378 A    
O3    Zn1   1.949888 S    
C6    O10   1.350015 S    
O3    C2    1.260090 A    
C5    N1    1.367232 A    
C12   C18   1.395146 A    
C6    N2    1.365559 A    
C21   C25   1.393853 A    
O2    C2    1.260241 A    
C10   C18   1.399981 A    
C33   C39   1.416485 A    
C9    C13   1.392881 A    
C39   H11   1.075104 S    
C43   H13   1.109314 S    
C38   H10   1.075368 S    
C11   C15   1.397012 A    
C12   C16   1.395847 A    
C45   H19   1.114151 S    
C4    C30   1.446829 S    
O8    Zn2   1.987098 S    
C44   H17   1.112097 S    
O14   C44   1.410333 S    
C23   C27   1.394087 A    
C34   C40   1.416465 A    
N2    C18   1.425636 S    
C32   C36   1.421787 A    
C13   C29   1.409891 A    
C19   C36   1.419060 A    
C19   C23   1.408476 A    
C28   H8    1.083687 S    
O15   C45   1.410328 S    
C20   C24   1.408165 A    
O6    C4    1.275063 A    
C9    C17   1.395859 A    
C46   H24   1.109052 S    
C10   C14   1.398705 A    
C32   C38   1.416829 A    
C3    C29   1.456075 S    
O1    Zn1   1.949927 S    
C14   O16   1.383793 S    
C11   H1    1.083169 S    
C2    C42   1.362150 S    
C12   H2    1.083219 S    
O6    Zn2   1.991958 S    
C8    O12   1.350134 S    
C16   C30   1.406857 A    
C14   C30   1.402758 A    
O4    C1    1.260261 A    
C44   H18   1.108927 S    
C13   O15   1.383672 S    
Zn1   N4    1.971597 S    
C28   C37   1.385544 A    
C20   C22   1.408151 A    
N3    N4    1.192120 T    
C31   C37   1.416556 A    
O4    Zn2   1.949889 S    
C41   C42   1.163030 T    
O2    Zn2   1.949927 S    
O7    C4    1.274744 A    
C9    H3    1.083345 S    
C15   O13   1.382050 S    
O8    C3    1.277964 A    
C16   O14   1.384386 S    
C44   H16   1.113834 S    
C37   H9    1.074909 S    
O5    Zn1   1.991961 S    
C8    C24   1.399130 A    
O16   C46   1.410110 S    
C15   C29   1.407926 A    
C31   C34   1.418643 A    
C6    C22   1.400033 A    
C25   C40   1.385005 A    
C46   H22   1.114285 S    
C26   C39   1.386311 A    
C25   H5    1.083928 S    
C27   C38   1.386377 A    
C26   H6    1.083546 S    
C7    O11   1.350136 S    
