data_mof_unit_18187.cif
_audit_creation_date              2012-12-11T14:33:09-0500
_audit_creation_method            fapswitch 2.2
_symmetry_space_group_name_H-M    P1
_symmetry_Int_Tables_number       1
_space_group_crystal_system       triclinic
_cell_length_a                    6.933423
_cell_length_b                    14.003149
_cell_length_c                    17.76328
_cell_angle_alpha                 112.896896
_cell_angle_beta                  95.608863
_cell_angle_gamma                 89.796743
_cell_volume                      1580.01763982

loop_
_atom_site_label
_atom_site_type_symbol
_atom_type_description
_atom_site_fract_x
_atom_site_fract_y
_atom_site_fract_z
_atom_type_partial_charge
O1    O     O_R   0.484560 0.544530 0.414330 -0.535461
O2    O     O_R   0.197040 0.638810 0.585080 -0.535828
O3    O     O_R   0.026800 0.455470 0.585670 -0.538664
C1    C     C_R   0.373306 0.679803 0.609068 0.686967
O4    O     O_R   0.155000 0.556150 0.414940 -0.542132
O5    O     O_R   0.984450 0.372220 0.414320 -0.539520
C2    C     C_R   0.317290 0.563552 0.385817 0.755646
O6    O     O_R   0.526900 0.627780 0.585680 -0.542848
O7    O     O_3   0.339170 0.439750 0.499990 -0.371056
V1    V     V_3+5 0.064350 0.511180 0.500000 1.361056
O8    O     O_R   0.654880 0.361190 0.414920 -0.538974
C3    C     C_R   0.819673 0.322612 0.388211 0.748102
O9    O     O_R   0.696930 0.443850 0.585060 -0.540679
C4    C     C_R   0.874389 0.432450 0.612497 0.677545
V2    V     V_3+5 0.564340 0.488820 0.500000 1.361660
O10   O     O_3   0.839390 0.560250 0.500010 -0.376206
C5    C     C_R   0.035380 0.865642 0.823318 -0.063385
C6    C     C_R   0.911693 0.396956 0.681653 -0.047588
C7    C     C_R   0.901988 0.834961 0.684102 -0.124431
C8    C     C_R   0.954767 0.798075 0.744965 0.145025
C9    C     C_R   0.052774 0.972064 0.839500 -0.262363
C10   C     C_R   0.983967 0.013339 0.780088 0.098657
C11   C     C_R   0.917108 0.940130 0.700421 0.090655
C12   C     C_R   0.986020 0.122331 0.794045 0.049697
C13   C     C_R   0.938315 0.150912 0.724397 0.029121
C14   C     C_R   0.883723 0.072768 0.646583 -0.158293
C15   C     C_R   0.868741 0.970386 0.635567 -0.209785
C16   C     C_R   0.032328 0.204765 0.872953 0.167551
C17   C     C_R   0.065792 0.305162 0.878031 -0.221772
C18   C     C_R   0.021303 0.331824 0.811069 0.087328
C19   C     C_R   0.947756 0.256962 0.733870 0.092366
C20   C     C_R   0.045772 0.435055 0.822337 -0.119435
C21   C     C_R   0.996975 0.465969 0.758229 -0.152417
C22   C     C_R   0.888861 0.292050 0.669459 -0.198674
H1    H     H_    0.821707 0.913521 0.574523 0.114218
H2    H     H_    0.825745 0.240870 0.609440 0.091369
H3    H     H_    0.031614 0.544330 0.770508 0.113175
C23   C     C_2   0.126698 0.031719 0.190013 -0.362372
C24   C     C_2   0.989084 0.052699 0.243990 0.196519
C25   C     C_2   0.823044 0.216709 0.321401 -0.017420
C26   C     C_2   0.985973 0.157472 0.311632 0.143661
C27   C     C_R   0.406959 0.784939 0.677597 -0.057162
C28   C     C_R   0.541601 0.469048 0.830515 -0.053989
C29   C     C_R   0.518408 0.882910 0.820693 -0.124172
C30   C     C_R   0.472496 0.788682 0.755257 -0.147075
C31   C     C_R   0.397059 0.879816 0.665789 -0.201777
C32   C     C_R   0.444918 0.978995 0.732754 0.064056
C33   C     C_R   0.498144 0.978364 0.811810 0.102444
C34   C     C_R   0.441635 0.078269 0.724566 0.060639
C35   C     C_R   0.481871 0.175026 0.795419 0.024164
C36   C     C_R   0.500073 0.167279 0.872389 -0.181844
C37   C     C_R   0.519532 0.072715 0.881572 0.119908
C38   C     C_R   0.396028 0.083591 0.647649 -0.159433
C39   C     C_R   0.389084 0.177575 0.638971 -0.206472
C40   C     C_R   0.435176 0.271570 0.705539 0.092433
C41   C     C_R   0.489459 0.274993 0.786115 0.084064
C42   C     C_R   0.427416 0.362070 0.689720 -0.133565
C43   C     C_R   0.477800 0.458537 0.750918 -0.191481
C44   C     C_R   0.550032 0.377922 0.849734 0.125488
H4    H     H_    0.349645 0.176373 0.577979 0.115020
H5    H     H_    0.363188 0.015636 0.592092 0.117740
H6    H     H_    0.381182 0.358225 0.628495 0.144664
C45   C     C_2   0.311807 0.592828 0.314081 -0.352306
C46   C     C_2   0.472652 0.594061 0.276645 -0.140832
H7    H     H_    0.762730 0.663279 0.221939 0.096428
C47   C     C_2   0.628805 0.651967 0.181701 -0.345814
C48   C     C_2   0.466810 0.612642 0.199305 0.182121
H8    H     H_    0.171845 0.609862 0.289949 0.135710
O11   O     O_R   0.421600 0.630430 0.917010 -0.540616
O12   O     O_R   0.793840 0.702190 0.087630 -0.547502
O13   O     O_R   0.964010 0.886170 0.088190 -0.528726
C49   C     C_R   0.629768 0.689438 0.113969 0.759711
O14   O     O_R   0.751460 0.619510 0.917500 -0.538737
O15   O     O_R   0.921330 0.802900 0.916840 -0.539216
C50   C     C_R   0.575135 0.578631 0.893607 0.693506
O16   O     O_R   0.464290 0.713700 0.088350 -0.530235
O17   O     O_3   0.609200 0.818520 0.002630 -0.373378
V3    V     V_3+5 0.884140 0.747190 0.002530 1.360482
O18   O     O_R   0.251150 0.814630 0.917340 -0.543486
C51   C     C_R   0.073819 0.827271 0.890906 0.705984
O19   O     O_R   0.293530 0.897310 0.087470 -0.542744
C52   C     C_R   0.130809 0.931315 0.118677 0.765595
V4    V     V_3+5 0.384070 0.769710 0.002370 1.361147
O20   O     O_3   0.109180 0.698190 0.002460 -0.374616
H9    H     H_    0.106222 0.492474 0.881068 0.137185
C53   C     C_3   0.167853 0.190037 0.371621 -0.755885
H10   H     H_    0.267614 0.124773 0.360598 0.190856
H11   H     H_    0.247912 0.253602 0.363990 0.229381
H12   H     H_    0.130832 0.214298 0.435749 0.192190
C54   C     C_3   0.853520 0.968954 0.245476 -0.709610
H13   H     H_    0.735739 0.948416 0.194189 0.219389
H14   H     H_    0.935017 0.898950 0.241369 0.185420
H15   H     H_    0.785371 0.995709 0.303935 0.181596
C55   C     C_3   0.642435 0.178376 0.261417 -0.829579
H16   H     H_    0.537073 0.240675 0.269825 0.209031
H17   H     H_    0.680102 0.151374 0.197209 0.224046
H18   H     H_    0.569425 0.114142 0.270739 0.218060
H19   H     H_    0.234861 0.091414 0.197392 0.120174
C56   C     C_3   0.550269 0.074675 0.967868 -0.824130
H20   H     H_    0.561206 0.154959 0.015526 0.206354
H21   H     H_    0.427544 0.033265 0.979335 0.209767
H22   H     H_    0.686724 0.036589 0.976161 0.208498
C57   C     C_3   0.629134 0.395777 0.936685 -0.845947
H23   H     H_    0.507992 0.403195 0.974816 0.195068
H24   H     H_    0.726398 0.334035 0.937879 0.232364
H25   H     H_    0.722021 0.467444 0.966575 0.204309
H26   H     H_    0.466390 0.526320 0.735750 0.105360
H27   H     H_    0.567425 0.879741 0.879137 0.165542
H28   H     H_    0.488016 0.717641 0.765631 0.093457
H29   H     H_    0.352370 0.873446 0.604188 0.091411
H30   H     H_    0.484592 0.233375 0.927386 0.154310
C58   C     C_3   0.283059 0.580992 0.140057 -0.670879
H31   H     H_    0.193558 0.522833 0.150756 0.177636
H32   H     H_    0.194914 0.649837 0.147556 0.212221
H33   H     H_    0.318319 0.543013 0.075601 0.185900
H34   H     H_    0.613270 0.581526 0.303463 0.137025
H35   H     H_    0.113898 0.365867 0.937335 0.126569
H36   H     H_    0.847963 0.780785 0.622918 0.125972
C59   C     C_3   0.934991 0.685122 0.723295 -0.751266
H37   H     H_    0.844518 0.669973 0.765899 0.182693
H38   H     H_    0.864383 0.643492 0.660325 0.239740
H39   H     H_    0.084259 0.657409 0.726045 0.184481
H40   H     H_    0.127301 0.018413 0.897803 0.137532
H41   H     H_    0.851231 0.087711 0.591825 0.119102
C60   C     C_3   0.027599 0.196408 0.955008 -0.830429
H42   H     H_    0.917879 0.137530 0.951399 0.227770
H43   H     H_    0.174077 0.181621 0.978321 0.215029
H44   H     H_    0.982719 0.269857 0.002175 0.205143

loop_
_geom_bond_atom_site_label_1
_geom_bond_atom_site_label_2
_ccdc_geom_bond_type
C13   C19   A    
C18   C20   A    
C40   C41   A    
C3    C25   S    
C46   H34   S    
O12   V3    S    
C4    C6    S    
O2    C1    A    
C7    C8    A    
C1    O6    A    
C58   H32   S    
O19   C52   A    
C54   H13   S    
C42   H6    S    
C24   C26   S    
C39   H4    S    
O17   V3    S    
C16   C60   S    
C26   C53   S    
C14   C15   A    
V4    O20   S    
C16   C17   A    
O5    C3    A    
C23   C24   D    
C30   H28   S    
O17   V4    S    
V2    O10   S    
C5    C8    A    
C43   H26   S    
C27   C31   A    
C28   C43   A    
C39   C40   A    
O8    V2    S    
C47   C49   S    
C32   C33   A    
C7    H36   S    
C60   H44   S    
O14   V3    S    
O1    V2    S    
C11   C15   A    
O7    V1    S    
C24   C54   S    
C22   H2    S    
C23   H19   S    
O13   C52   A    
C29   H27   S    
C47   C48   D    
O15   C51   A    
O9    C4    A    
C23   C52   S    
O14   C50   A    
C14   H41   S    
O16   V4    S    
C58   H31   S    
O19   V4    S    
C59   H38   S    
C28   C50   S    
C36   C37   A    
C46   C48   S    
C58   H33   S    
C12   C13   A    
C32   C34   A    
O4    C2    A    
C53   H10   S    
C55   H18   S    
C15   H1    S    
C13   C14   A    
C38   C39   A    
C17   H35   S    
C5    C51   S    
C35   C41   A    
C45   C46   D    
C27   C30   A    
C9    H40   S    
C7    C11   A    
C17   C18   A    
O11   V4    S    
C54   H14   S    
C56   H20   S    
C59   H37   S    
C35   C36   A    
C19   C22   A    
C49   O16   A    
C57   H24   S    
C40   C42   A    
C55   H17   S    
C6    C22   A    
C2    C45   S    
O3    C4    A    
C25   C26   D    
C56   H21   S    
H7    C47   S    
O6    V2    S    
O9    V2    S    
C60   H42   S    
C10   C12   A    
C38   H5    S    
O2    V1    S    
C29   C30   A    
C54   H15   S    
C59   H39   S    
C31   C32   A    
C36   H30   S    
O1    C2    A    
C12   C16   A    
C25   C55   S    
C53   H12   S    
O5    V1    S    
O8    C3    A    
C28   C44   A    
C45   H8    S    
C37   C56   S    
C41   C44   A    
C44   C57   S    
C20   C21   A    
C31   H29   S    
O7    V2    S    
O4    V1    S    
O3    V1    S    
V1    O10   S    
O18   V4    S    
C42   C43   A    
C18   C19   A    
C1    C27   S    
C34   C38   A    
C20   H9    S    
O11   C50   A    
C57   H25   S    
C53   H11   S    
O13   V3    S    
C55   H16   S    
C6    C21   A    
C21   H3    S    
O18   C51   A    
V3    O20   S    
C48   C58   S    
C33   C37   A    
C56   H22   S    
C34   C35   A    
O15   V3    S    
C57   H23   S    
C60   H43   S    
C10   C11   A    
O12   C49   A    
C9    C10   A    
C8    C59   S    
C29   C33   A    
C5    C9    A    
