data_mof_unit_68050.cif
_audit_creation_date              2012-12-11T14:39:19-0500
_audit_creation_method            fapswitch 2.2
_symmetry_space_group_name_H-M    P1
_symmetry_Int_Tables_number       1
_space_group_crystal_system       triclinic
_cell_length_a                    7.241095
_cell_length_b                    13.942236
_cell_length_c                    16.344846
_cell_angle_alpha                 90.000447
_cell_angle_beta                  97.531342
_cell_angle_gamma                 90.0
_cell_volume                      1635.89238835

loop_
_atom_site_label
_atom_site_type_symbol
_atom_type_description
_atom_site_fract_x
_atom_site_fract_y
_atom_site_fract_z
_atom_type_partial_charge
O1    O     O_R   0.525340 0.338340 0.164530 -0.564673
O2    O     O_R   0.474660 0.661660 0.835470 -0.564670
O3    O     O_R   0.974660 0.838340 0.835470 -0.564669
O4    O     O_R   0.025340 0.161660 0.164530 -0.564671
O5    O     O_R   0.253520 0.352000 0.336710 -0.540469
O6    O     O_R   0.746480 0.648000 0.663290 -0.540462
O7    O     O_R   0.246480 0.852000 0.663290 -0.540471
O8    O     O_R   0.753520 0.148000 0.336710 -0.540465
O9    O     O_R   0.083330 0.168380 0.337300 -0.513814
O10   O     O_R   0.916670 0.831620 0.662700 -0.513813
O11   O     O_R   0.416670 0.668380 0.662700 -0.513814
O12   O     O_R   0.583330 0.331620 0.337300 -0.513816
C1    C     C_R   0.432224 0.367699 0.364316 0.821665
C2    C     C_R   0.567775 0.632300 0.635684 0.821669
C3    C     C_R   0.067775 0.867702 0.635685 0.821657
C4    C     C_R   0.932225 0.132299 0.364315 0.821662
O13   O     O_R   0.195840 0.349670 0.165140 -0.522899
O14   O     O_R   0.804160 0.650330 0.834860 -0.522880
O15   O     O_R   0.304160 0.849670 0.834860 -0.522914
O16   O     O_R   0.695840 0.150330 0.165140 -0.522884
C5    C     C_R   0.357122 0.373088 0.138497 0.611322
C6    C     C_R   0.642879 0.626915 0.861505 0.611345
C7    C     C_R   0.142879 0.873088 0.861503 0.611297
C8    C     C_R   0.857120 0.126915 0.138494 0.611336
O17   O     O_3   0.387830 0.193120 0.250910 -0.376337
O18   O     O_3   0.612170 0.806880 0.749090 -0.376355
O19   O     O_3   0.112170 0.693120 0.749090 -0.376329
O20   O     O_3   0.887830 0.306880 0.250910 -0.376346
V1    V     V_3+5 0.113010 0.264540 0.250910 1.460342
V2    V     V_3+5 0.886990 0.735460 0.749090 1.460367
V3    V     V_3+5 0.386990 0.764540 0.749090 1.460305
V4    V     V_3+5 0.613010 0.235460 0.250910 1.460363
C9    C     C_R   0.934380 0.198702 0.536070 0.404992
C10   C     C_R   0.065618 0.801299 0.463930 0.405003
C11   C     C_R   0.565610 0.698701 0.463929 0.404991
C12   C     C_R   0.434397 0.301296 0.536071 0.404991
C13   C     C_R   0.923180 0.224620 0.618923 -0.291378
C14   C     C_R   0.076803 0.775381 0.381076 -0.291407
C15   C     C_R   0.576774 0.724619 0.381072 -0.291395
C16   C     C_R   0.423228 0.275378 0.618926 -0.291386
C17   C     C_R   0.948957 0.157838 0.682146 0.465214
C18   C     C_R   0.051015 0.842161 0.317852 0.465193
C19   C     C_R   0.550964 0.657839 0.317848 0.465228
C20   C     C_R   0.449022 0.342159 0.682150 0.465251
C21   C     C_R   0.992895 0.063402 0.664272 -0.268733
C22   C     C_R   0.007094 0.936599 0.335728 -0.268704
C23   C     C_R   0.507046 0.563402 0.335726 -0.268697
C24   C     C_R   0.492932 0.436598 0.664273 -0.268711
C25   C     C_R   0.996941 0.032030 0.582177 -0.096801
C26   C     C_R   0.003057 0.967972 0.417824 -0.096802
C27   C     C_R   0.503036 0.532029 0.417823 -0.096808
C28   C     C_R   0.496957 0.467971 0.582177 -0.096806
C29   C     C_R   0.964590 0.099512 0.516663 -0.030366
C30   C     C_R   0.035410 0.900490 0.483338 -0.030363
C31   C     C_R   0.535400 0.599511 0.483336 -0.030367
C32   C     C_R   0.464602 0.400487 0.516663 -0.030369
C33   C     C_R   0.032978 0.934164 0.565678 -0.110206
C34   C     C_R   0.967022 0.065838 0.434323 -0.110207
C35   C     C_R   0.467019 0.434161 0.434323 -0.110202
C36   C     C_R   0.532980 0.565837 0.565677 -0.110205
C37   C     C_2   0.149941 0.947784 0.926913 0.273598
C38   C     C_2   0.850053 0.052221 0.073084 0.273555
C39   C     C_2   0.350059 0.447784 0.073088 0.273599
C40   C     C_2   0.649945 0.552222 0.926916 0.273555
C41   C     C_2   0.999983 0.963741 0.966826 -0.211976
C42   C     C_2   0.000004 0.036266 0.033166 -0.211939
C43   C     C_2   0.500020 0.463748 0.033178 -0.211987
C44   C     C_2   0.499996 0.536268 0.966835 -0.211981
O21   O     O_3   0.056664 0.811536 0.237625 -0.564819
C45   C     C_3   0.202214 0.858837 0.204314 -0.239649
H1    H     H_    0.335709 0.856180 0.246769 0.155701
H2    H     H_    0.164265 0.934288 0.188107 0.130332
H3    H     H_    0.225495 0.821866 0.146437 0.168792
O22   O     O_3   0.943272 0.188462 0.762371 -0.564813
C46   C     C_3   0.797715 0.141153 0.795670 -0.239673
H4    H     H_    0.835673 0.065704 0.811880 0.130315
H5    H     H_    0.664234 0.143803 0.753207 0.155679
H6    H     H_    0.774405 0.178122 0.853544 0.168807
O23   O     O_3   0.443387 0.311535 0.762377 -0.564804
C47   C     C_3   0.297822 0.358822 0.795688 -0.239772
H7    H     H_    0.164327 0.356144 0.753237 0.155721
H8    H     H_    0.335736 0.434279 0.811887 0.130364
H9    H     H_    0.274566 0.321855 0.853568 0.168788
O24   O     O_3   0.556575 0.688462 0.237619 -0.564810
C48   C     C_3   0.702168 0.641191 0.204312 -0.239736
H10   H     H_    0.664331 0.565697 0.188163 0.130323
H11   H     H_    0.835712 0.643945 0.246751 0.155784
H12   H     H_    0.725314 0.678133 0.146393 0.168764
O25   O     O_3   0.897278 0.265712 0.472466 -0.542514
C49   C     C_3   0.953886 0.360180 0.495011 -0.181855
H13   H     H_    0.086711 0.362613 0.537162 0.114164
H14   H     H_    0.843898 0.397779 0.523622 0.125102
H15   H     H_    0.974683 0.400326 0.438358 0.158530
O26   O     O_3   0.102733 0.734291 0.527535 -0.542514
C50   C     C_3   0.046124 0.639821 0.504992 -0.181842
H16   H     H_    0.156107 0.602224 0.476376 0.125099
H17   H     H_    0.913292 0.637387 0.462846 0.114163
H18   H     H_    0.025342 0.599675 0.561647 0.158532
O27   O     O_3   0.602747 0.765709 0.527533 -0.542516
C51   C     C_3   0.546142 0.860180 0.504995 -0.181846
H19   H     H_    0.413300 0.862617 0.462857 0.114167
H20   H     H_    0.656117 0.897774 0.476372 0.125100
H21   H     H_    0.525383 0.900327 0.561653 0.158526
O28   O     O_3   0.397273 0.234289 0.472466 -0.542515
C52   C     C_3   0.453865 0.139816 0.495006 -0.181852
H22   H     H_    0.343880 0.102226 0.523626 0.125102
H23   H     H_    0.586701 0.137377 0.537147 0.114162
H24   H     H_    0.474629 0.099668 0.438349 0.158529
H25   H     H_    0.889136 0.297046 0.635318 0.135933
H26   H     H_    0.110840 0.702954 0.364680 0.135924
H27   H     H_    0.610806 0.797046 0.364675 0.135920
H28   H     H_    0.389198 0.202951 0.635323 0.135912
H29   H     H_    0.022754 0.014907 0.715888 0.101264
H30   H     H_    0.977235 0.985095 0.284113 0.101258
H31   H     H_    0.477165 0.514907 0.284110 0.101252
H32   H     H_    0.522790 0.485095 0.715888 0.101259
H33   H     H_    0.126778 0.077304 0.049925 0.170657
H34   H     H_    0.873205 0.922709 0.950061 0.170613
H35   H     H_    0.373220 0.577304 0.950074 0.170640
H36   H     H_    0.626803 0.422720 0.049946 0.170613
O29   O     O_3   0.685580 0.002704 0.050021 -0.528925
C53   C     C_3   0.671312 0.928783 0.107768 -0.140625
H37   H     H_    0.663206 0.957789 0.170623 0.114148
H38   H     H_    0.789324 0.877384 0.109221 0.147805
H39   H     H_    0.541047 0.888189 0.088626 0.166509
O30   O     O_3   0.314410 0.997300 0.949991 -0.528908
C54   C     C_3   0.328810 0.071154 0.892195 -0.140863
H40   H     H_    0.210596 0.122488 0.890539 0.147887
H41   H     H_    0.337390 0.042048 0.829396 0.114248
H42   H     H_    0.458912 0.111864 0.911449 0.166560
O31   O     O_3   0.814418 0.502706 0.949977 -0.528940
C55   C     C_3   0.828663 0.428774 0.892236 -0.140502
H43   H     H_    0.836660 0.457766 0.829360 0.114116
H44   H     H_    0.710684 0.377349 0.890829 0.147805
H45   H     H_    0.958986 0.388211 0.911358 0.166516
O32   O     O_3   0.185580 0.497291 0.050011 -0.528929
C56   C     C_3   0.171219 0.571181 0.107778 -0.140691
H46   H     H_    0.289278 0.622568 0.109311 0.147859
H47   H     H_    0.162942 0.542136 0.170609 0.114183
H48   H     H_    0.041001 0.611803 0.088595 0.166532

loop_
_geom_bond_atom_site_label_1
_geom_bond_atom_site_label_2
_ccdc_geom_bond_type
O1    C5    A    
O30   C54   S    
O13   V1    S    
C52   H22   S    
O3    C7    A    
C50   H16   S    
O15   V3    S    
C50   H18   S    
C16   H28   S    
C48   H10   S    
C23   H31   S    
C52   H23   S    
C26   C30   A    
C40   C44   D    
O20   V1    S    
O9    C4    A    
C14   C18   A    
O10   C3    A    
C44   H35   S    
C11   C15   A    
O4    C8    A    
O11   C2    A    
C48   H12   S    
C25   C33   A    
C18   C22   A    
C28   C36   A    
C17   O22   S    
O16   C8    A    
C55   H43   S    
C42   H33   S    
O2    C6    A    
C41   H34   S    
C45   H1    S    
O14   V2    S    
C14   H26   S    
C43   H36   S    
C16   C20   A    
C13   H25   S    
O4    V1    S    
O9    V1    S    
C24   H32   S    
O17   V4    S    
O7    C3    A    
O11   V3    S    
O18   V3    S    
O8    C4    A    
C10   C14   A    
C31   C36   A    
O12   V4    S    
O19   V2    S    
C19   O24   S    
C3    C33   S    
O26   C50   S    
C47   H9    S    
C11   O27   S    
O28   C52   S    
C52   H24   S    
O5    V1    S    
C48   H11   S    
C9    C29   A    
C56   H48   S    
C39   C43   D    
O7    V3    S    
O22   C46   S    
C38   C42   D    
C11   C31   A    
C43   C44   S    
C26   C34   A    
C12   C16   A    
O24   C48   S    
C47   H8    S    
C22   H30   S    
O32   C56   S    
C15   C19   A    
C51   H21   S    
C9    C13   A    
O2    V3    S    
O8    V4    S    
O3    V2    S    
O15   C7    A    
C46   H4    S    
C54   H41   S    
C12   C32   A    
C9    O25   S    
O6    C2    A    
C56   H47   S    
O10   V2    S    
C49   H14   S    
O27   C51   S    
C40   O31   S    
C21   C25   A    
C45   H3    S    
C51   H20   S    
C4    C34   S    
C46   H5    S    
O29   C53   S    
C37   O30   S    
O6    V2    S    
C10   C30   A    
C27   C35   A    
O1    V4    S    
C53   H38   S    
O31   C55   S    
C49   H15   S    
O16   V4    S    
C7    C37   S    
C8    C38   S    
O14   C6    A    
O5    C1    A    
C20   O23   S    
C10   O26   S    
C47   H7    S    
C23   C27   A    
C29   C34   A    
C50   H17   S    
C54   H40   S    
C1    C35   S    
C2    C36   S    
C56   H46   S    
C22   C26   A    
C32   C35   A    
C12   O28   S    
C39   O32   S    
C53   H39   S    
C53   H37   S    
C54   H42   S    
C49   H13   S    
C28   C32   A    
C55   H45   S    
C25   C29   A    
C15   H27   S    
C51   H19   S    
C27   C31   A    
C18   O21   S    
C37   C41   D    
C13   C17   A    
O21   C45   S    
C46   H6    S    
O13   C5    A    
C5    C39   S    
C6    C40   S    
O23   C47   S    
C21   H29   S    
C24   C28   A    
O12   C1    A    
C55   H44   S    
C41   C42   S    
C17   C21   A    
C45   H2    S    
O25   C49   S    
C19   C23   A    
C38   O29   S    
C20   C24   A    
C30   C33   A    
