data_mof_unit_9536.cif
_audit_creation_date              2012-12-10T17:17:25-0500
_audit_creation_method            fapswitch 2.2
_symmetry_space_group_name_H-M    P1
_symmetry_Int_Tables_number       1
_space_group_crystal_system       triclinic
_cell_length_a                    10.189966
_cell_length_b                    10.825745
_cell_length_c                    12.252458
_cell_angle_alpha                 90.679198
_cell_angle_beta                  109.220154
_cell_angle_gamma                 96.056034
_cell_volume                      1267.59351204

loop_
_atom_site_label
_atom_site_type_symbol
_atom_type_description
_atom_site_fract_x
_atom_site_fract_y
_atom_site_fract_z
_atom_type_partial_charge
C1    C     C_R   0.053696 0.732665 0.495639 0.938304
C2    C     C_R   0.418969 0.493159 0.993949 0.023057
C3    C     C_R   0.322335 0.450912 0.885309 0.080312
C4    C     C_R   0.553180 0.452288 0.026763 0.118018
C5    C     C_R   0.581044 0.356206 0.960638 0.131055
C6    C     C_R   0.476541 0.303391 0.861627 -0.228314
C7    C     C_R   0.348550 0.350218 0.824102 -0.162460
C8    C     C_R   0.661318 0.506033 0.122711 -0.292592
C9    C     C_R   0.815040 0.359060 0.098709 0.143489
C10   C     C_R   0.203522 0.513198 0.838754 -0.170767
C11   C     C_2   0.089928 0.865583 0.502714 -0.377802
C12   C     C_R   0.132871 0.508047 0.714284 0.881201
C13   C     C_2   0.008684 0.936367 0.535526 -0.134458
C14   C     C_2   0.926920 0.136473 0.526122 -0.367097
C15   C     C_2   0.030837 0.068537 0.532347 -0.141214
C16   C     C_2   0.432687 0.511505 0.509604 -0.129975
C17   C     C_2   0.567242 0.488591 0.490254 -0.127221
C18   C     C_R   0.949817 0.267751 0.510391 0.949744
C19   C     C_R   0.865101 0.483824 0.285907 0.895022
C20   C     C_R   0.712641 0.312853 0.995499 -0.217436
C21   C     C_R   0.786209 0.454176 0.164418 -0.133989
C22   C     C_R   0.165367 0.596080 0.908628 -0.298214
C23   C     C_R   0.249124 0.622365 0.023829 0.535938
C24   C     C_R   0.377782 0.575200 0.064656 -0.259820
H1    H     H_    0.918866 0.896934 0.558166 0.187295
H2    H     H_    0.826953 0.095272 0.530714 0.152046
H3    H     H_    0.179428 0.905435 0.479999 0.153520
H4    H     H_    0.564618 0.415243 0.428171 0.170415
H5    H     H_    0.435255 0.584953 0.571566 0.168665
H6    H     H_    0.684638 0.622197 0.603401 0.161867
H7    H     H_    0.315348 0.377713 0.396662 0.184701
H8    H     H_    0.494588 0.227448 0.811883 0.148293
H9    H     H_    0.733768 0.239211 0.945130 0.163215
H10   H     H_    0.648879 0.585757 0.170549 0.161749
H11   H     H_    0.074382 0.644936 0.872484 0.167911
H12   H     H_    0.441391 0.602121 0.152808 0.158807
H13   H     H_    0.269928 0.306454 0.746887 0.158863
H14   H     H_    0.131044 0.109283 0.527675 0.189845
N1    N     N_2   0.313640 0.446500 0.454900 -0.187518
N2    N     N_2   0.686360 0.553430 0.545150 -0.191286
O1    O     O_R   0.936910 0.692950 0.509080 -0.608459
O2    O     O_R   0.138320 0.658600 0.480130 -0.610557
O3    O     O_R   0.002900 0.525670 0.675280 -0.608200
O4    O     O_R   0.204310 0.491320 0.646330 -0.612058
O5    O     O_R   0.861680 0.341400 0.519870 -0.609101
O6    O     O_R   0.063090 0.307050 0.490920 -0.602188
O7    O     O_R   0.795690 0.508680 0.353670 -0.605443
O8    O     O_R   0.997100 0.474330 0.324720 -0.587671
Zn1   Zn    Zn3+2 0.865520 0.522940 0.519330 0.942421
Zn2   Zn    Zn3+2 0.134480 0.477060 0.480670 0.950661
I1    I     I_    0.001757 0.271422 0.150545 -0.415631
O9    O     O_3   0.217564 0.709445 0.091960 -0.612025
C25   C     C_3   0.100278 0.659971 0.121067 0.091041
H15   H     H_    0.122678 0.574305 0.170109 0.180000
H16   H     H_    0.006054 0.638173 0.042665 0.141532
C26   C     C_3   0.067662 0.755770 0.197338 -0.742247
H17   H     H_    0.045122 0.842496 0.150626 0.260572
H18   H     H_    0.974793 0.719074 0.220316 0.189420
H19   H     H_    0.158407 0.777505 0.277929 0.254768

loop_
_geom_bond_atom_site_label_1
_geom_bond_atom_site_label_2
_ccdc_geom_bond_type
C2    C4    A    
C23   C24   A    
C15   H14   S    
C6    C7    A    
C11   H3    S    
C14   C18   S    
C9    C20   A    
C6    H8    S    
C9    I1    S    
C26   H19   S    
O5    Zn1   S    
C4    C8    A    
C9    C21   A    
O8    Zn2   S    
C2    C3    A    
C7    H13   S    
H6    N2    S    
O7    Zn1   S    
C3    C10   A    
C8    H10   S    
C25   H15   S    
C10   C22   A    
C22   H11   S    
C11   C13   D    
C13   H1    S    
C23   O9    S    
C24   H12   S    
C10   C12   S    
O2    Zn2   S    
H7    N1    S    
C20   H9    S    
C18   O6    A    
O1    Zn1   S    
C19   C21   S    
C26   H18   S    
C8    C21   A    
C12   O3    A    
C3    C7    A    
C25   H16   S    
C13   C15   S    
C2    C24   A    
C5    C6    A    
C19   O7    A    
C16   C17   S    
C16   N1    D    
N2    Zn1   S    
C18   O5    A    
C1    O2    A    
N1    Zn2   S    
C26   H17   S    
C12   O4    A    
C25   C26   S    
O4    Zn2   S    
C5    C20   A    
O6    Zn2   S    
C14   C15   D    
O3    Zn1   S    
C16   H5    S    
C19   O8    A    
C17   H4    S    
C22   C23   A    
C14   H2    S    
C1    O1    A    
O9    C25   S    
C4    C5    A    
C17   N2    D    
C1    C11   S    
