data_mof_unit_49079.cif
_audit_creation_date              2013-03-05T16:30:28-0500
_audit_creation_method            fapswitch 2.2
_symmetry_space_group_name_H-M    P1
_symmetry_Int_Tables_number       1
_space_group_crystal_system       triclinic
_cell_length_a                    8.574371
_cell_length_b                    14.897938
_cell_length_c                    14.334308
_cell_angle_alpha                 91.191774
_cell_angle_beta                  98.071545
_cell_angle_gamma                 90.952108
_cell_volume                      1812.18620081

loop_
_atom_site_label
_atom_site_type_symbol
_atom_site_description
_atom_site_fract_x
_atom_site_fract_y
_atom_site_fract_z
_atom_type_partial_charge
O1    O     O_R   0.500010 0.369070 0.579480 -0.584651
O2    O     O_R   0.499990 0.630930 0.420520 -0.577524
O3    O     O_R   0.500010 0.369060 0.420520 -0.623852
O4    O     O_R   0.499990 0.630940 0.579480 -0.618541
C1    C     C_R   0.497783 0.327877 0.498434 0.928264
C2    C     C_R   0.498046 0.671719 0.500491 0.888331
O5    O     O_R   0.271750 0.500000 0.560890 -0.559031
O6    O     O_R   0.728250 0.500000 0.439110 -0.556986
O7    O     O_R   0.271750 0.499990 0.401930 -0.614573
O8    O     O_R   0.728250 0.500010 0.598070 -0.631862
C3    C     C_R   0.201924 0.496245 0.476437 0.920546
C4    C     C_R   0.798095 0.499671 0.523823 0.920345
Zn1   Zn    Zn3+2 0.500000 0.500010 0.606140 1.055403
Zn2   Zn    Zn3+2 0.500000 0.499990 0.393860 1.048482
C5    C     C_2   0.041328 0.470913 0.471195 0.088904
C6    C     C_2   0.960823 0.515322 0.531700 0.057007
C7    C     C_R   0.355711 0.096749 0.537389 -0.000525
C8    C     C_R   0.321955 0.894158 0.449979 0.029242
C9    C     C_R   0.371479 0.189524 0.540536 -0.092636
C10   C     C_R   0.337413 0.801703 0.459568 -0.187025
H1    H     H_    0.300645 0.228499 0.582374 0.234504
H2    H     H_    0.240201 0.756531 0.432600 0.178119
C11   C     C_R   0.480399 0.231879 0.491937 -0.043751
C12   C     C_R   0.480893 0.766680 0.499334 -0.001478
C13   C     C_R   0.564705 0.182943 0.432397 -0.205447
C14   C     C_R   0.610823 0.821823 0.529327 -0.171637
H3    H     H_    0.645839 0.215934 0.392070 0.192970
H4    H     H_    0.723998 0.793661 0.554768 0.177015
C15   C     C_R   0.547480 0.090552 0.426744 -0.222181
C16   C     C_R   0.595520 0.913661 0.524671 -0.236386
H5    H     H_    0.616591 0.052496 0.382724 0.146910
H6    H     H_    0.696437 0.956563 0.549914 0.144490
C17   C     C_R   0.446736 0.047055 0.480947 0.049375
C18   C     C_R   0.452662 0.950123 0.484796 0.062487
C19   C     C_R   0.384421 0.460139 0.092691 -0.251089
C20   C     C_R   0.549977 0.572927 0.902625 -0.253781
H7    H     H_    0.286382 0.429727 0.046236 0.208750
H8    H     H_    0.583706 0.633691 0.943925 0.197456
C21   C     C_R   0.384474 0.456768 0.190700 0.047210
C22   C     C_R   0.551508 0.573266 0.804421 0.052112
N1    N     N_R   0.500000 0.499980 0.252470 -0.174752
N2    N     N_R   0.500000 0.500020 0.747530 -0.167866
C23   C     C_R   0.621000 0.543465 0.216804 0.320108
C24   C     C_R   0.448231 0.425064 0.790189 0.353200
C25   C     C_R   0.633129 0.539504 0.118484 0.141437
C26   C     C_R   0.459819 0.419841 0.890243 0.168014
C27   C     C_R   0.510907 0.497957 0.054424 0.021697
C28   C     C_R   0.509459 0.495875 0.948123 0.031940
N3    N     N_R   0.997372 0.380743 0.436252 0.183048
O9    O     O_R   0.856452 0.359397 0.394969 -0.426313
O10   O     O_R   0.101175 0.317820 0.448328 -0.440286
N4    N     N_R   0.021830 0.595828 0.582058 0.170984
O11   O     O_R   0.088724 0.591877 0.669086 -0.401454
O12   O     O_R   0.002823 0.673343 0.542277 -0.455913
C29   C     C_R   0.260516 0.055146 0.603463 0.103681
C30   C     C_R   0.096787 0.066432 0.592896 -0.123415
C31   C     C_R   0.010731 0.037855 0.663150 -0.126478
C32   C     C_R   0.087863 0.998612 0.744264 -0.088880
C33   C     C_R   0.250507 0.986759 0.754695 -0.104686
C34   C     C_R   0.336801 0.015506 0.684765 -0.088671
H9    H     H_    0.036835 0.099008 0.531463 0.160642
H10   H     H_    0.885012 0.048000 0.655795 0.135439
H11   H     H_    0.022488 0.978854 0.800001 0.133758
H12   H     H_    0.310089 0.957482 0.818123 0.133935
H13   H     H_    0.463795 0.010663 0.695340 0.127248
C35   C     C_R   0.174149 0.928703 0.397612 0.095066
C36   C     C_R   0.027002 0.900161 0.420097 -0.126012
C37   C     C_R   0.887893 0.927021 0.365949 -0.102951
C38   C     C_R   0.893969 0.982989 0.289596 -0.099280
C39   C     C_R   0.039360 0.011307 0.266395 -0.130635
C40   C     C_R   0.178972 0.984149 0.319807 -0.130502
H14   H     H_    0.020032 0.856663 0.479032 0.171733
H15   H     H_    0.775250 0.903469 0.382169 0.161396
H16   H     H_    0.786047 0.003471 0.247667 0.133813
H17   H     H_    0.043845 0.053139 0.205986 0.137594
H18   H     H_    0.290517 0.004430 0.298826 0.134109
C41   C     C_R   0.264481 0.397590 0.222141 0.140814
C42   C     C_R   0.104850 0.419532 0.202480 -0.109755
C43   C     C_R   0.987531 0.354954 0.210284 -0.007215
C44   C     C_R   0.028938 0.268246 0.238551 -0.026802
C45   C     C_R   0.187727 0.246123 0.258666 -0.120787
C46   C     C_R   0.304926 0.309968 0.248645 -0.072183
H19   H     H_    0.071895 0.485495 0.177335 0.210892
H20   H     H_    0.864604 0.371976 0.193917 0.166875
H21   H     H_    0.938082 0.218409 0.245144 0.135154
H22   H     H_    0.220455 0.179138 0.280218 0.138055
H23   H     H_    0.426920 0.290038 0.257742 0.147993
C47   C     C_R   0.614849 0.655272 0.768330 0.158039
C48   C     C_R   0.773260 0.659421 0.754144 -0.051777
C49   C     C_R   0.845525 0.742327 0.741726 -0.110161
C50   C     C_R   0.760407 0.821177 0.744965 -0.163717
C51   C     C_R   0.602820 0.817261 0.759139 -0.119407
C52   C     C_R   0.529731 0.734739 0.770497 -0.132931
H24   H     H_    0.842155 0.599097 0.757459 0.190033
H25   H     H_    0.968169 0.745874 0.731699 0.195399
H26   H     H_    0.815297 0.885264 0.735127 0.131813
H27   H     H_    0.538260 0.878203 0.763273 0.131792
H28   H     H_    0.409117 0.732965 0.785083 0.150170
N5    N     N_R   0.739301 0.591750 0.279254 0.256362
O13   O     O_R   0.712332 0.673383 0.305628 -0.351984
O14   O     O_R   0.883608 0.564086 0.289900 -0.394429
N6    N     N_R   0.378469 0.351018 0.734071 0.233540
O15   O     O_R   0.238456 0.359034 0.687014 -0.359041
O16   O     O_R   0.438558 0.271664 0.745434 -0.374722
N7    N     N_R   0.771424 0.575366 0.085292 0.204051
O17   O     O_R   0.846261 0.527199 0.029823 -0.400345
O18   O     O_R   0.822419 0.656421 0.109576 -0.337023
N8    N     N_R   0.422731 0.336700 0.931945 0.222740
O19   O     O_R   0.523849 0.301701 0.996659 -0.378922
O20   O     O_R   0.286082 0.297231 0.907711 -0.328235

loop_
_geom_bond_atom_site_label_1
_geom_bond_atom_site_label_2
_geom_bond_distance
_ccdc_geom_bond_type
C29   C30   1.404014 A    
C9    C11   1.391796 A    
C19   C27   1.397901 A    
C45   C46   1.396293 A    
C31   C32   1.398659 A    
C31   H10   1.081728 S    
C21   N1    1.374205 A    
C41   C42   1.403597 A    
C30   C31   1.398547 A    
O5    C3    1.272643 A    
N7    O18   1.301067 A    
C33   H12   1.082294 S    
C7    C17   1.408349 A    
O1    C1    1.300134 A    
C21   C41   1.468184 S    
C19   H7    1.083032 S    
C12   C14   1.386100 A    
C43   H20   1.082699 S    
C5    C6    1.351225 D    
C15   C17   1.400211 A    
C48   H24   1.081869 S    
N8    O19   1.301294 A    
C36   H14   1.082991 S    
O4    Zn1   1.995452 S    
N6    O15   1.300468 A    
C50   H26   1.078093 S    
C3    C5    1.413052 S    
C42   H19   1.082055 S    
C4    C6    1.399219 S    
N4    O12   1.301107 A    
C37   C38   1.395837 A    
N3    O10   1.300811 A    
C26   N8    1.436583 S    
C39   C40   1.398031 A    
C7    C29   1.473807 S    
C45   H22   1.080670 S    
C22   N2    1.377199 A    
C35   C36   1.406627 A    
C33   C34   1.396885 A    
C29   C34   1.400781 A    
N1    C23   1.377630 A    
O2    C2    1.288538 A    
N2    C24   1.380612 A    
O2    Zn2   1.980004 S    
Zn1   N2    2.026726 S    
C25   N7    1.437312 S    
C51   H27   1.076062 S    
C25   C27   1.417436 A    
C13   C15   1.381376 A    
C26   C28   1.413625 A    
C16   C18   1.400221 A    
C36   C37   1.397882 A    
C27   C28   1.521726 S    
C10   C12   1.395510 A    
C20   C22   1.409693 A    
O4    C2    1.294223 A    
C50   C51   1.394784 A    
C24   N6    1.424006 S    
C42   C43   1.397832 A    
C24   C26   1.427508 A    
C32   C33   1.396101 A    
C19   C21   1.406766 A    
O7    Zn2   1.976664 S    
C44   H21   1.082331 S    
O7    C3    1.297359 A    
C35   C40   1.406430 A    
C1    C11   1.435178 S    
O6    C4    1.276454 A    
C2    C12   1.424981 S    
C17   C18   1.447751 S    
C38   H16   1.082344 S    
N6    O16   1.301655 A    
C23   C25   1.427743 A    
O3    Zn2   1.995452 S    
O8    C4    1.292373 A    
Zn2   N1    2.026726 S    
N5    O14   1.300273 A    
C10   H2    1.084958 S    
C34   H13   1.081943 S    
C14   C16   1.378745 A    
O1    Zn1   1.980004 S    
N4    O11   1.300737 A    
C32   H11   1.081319 S    
C47   C52   1.403128 A    
O6    Zn2   1.973439 S    
C9    H1    1.079451 S    
C6    N4    1.438854 S    
C23   N5    1.428879 S    
C44   C45   1.397893 A    
O3    C1    1.287728 A    
O8    Zn1   1.976662 S    
C49   H25   1.081765 S    
C13   H3    1.083081 S    
N7    O17   1.301432 A    
C14   H4    1.082231 S    
N5    O13   1.300088 A    
C22   C47   1.462311 S    
C20   H8    1.083773 S    
C37   H15   1.079450 S    
C15   H5    1.082615 S    
C16   H6    1.082705 S    
C49   C50   1.396598 A    
C40   H18   1.082331 S    
C41   C46   1.402610 A    
C8    C18   1.412384 A    
C51   C52   1.393571 A    
C7    C9    1.385696 A    
N8    O20   1.301370 A    
C20   C28   1.394730 A    
C8    C10   1.393741 A    
C5    N3    1.449030 S    
C38   C39   1.395512 A    
C8    C35   1.484945 S    
C43   C44   1.398400 A    
O5    Zn1   1.973440 S    
C11   C13   1.395467 A    
C47   C48   1.401918 A    
N3    O9    1.299977 A    
C39   H17   1.081980 S    
C30   H9    1.083601 S    
C48   C49   1.398517 A    
C52   H28   1.083517 S    
C46   H23   1.083021 S    
