data_mof_unit_18233.cif
_audit_creation_date              2012-12-11T14:29:34-0500
_audit_creation_method            fapswitch 2.2
_symmetry_space_group_name_H-M    P1
_symmetry_Int_Tables_number       1
_space_group_crystal_system       triclinic
_cell_length_a                    6.941397
_cell_length_b                    14.750685
_cell_length_c                    16.259763
_cell_angle_alpha                 90.314329
_cell_angle_beta                  88.536971
_cell_angle_gamma                 88.925889
_cell_volume                      1663.97819749

loop_
_atom_site_label
_atom_site_type_symbol
_atom_type_description
_atom_site_fract_x
_atom_site_fract_y
_atom_site_fract_z
_atom_type_partial_charge
O1    O     O_R   0.494400 0.416610 0.413880 -0.547370
O2    O     O_R   0.823920 0.406790 0.585520 -0.509363
O3    O     O_R   0.994250 0.583390 0.586120 -0.513521
C1    C     C_R   0.654200 0.384828 0.613378 0.808452
O4    O     O_R   0.824110 0.405730 0.414490 -0.521099
O5    O     O_R   0.994440 0.582310 0.413870 -0.535068
C2    C     C_R   0.660872 0.387292 0.384115 0.610944
O6    O     O_R   0.494210 0.417690 0.586130 -0.522895
O7    O     O_3   0.660810 0.557940 0.500000 -0.389206
V1    V     V_3+5 0.935650 0.489250 0.500000 1.607882
O8    O     O_R   0.324160 0.593210 0.414480 -0.554858
C3    C     C_R   0.155906 0.614806 0.386220 0.745762
O9    O     O_R   0.323970 0.594270 0.585510 -0.547873
C4    C     C_R   0.152072 0.614337 0.615404 0.799507
V2    V     V_3+5 0.435660 0.510750 0.500000 1.517073
O10   O     O_3   0.160630 0.442060 0.500000 -0.350639
H1    H     H_    0.853307 0.897973 0.520876 0.110717
C5    C     C_R   0.240667 0.566431 0.788668 0.389635
C6    C     C_R   0.356925 0.550838 0.856298 -0.146894
C7    C     C_R   0.399086 0.621236 0.909425 -0.204142
C8    C     C_R   0.319645 0.707199 0.897157 -0.143738
C9    C     C_R   0.216745 0.727115 0.825271 0.033101
C10   C     C_R   0.197146 0.657351 0.765063 -0.055675
C11   C     C_R   0.128685 0.813580 0.813695 -0.159456
C12   C     C_R   0.048449 0.834417 0.736493 0.080131
C13   C     C_R   0.055865 0.768944 0.671539 0.060123
C14   C     C_R   0.131785 0.680345 0.685325 -0.171028
C15   C     C_R   0.968113 0.921475 0.721209 -0.145144
C16   C     C_R   0.897239 0.943505 0.644346 -0.126378
C17   C     C_R   0.906879 0.880205 0.580739 -0.114764
C18   C     C_R   0.985997 0.794114 0.593668 -0.145000
H2    H     H_    0.401484 0.482543 0.871830 0.161476
H3    H     H_    0.481760 0.607626 0.963715 0.151544
H4    H     H_    0.342780 0.757473 0.944188 0.134968
H5    H     H_    0.962007 0.974106 0.767823 0.106480
H6    H     H_    0.836590 0.010484 0.633848 0.113169
H7    H     H_    0.991193 0.747857 0.541818 0.088788
C19   C     C_2   0.986486 0.708062 0.282347 -0.107350
C20   C     C_2   0.151002 0.682277 0.319086 -0.309140
H8    H     H_    0.851309 0.678950 0.303141 0.145926
H9    H     H_    0.287900 0.710548 0.300303 0.126375
C21   C     C_2   0.973119 0.775598 0.214451 -0.131655
C22   C     C_2   0.125743 0.814238 0.176855 -0.307841
H10   H     H_    0.829108 0.793479 0.194680 0.135023
H11   H     H_    0.270840 0.796801 0.194820 0.130509
C23   C     C_2   0.779514 0.205871 0.779025 -0.117120
C24   C     C_2   0.614680 0.179321 0.816457 -0.323448
H12   H     H_    0.915777 0.176690 0.798329 0.147076
H13   H     H_    0.476461 0.206364 0.798026 0.147150
C25   C     C_2   0.790364 0.273094 0.710998 -0.057213
C26   C     C_2   0.637479 0.318026 0.680444 -0.286607
H14   H     H_    0.933127 0.285638 0.685271 0.186781
H15   H     H_    0.493255 0.306543 0.704451 0.164517
C27   C     C_2   0.652002 0.177945 0.244038 -0.081947
C28   C     C_2   0.592729 0.191922 0.167106 0.380157
H16   H     H_    0.715174 0.112758 0.260464 0.055995
C29   C     C_2   0.614029 0.245222 0.310875 -0.210436
C30   C     C_2   0.678016 0.331026 0.309243 0.374454
H17   H     H_    0.544073 0.220612 0.366759 0.069075
O11   O     O_R   0.770210 0.079270 0.910680 -0.539941
O12   O     O_R   0.440150 0.091160 0.082270 -0.536270
O13   O     O_R   0.269970 0.914530 0.082860 -0.544992
C31   C     C_R   0.604570 0.115384 0.107989 0.574077
O14   O     O_R   0.440480 0.090100 0.911240 -0.545541
O15   O     O_R   0.270310 0.913460 0.910610 -0.544543
C32   C     C_R   0.609569 0.111735 0.883117 0.733083
O16   O     O_R   0.769870 0.080340 0.082930 -0.532464
O17   O     O_3   0.603660 0.938980 0.996790 -0.373660
V3    V     V_3+5 0.328750 0.007610 0.996740 1.444718
O18   O     O_R   0.940600 0.902510 0.911180 -0.538716
C33   C     C_R   0.112449 0.880595 0.882886 0.682622
O19   O     O_R   0.940270 0.903570 0.082200 -0.540819
C34   C     C_R   0.109134 0.881789 0.110250 0.740148
V4    V     V_3+5 0.828770 0.986010 0.996670 1.441078
O20   O     O_3   0.103730 0.054750 0.996710 -0.362067
O21   O     O_3   0.472818 0.267265 0.153295 -0.524163
C35   C     C_3   0.482476 0.295768 0.070344 0.175417
H18   H     H_    0.426744 0.243899 0.027857 0.099216
H19   H     H_    0.633222 0.311990 0.051533 0.153821
C36   C     C_3   0.355283 0.380073 0.060908 -0.574624
H20   H     H_    0.399414 0.434818 0.103058 0.241506
H21   H     H_    0.366857 0.404608 0.996731 0.160019
H22   H     H_    0.202584 0.363721 0.074966 0.254944
S1    S     S_3+6 0.095593 0.474717 0.759112 -0.047140
O22   O     O_2   0.178162 0.429760 0.682927 -0.345195
O23   O     O_2   0.086182 0.405284 0.826420 -0.358300
O24   O     O_3   0.870770 0.512958 0.741337 -0.508610
H23   H     H_    0.822438 0.537985 0.794792 0.328904
S2    S     S_3+6 0.839335 0.371662 0.230495 -0.007017
O25   O     O_2   0.939836 0.295388 0.183987 -0.346292
O26   O     O_2   0.727039 0.429038 0.171961 -0.357098
O27   O     O_3   0.008599 0.436838 0.271776 -0.501927
H24   H     H_    0.083413 0.460722 0.224204 0.353901

loop_
_geom_bond_atom_site_label_1
_geom_bond_atom_site_label_2
_ccdc_geom_bond_type
C22   C34   S    
O24   H23   S    
C6    C7    A    
S1    O24   S    
C1    O6    A    
C24   H13   S    
C35   H18   S    
C12   C15   A    
C16   H6    S    
C13   C14   A    
C15   C16   A    
S1    O23   D    
C19   C21   S    
O5    C3    A    
C17   C18   A    
C29   H17   S    
O17   V4    S    
V2    O10   S    
C5    C6    A    
O12   C31   A    
C27   C28   D    
O8    V2    S    
S1    O22   D    
C15   H5    S    
O17   V3    S    
C28   C31   S    
O18   V4    S    
C25   H14   S    
O13   C34   A    
O18   C33   A    
O1    V2    S    
C10   C14   A    
C4    C14   S    
S2    O26   D    
O7    V1    S    
C24   C32   S    
O11   C32   A    
C13   C18   A    
O9    C4    A    
H1    C17   S    
C21   H10   S    
C36   H22   S    
C6    H2    S    
C27   H16   S    
C35   H19   S    
C31   O16   A    
V4    O20   S    
C1    C26   S    
C5    C10   A    
C11   C12   A    
O19   V4    S    
O4    C2    A    
C36   H20   S    
C8    H4    S    
C12   C13   A    
O15   C33   A    
C18   H7    S    
O13   V3    S    
C26   H15   S    
O14   C32   A    
O2    C1    A    
C16   C17   A    
C5    S1    S    
C25   C26   D    
O16   V4    S    
O14   V3    S    
O21   C35   S    
S2    O27   S    
C22   H11   S    
O3    C4    A    
C7    H3    S    
C36   H21   S    
O6    V2    S    
O9    V2    S    
C9    C11   A    
C21   C22   D    
C28   O21   S    
O2    V1    S    
C35   C36   S    
O12   V3    S    
C23   C24   D    
C2    C30   S    
O1    C2    A    
O19   C34   A    
O5    V1    S    
O8    C3    A    
C23   C25   S    
C3    C20   S    
O7    V2    S    
O4    V1    S    
O3    V1    S    
V1    O10   S    
C19   H8    S    
C29   C30   D    
C19   C20   D    
O15   V3    S    
O11   V4    S    
O27   H24   S    
V3    O20   S    
C30   S2    S    
C23   H12   S    
C7    C8    A    
C20   H9    S    
C9    C10   A    
S2    O25   D    
C8    C9    A    
C11   C33   S    
C27   C29   S    
