data_mof_unit_56608.cif
_audit_creation_date              2012-12-10T19:05:16-0500
_audit_creation_method            fapswitch 2.2
_symmetry_space_group_name_H-M    P1
_symmetry_Int_Tables_number       1
_space_group_crystal_system       triclinic
_cell_length_a                    9.530471
_cell_length_b                    10.828982
_cell_length_c                    17.21266
_cell_angle_alpha                 90.037161
_cell_angle_beta                  86.379203
_cell_angle_gamma                 89.835518
_cell_volume                      1772.88380356

loop_
_atom_site_label
_atom_site_type_symbol
_atom_type_description
_atom_site_fract_x
_atom_site_fract_y
_atom_site_fract_z
_atom_type_partial_charge
C1    C     C_R   0.499963 0.737646 0.499059 0.789399
C2    C     C_R   0.380456 0.561372 0.777996 -0.179257
C3    C     C_R   0.398731 0.544504 0.148323 -0.076060
C4    C     C_R   0.397446 0.523266 0.227440 -0.207444
C5    C     C_R   0.651117 0.543751 0.222420 -0.277318
C6    C     C_R   0.654382 0.563996 0.141644 -0.083464
C7    C     C_R   0.525980 0.560972 0.104348 0.158245
C8    C     C_2   0.455613 0.472297 0.982140 0.390883
C9    C     C_2   0.520874 0.562680 0.019147 -0.273949
C10   C     C_R   0.523399 0.521014 0.265128 -0.032242
C11   C     C_R   0.374147 0.936515 0.496768 0.130522
C12   C     C_R   0.482230 0.495152 0.649920 0.839063
C13   C     C_R   0.500431 0.870664 0.492645 -0.085352
C14   C     C_R   0.627505 0.935019 0.479806 -0.209348
C15   C     C_R   0.627585 0.063534 0.480566 -0.244764
C16   C     C_R   0.500657 0.128919 0.493270 -0.078207
C17   C     C_R   0.374148 0.063808 0.497074 0.103699
C18   C     C_3   0.254122 0.069668 0.557300 -0.439595
C19   C     C_3   0.253917 0.929618 0.556558 -0.468050
C20   C     C_R   0.933752 0.459699 0.436241 0.250149
C21   C     C_R   0.918604 0.551945 0.559337 -0.075161
C22   C     C_R   0.067521 0.551997 0.559332 -0.064286
C23   C     C_R   0.500211 0.262245 0.498937 0.855003
C24   C     C_R   0.081284 0.460270 0.436119 0.188903
C25   C     C_3   0.093095 0.335617 0.399591 -0.551190
C26   C     C_3   0.933304 0.333753 0.401146 0.233601
C27   C     C_R   0.517607 0.504163 0.349773 0.803954
C28   C     C_R   0.473412 0.483427 0.734585 -0.097609
C29   C     C_R   0.559350 0.398873 0.773082 -0.027955
C30   C     C_R   0.551590 0.396854 0.854418 -0.180738
C31   C     C_R   0.460351 0.476235 0.896849 0.012648
C32   C     C_R   0.374814 0.558558 0.858889 -0.188407
Cu1   Cu    Cu3+1 0.359330 0.500020 0.500000 0.952940
Cu2   Cu    Cu3+1 0.640670 0.499980 0.500000 0.970711
H1    H     H_    0.727150 0.886666 0.472752 0.164985
H2    H     H_    0.727267 0.110753 0.474704 0.142518
H3    H     H_    0.284649 0.109650 0.613319 0.219117
H4    H     H_    0.157773 0.110105 0.534456 0.187085
H5    H     H_    0.283908 0.887961 0.612215 0.196581
H6    H     H_    0.158332 0.889803 0.532551 0.197858
H7    H     H_    0.857294 0.592341 0.607930 0.152767
H8    H     H_    0.117415 0.592543 0.607904 0.142591
H9    H     H_    0.145196 0.339193 0.339988 0.212268
H10   H     H_    0.296912 0.508653 0.258987 0.161139
H11   H     H_    0.136810 0.265404 0.438308 0.179188
H12   H     H_    0.883224 0.265046 0.442140 0.075698
H13   H     H_    0.747542 0.547911 0.252401 0.190058
H14   H     H_    0.570668 0.637867 0.986142 0.172879
H15   H     H_    0.303824 0.620048 0.891965 0.146306
H16   H     H_    0.299669 0.544470 0.120622 0.166664
H17   H     H_    0.314513 0.626399 0.749156 0.139780
H18   H     H_    0.615590 0.332453 0.885124 0.176957
N1    N     N_R   0.852130 0.499070 0.499500 -0.221242
N2    N     N_R   0.148040 0.499110 0.499500 -0.183377
O1    O     O_R   0.381190 0.680360 0.500000 -0.581508
O2    O     O_R   0.618770 0.680320 0.499990 -0.589528
O3    O     O_R   0.367430 0.500040 0.613600 -0.586304
O4    O     O_R   0.605020 0.500000 0.613590 -0.572181
O5    O     O_R   0.381230 0.319680 0.500010 -0.580083
O6    O     O_R   0.618810 0.319640 0.500000 -0.576474
O7    O     O_R   0.394980 0.500000 0.386410 -0.591552
O8    O     O_R   0.632570 0.499960 0.386400 -0.561232
C33   C     C_2   0.652832 0.307940 0.730967 0.836364
O9    O     O_2   0.765571 0.280235 0.756552 -0.595252
O10   O     O_R   0.610001 0.250013 0.663981 -0.773085
H19   H     H_    0.682076 0.188562 0.641478 0.332558
C34   C     C_2   0.791988 0.587956 0.098168 0.866361
O11   O     O_2   0.799038 0.662724 0.045069 -0.562754
O12   O     O_R   0.915762 0.529027 0.117734 -0.745337
H20   H     H_    0.900337 0.462889 0.158785 0.306899
O13   O     O_3   0.883239 0.337259 0.325611 -0.564369
C35   C     C_3   0.844389 0.217050 0.303781 0.066921
H21   H     H_    0.746785 0.188762 0.337921 0.148666
H22   H     H_    0.929739 0.148873 0.312872 0.142204
C36   C     C_3   0.815121 0.215664 0.217971 -0.778034
H23   H     H_    0.911910 0.240135 0.182051 0.242238
H24   H     H_    0.781202 0.121894 0.201129 0.213840
H25   H     H_    0.730259 0.282496 0.206648 0.255326
O14   O     O_3   0.407374 0.368578 0.023548 -0.571821
C37   C     C_3   0.282751 0.322839 0.993934 0.081897
H26   H     H_    0.307713 0.270724 0.939050 0.161754
H27   H     H_    0.207035 0.398766 0.983154 0.159421
C38   C     C_3   0.211751 0.235596 0.053342 -0.752884
H28   H     H_    0.283087 0.157332 0.064835 0.250847
H29   H     H_    0.113614 0.198694 0.030770 0.210015
H30   H     H_    0.185007 0.285702 0.108684 0.247943

loop_
_geom_bond_atom_site_label_1
_geom_bond_atom_site_label_2
_ccdc_geom_bond_type
C10   C27   S    
Cu1   O1    S    
C33   O10   S    
Cu2   O2    S    
C25   H9    S    
C29   C33   S    
C22   N2    A    
C22   H8    S    
C23   O5    A    
C5    H13   S    
C11   C19   S    
C12   C28   S    
C28   C29   A    
C1    O2    A    
C3    C7    A    
C35   C36   S    
C30   C31   A    
C16   C17   A    
C24   N2    A    
C15   C16   A    
Cu2   O8    S    
C2    C32   A    
C18   C19   S    
C27   O7    A    
C20   C24   A    
C8    C9    D    
C8    O14   S    
C35   H21   S    
C12   O4    A    
Cu1   O5    S    
C13   C14   A    
Cu2   O6    S    
C26   O13   S    
C37   C38   S    
C3    H16   S    
C17   C18   S    
C23   O6    A    
C34   O11   D    
C24   C25   S    
C35   H22   S    
C2    H17   S    
C14   H1    S    
C37   H26   S    
C4    H10   S    
C25   C26   S    
C33   O9    D    
C34   O12   S    
C36   H23   S    
C29   C30   A    
C27   O8    A    
C38   H28   S    
Cu1   Cu2   S    
C36   H24   S    
C19   H5    S    
Cu2   N1    S    
C21   H7    S    
C12   O3    A    
C37   H27   S    
C6    C34   S    
C38   H29   S    
C16   C23   S    
C1    C13   S    
C4    C10   A    
C3    C4    A    
C25   H11   S    
C15   H2    S    
Cu1   N2    S    
C7    C9    S    
C30   H18   S    
C11   C17   A    
Cu1   O3    S    
C8    C31   S    
C18   H3    S    
C31   C32   A    
C20   N1    A    
C6    C7    A    
C1    O1    A    
O13   C35   S    
C21   N1    A    
C11   C13   A    
C5    C6    A    
C20   C26   S    
C18   H4    S    
O12   H20   S    
C36   H25   S    
C32   H15   S    
C19   H6    S    
C26   H12   S    
O14   C37   S    
C5    C10   A    
C38   H30   S    
C9    H14   S    
Cu1   O7    S    
O10   H19   S    
Cu2   O4    S    
C14   C15   A    
C2    C28   A    
C21   C22   A    
