data_mof_unit_45999.cif
_audit_creation_date              2012-12-11T17:25:01-0500
_audit_creation_method            fapswitch 2.2
_symmetry_space_group_name_H-M    P1
_symmetry_Int_Tables_number       1
_space_group_crystal_system       triclinic
_cell_length_a                    6.950462
_cell_length_b                    20.513977
_cell_length_c                    24.521208
_cell_angle_alpha                 90.073065
_cell_angle_beta                  90.662763
_cell_angle_gamma                 89.695822
_cell_volume                      3495.98775331

loop_
_atom_site_label
_atom_site_type_symbol
_atom_type_description
_atom_site_fract_x
_atom_site_fract_y
_atom_site_fract_z
_atom_type_partial_charge
O1    O     O_R   0.507280 0.423750 0.460310 -0.536050
O2    O     O_R   0.171030 0.555650 0.437630 -0.536876
O3    O     O_R   0.004080 0.576250 0.539690 -0.536051
C1    C     C_R   0.339060 0.575692 0.421778 0.724996
O4    O     O_R   0.177330 0.422980 0.453960 -0.538119
O5    O     O_R   0.010420 0.442640 0.556140 -0.534675
C2    C     C_R   0.345757 0.399094 0.443194 0.694158
O6    O     O_R   0.500930 0.557360 0.443860 -0.534870
O7    O     O_3   0.340310 0.506600 0.533500 -0.366222
V1    V     V_3+5 0.064140 0.498780 0.493780 1.425191
O8    O     O_R   0.680890 0.444350 0.562370 -0.537521
C3    C     C_R   0.850593 0.424329 0.578094 0.723723
O9    O     O_R   0.674590 0.577020 0.546040 -0.537483
C4    C     C_R   0.843437 0.600946 0.556694 0.693903
V2    V     V_3+5 0.564550 0.501220 0.506220 1.425066
O10   O     O_3   0.838250 0.493400 0.466500 -0.366703
C5    C     C_R   0.966700 0.838661 0.910694 -0.123651
C6    C     C_R   0.851901 0.661926 0.588486 -0.035599
C7    C     C_R   0.915909 0.722359 0.907874 -0.166622
C8    C     C_R   0.932531 0.779957 0.937400 -0.249715
C9    C     C_R   0.980363 0.839947 0.853270 0.317858
C10   C     C_R   0.936331 0.782616 0.821857 -0.002110
C11   C     C_R   0.918172 0.723061 0.850706 0.094451
C12   C     C_R   0.909884 0.781606 0.763520 0.015638
C13   C     C_R   0.899467 0.720695 0.734915 0.052544
C14   C     C_R   0.897839 0.662793 0.765929 -0.168290
C15   C     C_R   0.901246 0.664302 0.822505 -0.179897
C16   C     C_R   0.878109 0.839240 0.733572 -0.244777
C17   C     C_R   0.856545 0.839043 0.676930 0.246092
C18   C     C_R   0.858195 0.779717 0.648005 0.103715
C19   C     C_R   0.880809 0.719716 0.676513 0.031355
C20   C     C_R   0.830287 0.779416 0.590945 -0.140756
C21   C     C_R   0.826087 0.721240 0.561754 -0.193498
C22   C     C_R   0.880855 0.661021 0.645261 -0.194713
H1    H     H_    0.891002 0.618658 0.844513 0.119839
H2    H     H_    0.903499 0.613829 0.663528 0.091667
H3    H     H_    0.802560 0.722506 0.518004 0.109299
H4    H     H_    0.897082 0.677078 0.929867 0.125521
H5    H     H_    0.923282 0.778539 0.981466 0.127795
H6    H     H_    0.883772 0.615206 0.747826 0.118864
H7    H     H_    0.859750 0.885628 0.753449 0.189243
H8    H     H_    0.808877 0.824271 0.568421 0.157013
H9    H     H_    0.637162 0.229021 0.809640 0.178262
C23   C     C_R   0.739661 0.281644 0.740005 -0.146156
H10   H     H_    0.603722 0.306731 0.733610 0.139807
C24   C     C_R   0.895047 0.293760 0.705505 0.069389
C25   C     C_R   0.069408 0.260475 0.714673 -0.244922
H11   H     H_    0.191290 0.269791 0.688691 0.131001
C26   C     C_R   0.088361 0.214742 0.757350 0.421151
C27   C     C_R   0.932619 0.203595 0.792504 0.020889
C28   C     C_R   0.758735 0.237249 0.783312 -0.213432
C29   C     C_1   0.876480 0.340299 0.660889 -0.032683
C30   C     C_1   0.949360 0.157892 0.837841 0.000987
C31   C     C_1   0.961495 0.120033 0.875862 -0.182561
C32   C     C_1   0.863153 0.378859 0.623377 -0.197125
H12   H     H_    0.699160 0.702311 0.296345 0.112287
C33   C     C_R   0.596855 0.767402 0.233350 -0.156346
H13   H     H_    0.740817 0.780191 0.220894 0.110658
C34   C     C_R   0.436130 0.795031 0.206675 0.136150
C35   C     C_R   0.251230 0.777345 0.223800 -0.155636
H14   H     H_    0.125091 0.797947 0.203839 0.112136
C36   C     C_R   0.227396 0.732861 0.266838 -0.156114
H15   H     H_    0.083433 0.720067 0.279290 0.110771
C37   C     C_R   0.388120 0.705228 0.293510 0.136125
C38   C     C_R   0.573020 0.722918 0.276388 -0.155657
C39   C     C_1   0.459901 0.841019 0.161759 -0.060186
C40   C     C_1   0.364346 0.659211 0.338405 -0.059709
C41   C     C_1   0.348970 0.620993 0.376140 -0.192846
C42   C     C_1   0.475276 0.879198 0.123996 -0.192484
C43   C     C_R   0.474643 0.161593 0.089281 -0.044117
C44   C     C_R   0.350346 0.338471 0.410811 -0.043349
C45   C     C_R   0.546107 0.276530 0.095876 -0.161270
C46   C     C_R   0.534308 0.219557 0.065222 -0.166053
C47   C     C_R   0.427328 0.160879 0.144925 -0.215042
C48   C     C_R   0.441951 0.218297 0.177609 0.086558
C49   C     C_R   0.502132 0.276382 0.151595 0.138974
C50   C     C_R   0.402083 0.220099 0.235026 0.057800
C51   C     C_R   0.423127 0.279944 0.265083 0.057722
C52   C     C_R   0.482723 0.335962 0.236688 -0.186773
C53   C     C_R   0.520783 0.334042 0.181275 -0.200742
C54   C     C_R   0.342602 0.164071 0.263429 -0.186785
C55   C     C_R   0.304616 0.165986 0.318847 -0.201072
C56   C     C_R   0.323177 0.223654 0.348521 0.139666
C57   C     C_R   0.383213 0.281750 0.322497 0.086467
C58   C     C_R   0.279254 0.223503 0.404243 -0.162294
C59   C     C_R   0.290907 0.280489 0.434887 -0.167720
C60   C     C_R   0.397633 0.339185 0.355166 -0.215089
H16   H     H_    0.566841 0.378413 0.161418 0.123673
H17   H     H_    0.439663 0.385516 0.338621 0.094875
H18   H     H_    0.251896 0.279499 0.477536 0.106179
H19   H     H_    0.258678 0.121606 0.338711 0.123623
H20   H     H_    0.592880 0.320819 0.076068 0.114209
H21   H     H_    0.573345 0.220544 0.022576 0.108996
H22   H     H_    0.385065 0.114565 0.161454 0.095124
H23   H     H_    0.502273 0.382541 0.256155 0.123851
H24   H     H_    0.323162 0.117484 0.243967 0.123944
H25   H     H_    0.232620 0.179203 0.424062 0.112693
O11   O     O_R   0.323320 0.942780 0.056240 -0.536536
O12   O     O_R   0.647300 0.077050 0.046060 -0.538394
O13   O     O_R   0.813840 0.057330 0.943840 -0.535239
C61   C     C_R   0.478971 0.100986 0.056875 0.695672
O14   O     O_R   0.653250 0.944380 0.062400 -0.538466
O15   O     O_R   0.819830 0.923720 0.960300 -0.540486
C62   C     C_R   0.485196 0.924429 0.078310 0.720862
O16   O     O_R   0.317330 0.076390 0.039790 -0.536499
O17   O     O_3   0.483830 0.993470 0.966560 -0.367744
V3    V     V_3+5 0.760140 0.001210 0.006210 1.426528
O18   O     O_R   0.149290 0.922840 0.953850 -0.540288
C63   C     C_R   0.980073 0.898932 0.943347 0.760730
O19   O     O_R   0.143340 0.055500 0.937510 -0.535261
C64   C     C_R   0.973659 0.075293 0.921640 0.741391
V4    V     V_3+5 0.259690 0.998600 0.993650 1.428807
O20   O     O_3   0.986130 0.006520 0.033440 -0.370018
O21   O     O_3   0.263656 0.184366 0.766563 -0.556629
C65   C     C_3   0.274752 0.128775 0.732732 0.087572
H26   H     H_    0.248055 0.141292 0.689041 0.110516
H27   H     H_    0.168460 0.091611 0.745728 0.125142
C66   C     C_3   0.475514 0.099231 0.737456 -0.717042
H28   H     H_    0.510734 0.088159 0.780773 0.232175
H29   H     H_    0.482778 0.053477 0.713300 0.171525
H30   H     H_    0.583215 0.133827 0.721410 0.226309
N1    N     N_2   0.828377 0.899453 0.649303 -0.528559
H31   H     H_    0.743920 0.932237 0.670350 0.254738
C67   C     C_3   0.004567 0.928854 0.630724 -0.565600
H32   H     H_    0.097476 0.942325 0.666121 0.193770
H33   H     H_    0.969894 0.973603 0.607079 0.195930
H34   H     H_    0.084216 0.894715 0.603844 0.208390
O22   O     O_3   0.044779 0.896708 0.829481 -0.576038
C68   C     C_3   0.243386 0.889732 0.819154 0.093925
H35   H     H_    0.269120 0.851335 0.787884 0.130811
H36   H     H_    0.325416 0.877261 0.857113 0.130541
C69   C     C_3   0.320194 0.953823 0.797643 -0.713175
H37   H     H_    0.298844 0.993043 0.828300 0.231212
H38   H     H_    0.476286 0.948938 0.789204 0.176989
H39   H     H_    0.243244 0.967229 0.759325 0.210907

loop_
_geom_bond_atom_site_label_1
_geom_bond_atom_site_label_2
_ccdc_geom_bond_type
C13   C19   A    
C18   C20   A    
C4    C6    S    
O2    C1    A    
C7    C8    A    
C57   C60   A    
C46   H21   S    
C1    O6    A    
H9    C28   S    
O22   C68   S    
O21   C65   S    
C43   C61   S    
C25   C26   A    
O17   V4    S    
C50   C51   A    
C14   C15   A    
C36   H15   S    
C67   H33   S    
C16   C17   A    
C34   C39   S    
O5    C3    A    
C18   C19   A    
C45   H20   S    
C33   C34   A    
C39   C42   T    
O17   V3    S    
V2    O10   S    
C24   C29   S    
C16   H7    S    
C5    C8    A    
O18   C63   A    
C35   C36   A    
C47   H22   S    
C66   H28   S    
V3    O20   S    
C36   C37   A    
O19   C64   A    
O8    V2    S    
C25   H11   S    
C69   H37   S    
C65   H27   S    
C43   C47   A    
O1    V2    S    
C11   C15   A    
O7    V1    S    
C29   C32   T    
C45   C49   A    
C68   C69   S    
C26   O21   S    
C34   C35   A    
O9    C4    A    
V4    O20   S    
C23   C24   A    
C54   C55   A    
O19   V4    S    
C61   O16   A    
C27   C30   S    
O11   V4    S    
C47   C48   A    
C40   C41   T    
C37   C40   S    
C49   C53   A    
C12   C13   A    
C59   H18   S    
O4    C2    A    
C8    H5    S    
C51   C52   A    
C15   H1    S    
C13   C14   A    
C58   C59   A    
C21   H3    S    
C55   H19   S    
O18   V4    S    
C35   H14   S    
C66   H30   S    
C7    C11   A    
C48   C49   A    
C52   H23   S    
C17   C18   A    
C7    H4    S    
C44   C59   A    
C48   C50   A    
H12   C38   S    
C56   C57   A    
C50   C54   A    
C65   C66   S    
C17   N1    S    
C43   C46   A    
C27   C28   A    
C19   C22   A    
O14   V3    S    
C9    O22   S    
O14   C62   A    
C6    C22   A    
O3    C4    A    
C67   H34   S    
C44   C60   A    
C23   C28   A    
C56   C58   A    
O16   V4    S    
C55   C56   A    
O6    V2    S    
C60   H17   S    
C10   C12   A    
N1    C67   S    
O2    V1    S    
C23   H10   S    
C1    C41   S    
C68   H35   S    
C42   C62   S    
C54   H24   S    
C24   C25   A    
O13   V3    S    
O12   C61   A    
O1    C2    A    
C12   C16   A    
C33   C38   A    
C45   C46   A    
C5    C63   S    
O5    V1    S    
O8    C3    A    
C30   C31   T    
O12   V3    S    
O15   C63   A    
C20   C21   A    
O9    V2    S    
O7    V2    S    
O4    V1    S    
C53   H16   S    
O3    V1    S    
V1    O10   S    
C37   C38   A    
C2    C44   S    
C14   H6    S    
C33   H13   S    
C69   H39   S    
O11   C62   A    
C31   C64   S    
C22   H2    S    
C6    C21   A    
C66   H29   S    
C3    C32   S    
C58   H25   S    
C52   C53   A    
C51   C57   A    
O13   C64   A    
C69   H38   S    
C26   C27   A    
C20   H8    S    
C10   C11   A    
O15   V3    S    
N1    H31   S    
C9    C10   A    
C65   H26   S    
C67   H32   S    
C68   H36   S    
C5    C9    A    
