data_mof_unit_66908.cif
_audit_creation_date              2013-03-05T15:57:26-0500
_audit_creation_method            fapswitch 2.2
_symmetry_space_group_name_H-M    P1
_symmetry_Int_Tables_number       1
_space_group_crystal_system       triclinic
_cell_length_a                    17.138922
_cell_length_b                    18.641624
_cell_length_c                    8.366655
_cell_angle_alpha                 89.999583
_cell_angle_beta                  101.946701
_cell_angle_gamma                 90.008593
_cell_volume                      2615.22568441

loop_
_atom_site_label
_atom_site_type_symbol
_atom_site_description
_atom_site_fract_x
_atom_site_fract_y
_atom_site_fract_z
_atom_type_partial_charge
P1    P     P_3+3 0.834140 0.419320 0.003900 1.013186
P2    P     P_3+3 0.834140 0.580680 0.503900 1.012651
P3    P     P_3+3 0.334140 0.919320 0.003900 1.013533
P4    P     P_3+3 0.334140 0.080680 0.503900 1.013022
O1    O     O_2   0.841960 0.394640 0.833410 -0.456563
O2    O     O_2   0.841960 0.605360 0.333410 -0.457203
O3    O     O_2   0.341960 0.894640 0.833410 -0.456020
O4    O     O_2   0.341960 0.105360 0.333410 -0.457758
O5    O     O_3   0.907950 0.463080 0.102990 -0.504775
O6    O     O_3   0.907950 0.536920 0.602990 -0.504656
O7    O     O_3   0.407950 0.963080 0.102990 -0.505137
O8    O     O_3   0.407950 0.036920 0.602990 -0.504669
O9    O     O_3   0.972780 0.329600 0.629720 -0.514025
O10   O     O_3   0.972780 0.670400 0.129720 -0.513996
O11   O     O_3   0.472780 0.829600 0.629720 -0.514031
O12   O     O_3   0.472780 0.170400 0.129720 -0.513952
O13   O     O_2   0.835424 0.279956 0.685512 -0.429620
O14   O     O_2   0.835511 0.720158 0.185450 -0.429564
O15   O     O_2   0.335411 0.779993 0.685433 -0.429249
O16   O     O_2   0.335639 0.220273 0.185864 -0.430502
O17   O     O_3   0.751652 0.476462 0.960695 -0.601786
O18   O     O_3   0.751589 0.523587 0.460773 -0.602432
O19   O     O_3   0.251634 0.976455 0.960682 -0.601125
O20   O     O_3   0.251582 0.023591 0.460824 -0.601737
O21   O     O_3   0.936315 0.181943 0.650602 -0.555255
O22   O     O_3   0.936543 0.818145 0.150598 -0.554892
O23   O     O_3   0.436342 0.681948 0.650907 -0.554754
O24   O     O_3   0.436678 0.318142 0.150453 -0.555031
H1    H     H_    0.057548 0.200765 0.690480 0.054733
H2    H     H_    0.057845 0.799706 0.191347 0.054851
H3    H     H_    0.557666 0.700311 0.691494 0.055166
H4    H     H_    0.557968 0.299603 0.191482 0.055101
C1    C     C_3   0.027673 0.092644 0.609311 -0.368582
C2    C     C_3   0.027676 0.907483 0.107750 -0.368665
C3    C     C_3   0.527303 0.592505 0.608382 -0.369006
C4    C     C_3   0.527892 0.407302 0.107230 -0.369553
H5    H     H_    0.585136 0.582342 0.572499 0.093130
H6    H     H_    0.586007 0.417191 0.072281 0.093223
H7    H     H_    0.085637 0.082548 0.573918 0.093266
H8    H     H_    0.085831 0.917460 0.073032 0.093668
H9    H     H_    0.028764 0.071259 0.733678 0.150985
H10   H     H_    0.028288 0.929406 0.231467 0.149058
H11   H     H_    0.528470 0.570788 0.732490 0.150363
H12   H     H_    0.528596 0.429349 0.230867 0.149483
P5    P     P_3+3 0.165830 0.418670 0.685610 1.004947
P6    P     P_3+3 0.165830 0.581330 0.185610 1.005014
P7    P     P_3+3 0.665830 0.918670 0.685610 1.004808
P8    P     P_3+3 0.665830 0.081330 0.185610 1.004790
P9    P     P_3+3 0.097647 0.261193 0.108222 1.097512
P10   P     P_3+3 0.097709 0.738747 0.608254 1.097883
P11   P     P_3+3 0.597628 0.761199 0.108199 1.098478
P12   P     P_3+3 0.597711 0.238744 0.608224 1.097957
O25   O     O_2   0.157990 0.394030 0.856030 -0.421811
O26   O     O_2   0.157990 0.605970 0.356030 -0.422389
O27   O     O_2   0.657990 0.894030 0.856030 -0.422371
O28   O     O_2   0.657990 0.105970 0.356030 -0.422447
O29   O     O_3   0.027110 0.329490 0.059550 -0.449629
O30   O     O_3   0.027110 0.670510 0.559550 -0.450087
O31   O     O_3   0.527110 0.829490 0.059550 -0.449996
O32   O     O_3   0.527110 0.170510 0.559550 -0.450191
O33   O     O_2   0.160057 0.274172 0.001959 -0.420453
O34   O     O_2   0.160245 0.725623 0.502367 -0.420146
O35   O     O_2   0.660090 0.774216 0.002068 -0.420102
O36   O     O_2   0.660214 0.225657 0.502242 -0.420223
O37   O     O_3   0.254529 0.468124 0.724256 -0.691393
O38   O     O_3   0.254520 0.531885 0.224546 -0.691387
O39   O     O_3   0.754530 0.968115 0.724319 -0.691508
O40   O     O_3   0.754522 0.031889 0.224377 -0.691479
O41   O     O_3   0.050812 0.182208 0.028934 -0.565268
O42   O     O_3   0.050993 0.817653 0.528335 -0.566183
O43   O     O_3   0.550737 0.682301 0.028563 -0.564938
O44   O     O_3   0.550975 0.317665 0.528481 -0.565793
C5    C     C_3   0.985739 0.168252 0.102675 0.329714
C6    C     C_3   0.986737 0.832488 0.603684 0.330998
C7    C     C_3   0.486440 0.667662 0.103994 0.331927
C8    C     C_3   0.486606 0.332349 0.603608 0.332419
H13   H     H_    0.931156 0.165353 0.004736 0.092609
H14   H     H_    0.931598 0.834658 0.507252 0.090875
H15   H     H_    0.431304 0.665404 0.007547 0.091138
H16   H     H_    0.431469 0.334167 0.507116 0.089772
H17   H     H_    0.974141 0.209465 0.191469 -0.089757
H18   H     H_    0.975969 0.792179 0.694876 -0.092864
H19   H     H_    0.475686 0.708145 0.194846 -0.093339
H20   H     H_    0.476053 0.292137 0.695184 -0.093623
C9    C     C_3   0.999699 0.096425 0.188699 -0.356212
C10   C     C_3   0.001232 0.905011 0.685928 -0.353757
C11   C     C_3   0.500841 0.595252 0.186887 -0.353970
C12   C     C_3   0.500698 0.405034 0.685229 -0.353917
H21   H     H_    0.450004 0.580887 0.243685 0.056697
H22   H     H_    0.449718 0.419572 0.741390 0.056700
H23   H     H_    0.948563 0.082961 0.245529 0.057794
H24   H     H_    0.950290 0.919721 0.742035 0.056588
H25   H     H_    0.006411 0.054592 0.098577 0.152732
H26   H     H_    0.008176 0.945614 0.593506 0.153411
H27   H     H_    0.507408 0.554363 0.094771 0.153074
H28   H     H_    0.507326 0.445569 0.592433 0.152913
C13   C     C_3   0.253404 0.477254 0.337904 0.645051
C14   C     C_3   0.253836 0.522398 0.838659 0.645199
C15   C     C_3   0.753680 0.977484 0.338400 0.645139
C16   C     C_3   0.753761 0.022453 0.838523 0.645098
H29   H     H_    0.211642 0.487766 0.419716 0.012964
H30   H     H_    0.212059 0.511819 0.920399 0.013529
H31   H     H_    0.711877 0.988013 0.420109 0.013330
H32   H     H_    0.711969 0.011899 0.920244 0.013546
C17   C     C_3   0.336525 0.470731 0.444423 -0.344667
C18   C     C_3   0.337071 0.528243 0.945053 -0.345045
C19   C     C_3   0.836865 0.971442 0.444904 -0.344770
C20   C     C_3   0.836965 0.028401 0.944977 -0.345192
H33   H     H_    0.350485 0.519718 0.520425 0.113161
H34   H     H_    0.350821 0.478900 0.019884 0.114006
H35   H     H_    0.850597 0.020639 0.520254 0.113422
H36   H     H_    0.850719 0.979129 0.020052 0.113697
H37   H     H_    0.338133 0.423684 0.525866 0.079752
H38   H     H_    0.339050 0.574921 0.027636 0.081286
H39   H     H_    0.838758 0.924593 0.526988 0.080851
H40   H     H_    0.838857 0.075152 0.027308 0.081054
H41   H     H_    0.381889 0.464039 0.367944 0.120995
H42   H     H_    0.382370 0.535167 0.868500 0.120375
H43   H     H_    0.882225 0.964709 0.368426 0.120451
H44   H     H_    0.882304 0.035270 0.868493 0.120459
Ba1   Ba    Ba6+2 0.000000 0.447380 0.844850 1.766448
Ba2   Ba    Ba6+2 0.000000 0.552620 0.344850 1.766593
Ba3   Ba    Ba6+2 0.500000 0.947380 0.844850 1.766787
Ba4   Ba    Ba6+2 0.500000 0.052620 0.344850 1.766351
C21   C     C_3   0.776920 0.546673 0.939874 0.436687
C22   C     C_3   0.776717 0.453355 0.439745 0.436243
C23   C     C_3   0.276887 0.046724 0.940396 0.436515
C24   C     C_3   0.276656 0.953363 0.439515 0.436429
H45   H     H_    0.795940 0.550552 0.821703 -0.176318
H46   H     H_    0.795193 0.449399 0.321011 -0.176714
H47   H     H_    0.295653 0.050838 0.821991 -0.176405
H48   H     H_    0.294822 0.949417 0.320439 -0.176415
H49   H     H_    0.825916 0.564283 0.040359 0.023734
H50   H     H_    0.826037 0.435761 0.539608 0.023444
H51   H     H_    0.326058 0.064172 0.040691 0.023226
H52   H     H_    0.326176 0.935746 0.538999 0.022910
C25   C     C_3   0.707665 0.596930 0.940281 0.503093
C26   C     C_3   0.707546 0.403131 0.441517 0.503008
C27   C     C_3   0.207749 0.096994 0.941960 0.503729
C28   C     C_3   0.207538 0.903135 0.441954 0.503061
H53   H     H_    0.662504 0.588667 0.827959 -0.010804
H54   H     H_    0.661964 0.411359 0.329828 -0.010261
H55   H     H_    0.162597 0.089303 0.829403 -0.011562
H56   H     H_    0.161661 0.911439 0.330728 -0.009502
H57   H     H_    0.727695 0.653386 0.944368 -0.038769
H58   H     H_    0.727516 0.346664 0.445365 -0.038400
H59   H     H_    0.227961 0.153415 0.947388 -0.037804
H60   H     H_    0.227472 0.846664 0.445351 -0.038719
O45   O     O_3   0.092100 0.536880 0.086720 -0.460040
O46   O     O_3   0.092100 0.463120 0.586720 -0.460336
O47   O     O_3   0.592100 0.036880 0.086720 -0.460329
O48   O     O_3   0.592100 0.963120 0.586720 -0.460356
P13   P     P_3+3 0.897619 0.734928 0.079862 1.003191
P14   P     P_3+3 0.897503 0.265163 0.579898 1.002777
P15   P     P_3+3 0.397636 0.234938 0.079960 1.002765
P16   P     P_3+3 0.397527 0.765142 0.579942 1.003412
C29   C     C_3   0.009617 0.172232 0.603841 0.359614
C30   C     C_3   0.009891 0.827835 0.103965 0.359076
C31   C     C_3   0.509660 0.672158 0.604274 0.359773
C32   C     C_3   0.510059 0.327678 0.103878 0.359397
H61   H     H_    0.008570 0.191357 0.477501 -0.104699
H62   H     H_    0.009124 0.808224 0.978171 -0.104038
H63   H     H_    0.508877 0.691638 0.478369 -0.104230
H64   H     H_    0.509324 0.307923 0.978211 -0.103629
H65   H     H_    0.479708 0.564584 0.521312 0.100953
H66   H     H_    0.480643 0.435156 0.019198 0.101022
H67   H     H_    0.980319 0.064338 0.522482 0.100775
H68   H     H_    0.980476 0.935403 0.019733 0.101041
H69   H     H_    0.556712 0.596745 0.281409 0.140776
H70   H     H_    0.556469 0.403919 0.780068 0.141893
H71   H     H_    0.055386 0.098404 0.283677 0.139360
H72   H     H_    0.056942 0.903533 0.780900 0.141671
C33   C     C_R   0.131063 0.682223 0.927865 -0.202721
C34   C     C_R   0.131110 0.317771 0.427813 -0.204592
C35   C     C_R   0.631079 0.182208 0.927815 -0.202960
C36   C     C_R   0.631075 0.817756 0.427814 -0.203336
C37   C     C_R   0.862252 0.322396 0.265254 -0.288119
C38   C     C_R   0.862383 0.677717 0.765115 -0.288147
C39   C     C_R   0.362293 0.822369 0.265257 -0.287980
C40   C     C_R   0.362334 0.177682 0.765227 -0.288221
C41   C     C_R   0.790784 0.213349 0.300311 -0.099319
C42   C     C_R   0.790843 0.786695 0.800250 -0.099240
C43   C     C_R   0.290815 0.713325 0.300324 -0.099479
C44   C     C_R   0.290807 0.286669 0.800341 -0.099315
C45   C     C_R   0.847757 0.265409 0.362621 -0.033169
C46   C     C_R   0.847876 0.734687 0.862525 -0.033303
C47   C     C_R   0.347809 0.765371 0.362625 -0.033293
C48   C     C_R   0.347810 0.234643 0.862654 -0.033314
C49   C     C_R   0.815318 0.333500 0.109776 0.039682
C50   C     C_R   0.815378 0.666545 0.609709 0.039823
C51   C     C_R   0.315339 0.833488 0.109792 0.039535
C52   C     C_R   0.315376 0.166539 0.609758 0.040226
C53   C     C_R   0.753358 0.282487 0.047406 -0.059705
C54   C     C_R   0.753393 0.717530 0.547351 -0.059514
C55   C     C_R   0.253371 0.782479 0.047442 -0.059492
C56   C     C_R   0.253417 0.217541 0.547374 -0.059961
C57   C     C_R   0.241656 0.720723 0.143586 -0.056668
C58   C     C_R   0.241677 0.279282 0.643557 -0.057550
C59   C     C_R   0.741640 0.220733 0.143559 -0.056942
C60   C     C_R   0.741675 0.779284 0.643512 -0.056918
C61   C     C_R   0.179824 0.669550 0.081557 0.012821
C62   C     C_R   0.179844 0.330447 0.581529 0.012118
C63   C     C_R   0.679821 0.169549 0.081528 0.012749
C64   C     C_R   0.679829 0.830442 0.581515 0.012620
C65   C     C_R   0.146193 0.739001 0.828625 0.040458
C66   C     C_R   0.146274 0.261029 0.328516 0.039507
C67   C     C_R   0.646215 0.238983 0.828569 0.040588
C68   C     C_R   0.646206 0.760989 0.328539 0.040063
C69   C     C_R   0.204497 0.790008 0.890621 -0.105122
C70   C     C_R   0.204574 0.210026 0.390489 -0.105247
C71   C     C_R   0.704499 0.290007 0.890564 -0.105108
C72   C     C_R   0.704509 0.709984 0.390510 -0.105116
H73   H     H_    0.284119 0.668779 0.378576 0.138841
H74   H     H_    0.284097 0.331209 0.878586 0.139746
H75   H     H_    0.784098 0.168798 0.378557 0.138908
H76   H     H_    0.784123 0.831226 0.878517 0.138986
H77   H     H_    0.712583 0.334075 0.812587 0.160503
H78   H     H_    0.712580 0.665912 0.312504 0.159812
H79   H     H_    0.212598 0.834067 0.812659 0.161062
H80   H     H_    0.212652 0.165963 0.312469 0.159984
H81   H     H_    0.084930 0.643842 0.878922 0.066674
H82   H     H_    0.084923 0.356102 0.378953 0.067443
H83   H     H_    0.584946 0.143826 0.878877 0.066822
H84   H     H_    0.584921 0.856112 0.378912 0.066907
H85   H     H_    0.907486 0.361352 0.315849 0.053739
H86   H     H_    0.907652 0.638798 0.815670 0.053800
H87   H     H_    0.407516 0.861334 0.315856 0.053558
H88   H     H_    0.407596 0.138757 0.815789 0.053895
F1    F     F_    0.674475 0.582747 0.074072 -0.707459
F2    F     F_    0.674990 0.417423 0.576099 -0.707843
F3    F     F_    0.174449 0.082233 0.075357 -0.706836
F4    F     F_    0.175418 0.917348 0.577162 -0.707960
N1    N     N_R   0.229489 0.411700 0.248547 0.007475
O49   O     O_R   0.157818 0.408993 0.161386 -0.365309
O50   O     O_R   0.280841 0.362323 0.231224 -0.392374
N2    N     N_R   0.230263 0.588295 0.750444 0.007862
O51   O     O_R   0.158907 0.591249 0.661886 -0.365463
O52   O     O_R   0.281417 0.638545 0.737827 -0.393406
N3    N     N_R   0.730033 0.911698 0.249775 0.007723
O53   O     O_R   0.658576 0.908791 0.161686 -0.365529
O54   O     O_R   0.781286 0.861816 0.235468 -0.393094
N4    N     N_R   0.730156 0.088291 0.750099 0.007774
O55   O     O_R   0.658755 0.091215 0.661751 -0.365468
O56   O     O_R   0.781339 0.138418 0.736838 -0.393622

loop_
_geom_bond_atom_site_label_1
_geom_bond_atom_site_label_2
_geom_bond_distance
_ccdc_geom_bond_type
C43   H73   1.078183 S    
C15   H31   1.105439 S    
C12   H28   1.105968 S    
P1    O17   1.747263 S    
O10   Ba2   2.816145 S    
O16   P15   1.542260 D    
P12   O36   1.544884 D    
P12   C67   1.858839 S    
C20   H44   1.111539 S    
P3    O19   1.747426 S    
N3    O53   1.293184 A    
C34   H82   1.081908 S    
C35   C67   1.402152 A    
O44   C8    1.405093 S    
O6    Ba1   2.837061 S    
C33   H81   1.081926 S    
C28   H60   1.105362 S    
C9    H23   1.108879 S    
C37   C45   1.391975 A    
Ba3   Ba4   4.620491 S    
P2    O2    1.530837 D    
N2    O51   1.293277 A    
P8    C63   1.899112 S    
C27   H59   1.105282 S    
C43   C57   1.411095 A    
O11   Ba3   2.816056 S    
C18   H38   1.107261 S    
C10   H72   1.108935 S    
C38   H86   1.082380 S    
C32   H64   1.111644 S    
O38   C13   1.394467 S    
C25   H57   1.105297 S    
C3    H5    1.109839 S    
C23   H47   1.105726 S    
C23   H51   1.107838 S    
O37   C14   1.394521 S    
C55   C69   1.409929 A    
P3    O3    1.530855 D    
P15   C48   1.841751 S    
C24   H52   1.108410 S    
P4    O20   1.747283 S    
C54   C72   1.410133 A    
O18   C22   1.400743 S    
C39   C47   1.392069 A    
P13   C46   1.841620 S    
C22   H46   1.105804 S    
O23   C31   1.402724 S    
C11   H69   1.108889 S    
O1    Ba1   2.864322 S    
C34   C62   1.400976 A    
P9    O29   1.744978 S    
Ba1   O46   2.941629 S    
P4    Ba4   3.419311 S    
C33   C61   1.401029 A    
P5    O46   1.592309 S    
C42   C46   1.398692 A    
C5    H17   1.114842 S    
O32   Ba4   2.815418 S    
P4    C52   1.888834 S    
C25   H53   1.097628 S    
C40   C48   1.392134 A    
C7    C11   1.514328 S    
P7    O48   1.592309 S    
P5    O37   1.749725 S    
C9    H25   1.107186 S    
P6    C61   1.899028 S    
C54   C60   1.442182 A    
P1    O5    1.587003 S    
O7    Ba4   2.836801 S    
P3    Ba3   3.419177 S    
P5    C62   1.899341 S    
C53   C71   1.409949 A    
C11   H27   1.106161 S    
P2    O18   1.747249 S    
O24   P15   1.742906 S    
N4    O56   1.301933 A    
O41   C5    1.406041 S    
C14   C18   1.521049 S    
P4    O8    1.587192 S    
C10   H26   1.105925 S    
N1    O49   1.293189 A    
C8    C12   1.514007 S    
O28   Ba4   2.867792 S    
C49   C53   1.440346 A    
P4    O4    1.530837 D    
C15   N3    1.446874 S    
C28   H56   1.097868 S    
Ba4   O48   2.837022 S    
C16   C20   1.520939 S    
P5    O25   1.530151 D    
C36   C64   1.401045 A    
C2    H10   1.110884 S    
P9    O41   1.741144 S    
C18   H42   1.111525 S    
C42   H76   1.078168 S    
O15   P16   1.542115 D    
C17   H41   1.111531 S    
C1    H67   1.104823 S    
P11   O43   1.740986 S    
C6    H18   1.113130 S    
C2    H68   1.105043 S    
O13   P14   1.542134 D    
C24   H48   1.106040 S    
P7    O39   1.749663 S    
C1    C29   1.514383 S    
N4    O55   1.293226 A    
C50   C54   1.440469 A    
C51   C55   1.440354 A    
P2    Ba2   3.419311 S    
O31   Ba3   2.815506 S    
C71   H77   1.075669 S    
P14   C45   1.841181 S    
O27   Ba3   2.868074 S    
C8    H20   1.113103 S    
O30   Ba2   2.815418 S    
C37   C49   1.396034 A    
P10   O30   1.744601 S    
Ba2   O45   2.941680 S    
P2    C50   1.888715 S    
C26   F2    1.382154 S    
P11   O35   1.544946 D    
C1    H9    1.110825 S    
C56   C58   1.442172 A    
C26   H54   1.097661 S    
C70   H80   1.075833 S    
C41   C45   1.398595 A    
P11   C68   1.859108 S    
O4    Ba4   2.864600 S    
H1    C29   1.111998 S    
C12   H70   1.108926 S    
P5    Ba1   3.421611 S    
C53   C59   1.442077 A    
C67   C71   1.398870 A    
O29   Ba1   2.815506 S    
C56   C70   1.410099 A    
C40   H88   1.082379 S    
C39   H87   1.082387 S    
C6    C10   1.513976 S    
C20   H36   1.110195 S    
C69   H79   1.075538 S    
O42   C6    1.405074 S    
P12   O44   1.740784 S    
C38   C46   1.392079 A    
C14   H30   1.105414 S    
C60   C64   1.440392 A    
O9    Ba1   2.816056 S    
C66   C70   1.398936 A    
C13   H29   1.105498 S    
C44   H74   1.078146 S    
C52   C56   1.440447 A    
C65   C69   1.398880 A    
C68   C72   1.398986 A    
C13   N1    1.446822 S    
P6    O26   1.530170 D    
O12   P15   1.748684 S    
C4    H66   1.105011 S    
O5    Ba2   2.836801 S    
Ba1   Ba2   4.620491 S    
C42   C60   1.411158 A    
C27   H55   1.097508 S    
N3    O54   1.301696 A    
C36   C68   1.402235 A    
C1    H7    1.109912 S    
P8    O40   1.749748 S    
C57   C61   1.440278 A    
N1    O50   1.302273 A    
C19   H39   1.107345 S    
O11   P16   1.748691 S    
O14   P13   1.542249 D    
O39   C16   1.394445 S    
C58   C62   1.440398 A    
C2    C30   1.514714 S    
C25   F1    1.382046 S    
Ba4   O47   2.941680 S    
C12   H22   1.108018 S    
C28   F4    1.382325 S    
C4    C32   1.514507 S    
C44   C58   1.411161 A    
C11   H21   1.108159 S    
O24   C32   1.402863 S    
C40   C52   1.396206 A    
P10   O34   1.544886 D    
P1    O1    1.530855 D    
C4    H12   1.110829 S    
P11   O31   1.744663 S    
O2    Ba2   2.864600 S    
O17   C21   1.400726 S    
P2    O6    1.587192 S    
C29   H61   1.112175 S    
C3    H11   1.110816 S    
P7    O27   1.530151 D    
C18   H34   1.110217 S    
P16   C47   1.841359 S    
C17   H37   1.107469 S    
O23   P16   1.742718 S    
H2    C30   1.111895 S    
C17   H33   1.110174 S    
Ba3   O48   2.941629 S    
C22   C26   1.513007 S    
C5    H13   1.110013 S    
C36   H84   1.081919 S    
O21   P14   1.742572 S    
C19   H35   1.110155 S    
C13   C17   1.520837 S    
Ba1   O45   2.836761 S    
Ba3   O47   2.836761 S    
P6    Ba2   3.421475 S    
C8    H16   1.109093 S    
O3    Ba3   2.864322 S    
C59   C63   1.440276 A    
P8    Ba4   3.421475 S    
C33   C65   1.402134 A    
C41   H75   1.078173 S    
O21   C29   1.402755 S    
P6    O38   1.749769 S    
P7    Ba3   3.421611 S    
P8    O28   1.530170 D    
C15   C19   1.520998 S    
O19   C23   1.400817 S    
C21   H49   1.107874 S    
C19   H43   1.111547 S    
C21   C25   1.512807 S    
C20   H40   1.107168 S    
C16   H32   1.105427 S    
C4    H6    1.109989 S    
O12   Ba4   2.816145 S    
O40   C15   1.394484 S    
C35   C63   1.400994 A    
C5    C9    1.515555 S    
O10   P13   1.748835 S    
O25   Ba1   2.868074 S    
O43   C7    1.405328 S    
P9    O33   1.544907 D    
C7    H19   1.113261 S    
O8    Ba3   2.837061 S    
C72   H78   1.075871 S    
C26   H58   1.105352 S    
C38   C50   1.396165 A    
C34   C66   1.402176 A    
C3    H65   1.104941 S    
N2    O52   1.302040 A    
P7    C64   1.899431 S    
O22   C30   1.402905 S    
C31   H63   1.111678 S    
P10   O42   1.740844 S    
P3    C51   1.888638 S    
P1    Ba1   3.419177 S    
O9    P14   1.748735 S    
Ba2   O46   2.837022 S    
C3    C31   1.514350 S    
P3    O7    1.587003 S    
C30   H62   1.111659 S    
C10   H24   1.107971 S    
C37   H85   1.082386 S    
C9    H71   1.108937 S    
P10   C65   1.858952 S    
C44   C48   1.398682 A    
O26   Ba2   2.867792 S    
P6    O45   1.592118 S    
C39   C51   1.396112 A    
P9    C66   1.858965 S    
C22   H50   1.108104 S    
P12   O32   1.744557 S    
C21   H45   1.105646 S    
C6    H14   1.109066 S    
P8    O47   1.592118 S    
O20   C24   1.400806 S    
C35   H83   1.081922 S    
C2    H8    1.110043 S    
O22   P13   1.743008 S    
C27   F3    1.382303 S    
H4    C32   1.111893 S    
C7    H15   1.109142 S    
C23   C27   1.513020 S    
H3    C31   1.111842 S    
C43   C47   1.398615 A    
C16   N4    1.446908 S    
P1    C49   1.888469 S    
C24   C28   1.513293 S    
C55   C57   1.442045 A    
C14   N2    1.446959 S    
C41   C59   1.411063 A    
