data_mof_unit_47324.cif
_audit_creation_date              2012-12-10T17:28:35-0500
_audit_creation_method            fapswitch 2.2
_symmetry_space_group_name_H-M    P1
_symmetry_Int_Tables_number       1
_space_group_crystal_system       triclinic
_cell_length_a                    10.64379
_cell_length_b                    12.006855
_cell_length_c                    12.842668
_cell_angle_alpha                 93.51916
_cell_angle_beta                  90.22426
_cell_angle_gamma                 86.672374
_cell_volume                      1635.41591416

loop_
_atom_site_label
_atom_site_type_symbol
_atom_type_description
_atom_site_fract_x
_atom_site_fract_y
_atom_site_fract_z
_atom_type_partial_charge
C1    C     C_R   0.499079 0.522219 0.700387 0.844912
C2    C     C_R   0.500921 0.477781 0.299613 0.844914
C3    C     C_R   0.503632 0.464083 0.188235 -0.061137
C4    C     C_R   0.496367 0.535916 0.811765 -0.061137
C5    C     C_R   0.426485 0.638759 0.969324 -0.217345
C6    C     C_R   0.573513 0.361240 0.030675 -0.217350
C7    C     C_R   0.439700 0.632625 0.861951 -0.206276
C8    C     C_R   0.560299 0.367375 0.138049 -0.206281
C9    C     C_R   0.543642 0.446967 0.867905 -0.279737
C10   C     C_R   0.456357 0.553033 0.132095 -0.279731
C11   C     C_R   0.529798 0.451772 0.974497 0.175338
C12   C     C_R   0.470200 0.548228 0.025503 0.175336
C13   C     C_R   0.381574 0.954094 0.403386 -0.366770
C14   C     C_R   0.618425 0.045906 0.596614 -0.366770
C15   C     C_R   0.392984 0.838001 0.412492 0.769963
C16   C     C_R   0.607016 0.161999 0.587507 0.769962
C17   C     C_R   0.551363 0.858624 0.541554 -0.130497
C18   C     C_R   0.448637 0.141376 0.458446 -0.130497
C19   C     C_R   0.543068 0.975899 0.535054 0.006446
C20   C     C_R   0.456932 0.024101 0.464946 0.006445
C21   C     C_R   0.739074 0.500535 0.499979 0.866285
C22   C     C_R   0.260926 0.499465 0.500021 0.866287
C23   C     C_R   0.867835 0.512201 0.308035 -0.142657
C24   C     C_R   0.132166 0.487781 0.691966 -0.142656
C25   C     C_R   0.932508 0.516526 0.214344 -0.137964
C26   C     C_R   0.067494 0.483439 0.785658 -0.137956
C27   C     C_R   0.063161 0.515308 0.214286 -0.132478
C28   C     C_R   0.936841 0.484661 0.785715 -0.132464
C29   C     C_R   0.129215 0.509555 0.307897 -0.100431
C30   C     C_R   0.870786 0.490430 0.692103 -0.100426
C31   C     C_R   0.064850 0.505228 0.403983 0.070670
C32   C     C_R   0.935151 0.494767 0.596017 0.070660
C33   C     C_R   0.933595 0.506725 0.404068 0.065017
C34   C     C_R   0.066405 0.493270 0.595932 0.065009
C35   C     C_R   0.128653 0.498484 0.499907 -0.176826
C36   C     C_R   0.871347 0.501516 0.500093 -0.176825
H1    H     H_    0.886431 0.481443 0.858442 0.137924
H2    H     H_    0.113571 0.518510 0.141561 0.137928
H3    H     H_    0.314399 0.988772 0.348785 0.173301
H4    H     H_    0.685601 0.011228 0.651215 0.173301
H5    H     H_    0.766333 0.512948 0.304278 0.129888
H6    H     H_    0.233668 0.487029 0.695724 0.129893
H7    H     H_    0.881054 0.520617 0.141652 0.141589
H8    H     H_    0.118949 0.479330 0.858351 0.141583
H9    H     H_    0.230720 0.508115 0.304030 0.134889
H10   H     H_    0.769281 0.491870 0.695971 0.134895
H11   H     H_    0.410762 0.627016 0.171563 0.199680
H12   H     H_    0.589237 0.372984 0.828437 0.199678
H13   H     H_    0.597478 0.298554 0.181879 0.167628
H14   H     H_    0.402521 0.701445 0.818121 0.167627
H15   H     H_    0.381110 0.713079 0.008113 0.153985
H16   H     H_    0.618888 0.286921 0.991887 0.153985
H17   H     H_    0.382989 0.179860 0.404900 0.158383
H18   H     H_    0.617011 0.820140 0.595100 0.158383
N1    N     N_R   0.523130 0.207800 0.519340 -0.150281
N2    N     N_R   0.476870 0.792200 0.480660 -0.150281
O1    O     O_R   0.506170 0.421700 0.658830 -0.582660
O2    O     O_R   0.493830 0.578300 0.341170 -0.582658
O3    O     O_R   0.491330 0.609310 0.646410 -0.635545
O4    O     O_R   0.508670 0.390690 0.353590 -0.635547
O5    O     O_R   0.690650 0.406190 0.506220 -0.566598
O6    O     O_R   0.309350 0.593810 0.493780 -0.566596
O7    O     O_R   0.675800 0.593810 0.493800 -0.627761
O8    O     O_R   0.324200 0.406190 0.506200 -0.627763
Zn1   Zn    Zn3+2 0.509910 0.374730 0.508290 0.990461
Zn2   Zn    Zn3+2 0.490090 0.625270 0.491710 0.990464
F1    F     F_    0.680461 0.228982 0.647094 -0.671404
F2    F     F_    0.319539 0.771018 0.352906 -0.671402

loop_
_geom_bond_atom_site_label_1
_geom_bond_atom_site_label_2
_ccdc_geom_bond_type
C18   C20   A    
C11   C12   A    
C31   C33   A    
C32   C34   A    
C14   C16   A    
C1    O1    A    
C22   O6    A    
C24   H6    S    
C21   O5    A    
C19   C20   A    
C23   H5    S    
C13   C15   A    
C1    C4    S    
O8    Zn1   S    
C25   H7    S    
C1    O3    A    
C2    C3    S    
O7    Zn2   S    
C26   H8    S    
C29   C31   A    
C16   F1    S    
C15   N2    A    
C30   C32   A    
C22   C35   S    
C9    C11   A    
C17   N2    A    
O2    Zn2   S    
N2    Zn2   S    
C10   C12   A    
C28   H1    S    
C5    C12   A    
C4    C7    A    
C18   N1    A    
C15   F2    S    
C32   C36   A    
C28   C30   A    
N1    Zn1   S    
C13   C20   A    
C24   C26   A    
O4    Zn1   S    
C3    C8    A    
C31   C35   A    
C23   C25   A    
O3    Zn2   S    
C2    O2    A    
C2    O4    A    
C16   N1    A    
C13   H3    S    
O6    Zn2   S    
C27   H2    S    
C22   O8    A    
O5    Zn1   S    
C6    C11   A    
C33   C36   A    
C27   C29   A    
C9    H12   S    
C5    C7    A    
C34   C35   A    
C29   H9    S    
C10   H11   S    
C3    C10   A    
C17   H18   S    
C14   C19   A    
C17   C19   A    
C14   H4    S    
C6    C8    A    
C8    H13   S    
C21   O7    A    
C18   H17   S    
C6    H16   S    
C4    C9    A    
C26   C28   A    
C21   C36   S    
C30   H10   S    
C5    H15   S    
C7    H14   S    
O1    Zn1   S    
C23   C33   A    
C25   C27   A    
C24   C34   A    
