data_mof_unit_26671.cif
_audit_creation_date              2012-10-26T20:13:50-0400
_audit_creation_method            fapswitch 2.2
_symmetry_space_group_name_H-M    P1
_symmetry_Int_Tables_number       1
_space_group_crystal_system       triclinic
_cell_length_a                    8.730236
_cell_length_b                    10.85915
_cell_length_c                    9.550486
_cell_angle_alpha                 90.085768
_cell_angle_beta                  97.467897
_cell_angle_gamma                 90.559751
_cell_volume                      897.687968944

loop_
_atom_site_label
_atom_site_type_symbol
_atom_type_description
_atom_site_fract_x
_atom_site_fract_y
_atom_site_fract_z
_atom_type_partial_charge
C1    C     C_R   0.498277 0.262743 0.499563 0.553781
C2    C     C_R   0.583261 0.586519 0.935955 0.194339
C3    C     C_3   0.753894 0.604975 0.949912 -0.271283
C4    C     C_R   0.204197 0.498872 0.464340 0.546480
C5    C     C_3   0.753642 0.605180 0.108204 -0.283261
C6    C     C_R   0.498737 0.737293 0.499885 0.551215
C7    C     C_R   0.796073 0.500224 0.536048 0.551103
C8    C     C_2   0.039034 0.495196 0.445387 -0.155048
C9    C     C_2   0.961819 0.502052 0.556528 -0.160689
C10   C     C_R   0.476109 0.062526 0.617144 -0.020366
C11   C     C_R   0.494654 0.130147 0.497352 0.004314
C12   C     C_R   0.510728 0.935286 0.372950 -0.170694
C13   C     C_R   0.510396 0.064370 0.372533 -0.166724
C14   C     C_3   0.307354 0.868622 0.800940 -0.197592
C15   C     C_3   0.279500 0.879207 0.956007 -0.299177
C16   C     C_3   0.124151 0.821937 0.978414 -0.456118
C17   C     C_R   0.495293 0.869927 0.498175 -0.002317
C18   C     C_R   0.476426 0.938207 0.617869 0.042072
C19   C     C_3   0.459661 0.931651 0.772222 0.115307
C20   C     C_3   0.458010 0.074394 0.769681 -0.240534
C21   C     C_R   0.582883 0.586864 0.083419 0.155737
C22   C     C_R   0.407165 0.421899 0.063256 -0.018629
C23   C     C_R   0.407005 0.422008 0.914386 -0.026057
Cu1   Cu    Cu3+1 0.499990 0.499980 0.640670 0.933744
Cu2   Cu    Cu3+1 0.500010 0.500020 0.359330 0.929297
H1    H     H_    0.981129 0.485366 0.339004 0.113040
H2    H     H_    0.345323 0.115775 0.784766 0.109000
H3    H     H_    0.560465 0.119080 0.831368 0.129940
H4    H     H_    0.334417 0.356889 0.110304 0.112835
H5    H     H_    0.028269 0.870528 0.913909 0.142123
H6    H     H_    0.120331 0.722882 0.948637 0.153864
H7    H     H_    0.107726 0.829670 0.091452 0.149631
H8    H     H_    0.371727 0.830283 0.024815 0.172174
H9    H     H_    0.281373 0.977598 0.988441 0.150804
H10   H     H_    0.208680 0.910326 0.732277 0.117708
H11   H     H_    0.310465 0.769533 0.772676 0.184823
H12   H     H_    0.333992 0.357205 0.849788 0.110379
H13   H     H_    0.697236 0.915270 0.818913 0.218830
H14   H     H_    0.601976 0.912778 0.959825 0.210014
H15   H     H_    0.815231 0.524496 0.912579 0.144586
H16   H     H_    0.787988 0.695008 0.908072 0.147178
H17   H     H_    0.812798 0.523670 0.157765 0.145152
H18   H     H_    0.787688 0.695318 0.158840 0.123851
H19   H     H_    0.020575 0.510004 0.663828 0.118264
H20   H     H_    0.524283 0.111908 0.275280 0.130748
H21   H     H_    0.525000 0.887443 0.275957 0.128543
N1    N     N_R   0.500980 0.500930 0.148050 -0.233522
N2    N     N_R   0.500990 0.500890 0.852140 -0.237280
N3    N     N_3   0.597451 0.881064 0.855951 -0.623531
O1    O     O_R   0.500000 0.319640 0.618810 -0.504349
O2    O     O_R   0.500020 0.319680 0.381230 -0.512557
O3    O     O_R   0.274830 0.499980 0.591380 -0.510709
O4    O     O_R   0.274850 0.500020 0.353800 -0.502439
O5    O     O_R   0.499980 0.680320 0.618770 -0.486121
O6    O     O_R   0.500000 0.680360 0.381190 -0.507479
O7    O     O_R   0.725150 0.499980 0.646200 -0.504304
O8    O     O_R   0.725170 0.500020 0.408620 -0.500098

loop_
_geom_bond_atom_site_label_1
_geom_bond_atom_site_label_2
_ccdc_geom_bond_type
C12   C17   A    
Cu1   O3    S    
C5    H17   S    
Cu2   O2    S    
C20   H2    S    
C4    O4    A    
Cu1   O7    S    
C8    H1    S    
C1    O1    A    
C19   N3    S    
C15   H9    S    
C19   C20   S    
C1    O2    A    
C17   C18   A    
C6    O6    A    
C4    C8    S    
C2    C21   A    
C2    C3    S    
C5    H18   S    
H13   N3    S    
C23   H12   S    
C12   C13   A    
C16   H6    S    
C13   H20   S    
C11   C13   A    
Cu1   O1    S    
C22   H4    S    
Cu2   O8    S    
C7    O7    A    
C10   C18   A    
H14   N3    S    
C4    O3    A    
C3    H15   S    
C22   N1    A    
C15   H8    S    
C14   H11   S    
C16   H7    S    
C10   C11   A    
C16   H5    S    
C15   C16   S    
Cu1   N2    S    
C3    C5    S    
C5    C21   S    
Cu1   Cu2   S    
C12   H21   S    
C18   C19   S    
C14   H10   S    
C7    C9    S    
C6    C17   S    
Cu2   N1    S    
C14   C15   S    
C3    H16   S    
C9    H19   S    
C23   N2    A    
C20   H3    S    
C2    N2    A    
C22   C23   A    
Cu1   O5    S    
C14   C19   S    
C7    O8    A    
C6    O5    A    
Cu2   O4    S    
Cu2   O6    S    
C10   C20   S    
C8    C9    D    
C21   N1    A    
C1    C11   S    
