data_mof_unit_37258.cif
_audit_creation_date              2012-10-26T20:52:02-0400
_audit_creation_method            fapswitch 2.2
_symmetry_space_group_name_H-M    P1
_symmetry_Int_Tables_number       1
_space_group_crystal_system       triclinic
_cell_length_a                    8.776506
_cell_length_b                    15.998922
_cell_length_c                    14.774322
_cell_angle_alpha                 90.091781
_cell_angle_beta                  98.080777
_cell_angle_gamma                 89.647639
_cell_volume                      2053.89334179

loop_
_atom_site_label
_atom_site_type_symbol
_atom_type_description
_atom_site_fract_x
_atom_site_fract_y
_atom_site_fract_z
_atom_type_partial_charge
C1    C     C_R   0.498972 0.340981 0.499847 0.534160
C2    C     C_R   0.796528 0.500509 0.523074 0.582022
C3    C     C_2   0.038654 0.499387 0.463707 0.326384
C4    C     C_2   0.961250 0.502634 0.536013 0.309954
C5    C     C_R   0.442155 0.957720 0.572427 -0.049827
C6    C     C_R   0.551311 0.042831 0.426761 -0.049085
C7    C     C_R   0.496776 0.912819 0.500999 -0.030788
C8    C     C_R   0.498464 0.087575 0.498741 -0.032545
C9    C     C_R   0.550160 0.955198 0.428737 0.356805
C10   C     C_R   0.444330 0.045337 0.570634 0.355440
C11   C     C_1   0.496808 0.823097 0.499833 0.011273
C12   C     C_R   0.499359 0.659095 0.499976 0.535191
C13   C     C_1   0.496619 0.177205 0.499332 0.011949
C14   C     C_1   0.497127 0.252119 0.499619 0.003223
C15   C     C_1   0.497853 0.748102 0.499743 0.000935
C16   C     C_R   0.609863 0.548448 0.961202 -0.030880
C17   C     C_R   0.406597 0.443323 0.040381 -0.030717
C18   C     C_R   0.381001 0.914779 0.648729 0.073301
C19   C     C_R   0.232258 0.933722 0.668204 -0.035602
C20   C     C_R   0.175383 0.894721 0.741082 -0.117021
C21   C     C_R   0.265916 0.836180 0.794640 -0.108737
C22   C     C_R   0.412868 0.816277 0.775119 -0.104225
C23   C     C_R   0.506343 0.497076 0.903442 -0.038875
C24   C     C_R   0.471261 0.855910 0.703220 -0.087272
C25   C     C_R   0.605775 0.086632 0.348812 0.074996
C26   C     C_R   0.534291 0.072202 0.258962 -0.050214
C27   C     C_R   0.581915 0.115634 0.185872 -0.123123
C28   C     C_R   0.700729 0.173845 0.201885 -0.116069
C29   C     C_R   0.772987 0.188236 0.290946 -0.108642
C30   C     C_R   0.726831 0.144364 0.364062 -0.086380
C31   C     C_R   0.725206 0.597390 0.118693 0.033693
C32   C     C_R   0.678917 0.664486 0.170135 -0.088204
C33   C     C_R   0.787988 0.708787 0.229406 -0.087642
C34   C     C_R   0.505700 0.496916 0.097727 -0.039584
C35   C     C_R   0.943631 0.686507 0.237561 -0.072200
C36   C     C_R   0.990505 0.620020 0.186297 -0.053373
C37   C     C_R   0.881718 0.575591 0.127071 -0.053250
C38   C     C_R   0.309363 0.383475 0.885200 0.024682
C39   C     C_R   0.180270 0.412152 0.826245 -0.069104
C40   C     C_R   0.086136 0.355512 0.772559 -0.081698
C41   C     C_R   0.121155 0.270130 0.776840 -0.091929
C42   C     C_R   0.249910 0.241203 0.835162 -0.080975
C43   C     C_R   0.343705 0.297604 0.889402 -0.082292
C44   C     C_R   0.716176 0.604355 0.919908 0.029461
C45   C     C_R   0.407637 0.443148 0.943840 -0.028445
C46   C     C_R   0.707285 0.691369 0.931189 -0.094353
C47   C     C_R   0.800250 0.744352 0.887741 -0.122995
C48   C     C_R   0.902229 0.710925 0.832566 -0.108461
C49   C     C_R   0.914581 0.624447 0.822650 -0.096584
C50   C     C_R   0.822978 0.571141 0.866699 -0.092858
C51   C     C_R   0.302284 0.386274 0.081585 0.032008
C52   C     C_R   0.141939 0.393599 0.058597 -0.084450
C53   C     C_R   0.044371 0.338792 0.096161 -0.097020
C54   C     C_R   0.106278 0.276493 0.156922 -0.090372
C55   C     C_R   0.265559 0.269166 0.180662 -0.097966
C56   C     C_R   0.609781 0.547989 0.057953 -0.028551
C57   C     C_R   0.363445 0.323588 0.142925 -0.086038
C58   C     C_1   0.502345 0.498851 0.802695 0.148213
C59   C     C_1   0.502279 0.498662 0.197746 0.149097
C60   C     C_R   0.203449 0.500261 0.476878 0.586290
Cu1   Cu    Cu3+1 0.500040 0.500000 0.589220 1.040700
Cu2   Cu    Cu3+1 0.499960 0.500000 0.410780 1.043633
F1    F     F_    0.966335 0.494126 0.375975 -0.645189
F2    F     F_    0.033673 0.509184 0.623527 -0.685654
F3    F     F_    0.395573 0.089850 0.639805 -0.642155
F4    F     F_    0.602966 0.910919 0.360739 -0.647611
H1    H     H_    0.160358 0.978584 0.626900 0.141836
H2    H     H_    0.784589 0.155872 0.432623 0.109654
H3    H     H_    0.558608 0.682122 0.164499 0.111236
H4    H     H_    0.751801 0.760239 0.269189 0.169568
H5    H     H_    0.027857 0.720690 0.283652 0.121189
H6    H     H_    0.110964 0.602636 0.192765 0.124175
H7    H     H_    0.918734 0.523793 0.088294 0.100780
H8    H     H_    0.152214 0.478087 0.822744 0.128923
H9    H     H_    0.985778 0.377694 0.727855 0.165197
H10   H     H_    0.048369 0.226374 0.735117 0.126325
H11   H     H_    0.276795 0.175060 0.838501 0.143224
H12   H     H_    0.061104 0.909837 0.755976 0.103841
H13   H     H_    0.442799 0.274533 0.934699 0.106100
H14   H     H_    0.625635 0.718255 0.971708 0.106692
H15   H     H_    0.791017 0.811408 0.895420 0.111126
H16   H     H_    0.970809 0.752019 0.796936 0.112267
H17   H     H_    0.993919 0.598927 0.779939 0.168392
H18   H     H_    0.833286 0.504180 0.858111 0.104592
H19   H     H_    0.092928 0.441427 0.011284 0.094113
H20   H     H_    0.920878 0.344487 0.077998 0.103853
H21   H     H_    0.031096 0.233635 0.185381 0.105181
H22   H     H_    0.313110 0.221117 0.228053 0.118508
H23   H     H_    0.222582 0.806223 0.851390 0.107300
H24   H     H_    0.486764 0.316787 0.161092 0.114228
H25   H     H_    0.481483 0.770244 0.815942 0.121376
H26   H     H_    0.586853 0.840971 0.690389 0.109517
H27   H     H_    0.440196 0.028382 0.245712 0.137961
H28   H     H_    0.525521 0.104848 0.116912 0.110891
H29   H     H_    0.736229 0.208044 0.145321 0.102278
H30   H     H_    0.864436 0.233607 0.303575 0.125050
N1    N     N_1   0.500050 0.499980 0.276720 -0.177444
N2    N     N_1   0.499950 0.500020 0.723280 -0.176866
O1    O     O_R   0.500070 0.380310 0.575330 -0.489463
O2    O     O_R   0.499930 0.619690 0.424670 -0.497525
O3    O     O_R   0.500000 0.380310 0.424640 -0.502692
O4    O     O_R   0.500000 0.619690 0.575360 -0.498584
O5    O     O_R   0.274870 0.500000 0.557960 -0.457010
O6    O     O_R   0.725130 0.500000 0.442040 -0.453282
O7    O     O_R   0.274790 0.500000 0.407270 -0.478439
O8    O     O_R   0.725210 0.500000 0.592730 -0.488520

loop_
_geom_bond_atom_site_label_1
_geom_bond_atom_site_label_2
_ccdc_geom_bond_type
C23   C58   S    
C34   C56   A    
C8    C13   S    
C23   C45   A    
C41   C42   A    
C35   C36   A    
C58   N2    T    
C1    O1    A    
C6    C9    A    
C50   H18   S    
Cu2   O7    S    
C21   H23   S    
C53   C54   A    
C7    C11   S    
C26   C27   A    
C28   H29   S    
C18   C24   A    
C28   C29   A    
Cu1   O5    S    
C17   C45   A    
C54   H21   S    
C6    C25   S    
C43   H13   S    
C18   C19   A    
C39   H8    S    
C55   H22   S    
C9    F4    S    
C38   C45   S    
C54   C55   A    
C11   C15   T    
Cu1   N2    S    
C22   H25   S    
C19   H1    S    
C53   H20   S    
C51   C57   A    
C31   C56   S    
C60   O5    A    
C16   C44   S    
Cu2   O3    S    
C3    C60   S    
C26   H27   S    
C35   H5    S    
C21   C22   A    
C17   C51   S    
Cu1   O1    S    
C24   H26   S    
C44   C46   A    
Cu2   O6    S    
C57   H24   S    
C51   C52   A    
C39   C40   A    
C5    C7    A    
C6    C8    A    
C5    C18   S    
C25   C26   A    
C2    O8    A    
C31   C37   A    
C2    C4    S    
C16   C56   A    
C12   O4    A    
C29   C30   A    
Cu2   N1    S    
C47   C48   A    
C12   C15   S    
C2    O6    A    
Cu1   O8    S    
C33   H4    S    
Cu2   O2    S    
C8    C10   A    
C48   C49   A    
C16   C23   A    
C55   C57   A    
C34   C59   S    
C59   N1    T    
C22   C24   A    
C42   C43   A    
C3    C4    D    
C1    O3    A    
C52   C53   A    
C10   F3    S    
C44   C50   A    
C25   C30   A    
C7    C9    A    
C37   H7    S    
C46   C47   A    
C52   H19   S    
C31   C32   A    
C29   H30   S    
C32   H3    S    
C3    F1    S    
C4    F2    S    
C40   H9    S    
C20   H12   S    
C32   C33   A    
C49   H17   S    
C19   C20   A    
Cu1   O4    S    
C38   C43   A    
C41   H10   S    
C46   H14   S    
C38   C39   A    
C33   C35   A    
C48   H16   S    
C47   H15   S    
Cu1   Cu2   S    
C12   O2    A    
C5    C10   A    
C20   C21   A    
C42   H11   S    
C36   C37   A    
C49   C50   A    
C17   C34   A    
C27   C28   A    
C27   H28   S    
C40   C41   A    
C1    C14   S    
C13   C14   T    
C30   H2    S    
C60   O7    A    
C36   H6    S    
