data_mof_unit_41622.cif
_audit_creation_date              2012-12-10T17:17:21-0500
_audit_creation_method            fapswitch 2.2
_symmetry_space_group_name_H-M    P1
_symmetry_Int_Tables_number       1
_space_group_crystal_system       triclinic
_cell_length_a                    27.814649
_cell_length_b                    12.905872
_cell_length_c                    11.673703
_cell_angle_alpha                 99.599125
_cell_angle_beta                  93.521501
_cell_angle_gamma                 90.254164
_cell_volume                      4123.60212229

loop_
_atom_site_label
_atom_site_type_symbol
_atom_type_description
_atom_site_fract_x
_atom_site_fract_y
_atom_site_fract_z
_atom_type_partial_charge
C1    C     C_R   0.496075 0.299764 0.479118 0.821786
C2    C     C_R   0.503930 0.700236 0.520882 0.822030
C3    C     C_R   0.102362 0.496004 0.502342 -0.103912
C4    C     C_R   0.897749 0.499899 0.495309 -0.103997
C5    C     C_R   0.127118 0.398471 0.488806 -0.071758
C6    C     C_R   0.872531 0.593695 0.482152 -0.071114
C7    C     C_R   0.099971 0.302010 0.472202 0.144146
C8    C     C_R   0.899057 0.684994 0.466151 0.144793
C9    C     C_R   0.128663 0.592928 0.517931 -0.027361
C10   C     C_R   0.871941 0.407158 0.507646 -0.026733
C11   C     C_R   0.354577 0.498747 0.501760 -0.038235
C12   C     C_R   0.645416 0.500762 0.498166 -0.038497
C13   C     C_R   0.974067 0.404666 0.502579 0.015534
C14   C     C_R   0.026235 0.592604 0.506203 0.015380
C15   C     C_R   0.975020 0.591698 0.492092 0.009269
C16   C     C_R   0.024845 0.402086 0.492592 0.009331
C17   C     C_R   0.948932 0.498747 0.496535 0.074082
C18   C     C_R   0.051160 0.496861 0.500436 0.074224
C19   C     C_R   0.948035 0.316154 0.521498 -0.209992
C20   C     C_R   0.053011 0.687147 0.528922 -0.210138
C21   C     C_R   0.897954 0.315251 0.523454 0.173456
C22   C     C_R   0.103234 0.689292 0.534318 0.173854
C23   C     C_R   0.407451 0.499916 0.500585 0.799555
C24   C     C_R   0.592547 0.500021 0.499406 0.799991
C25   C     C_R   0.049599 0.306768 0.472582 -0.197851
C26   C     C_R   0.949524 0.680948 0.470706 -0.198250
C27   C     C_R   0.511013 0.812945 0.531064 -0.120815
C28   C     C_R   0.488989 0.187058 0.468926 -0.120777
C29   C     C_R   0.439751 0.027003 0.426920 0.184149
C30   C     C_R   0.560275 0.972965 0.572916 0.183854
C31   C     C_R   0.444925 0.136229 0.424585 0.142538
C32   C     C_R   0.555073 0.863776 0.575416 0.142766
C33   C     C_R   0.526152 0.133278 0.516357 -0.281045
C34   C     C_R   0.473864 0.866708 0.483555 -0.280970
C35   C     C_R   0.521791 0.026673 0.522549 0.073997
C36   C     C_R   0.478229 0.973306 0.477334 0.073991
C37   C     C_R   0.453134 0.402994 0.023515 0.078343
C38   C     C_R   0.546869 0.596998 0.976488 0.078248
C39   C     C_R   0.458178 0.412876 0.145820 0.082409
C40   C     C_R   0.541823 0.587119 0.854183 0.082318
C41   C     C_R   0.520134 0.541000 0.156688 0.012218
C42   C     C_R   0.479867 0.458998 0.843312 0.011984
C43   C     C_R   0.517039 0.535077 0.033793 0.006050
C44   C     C_R   0.482962 0.464918 0.966208 0.006027
C45   C     C_R   0.178200 0.402011 0.490649 0.518618
C46   C     C_R   0.821563 0.591442 0.484419 0.517736
C47   C     C_R   0.179438 0.589380 0.517785 0.539315
C48   C     C_R   0.821112 0.410708 0.505353 0.538669
C49   C     C_R   0.275886 0.491014 0.398254 -0.118826
C50   C     C_R   0.717919 0.502399 0.392730 -0.107895
C51   C     C_R   0.325958 0.492514 0.397218 -0.230686
C52   C     C_R   0.667813 0.501524 0.393561 -0.228876
C53   C     C_R   0.332181 0.502818 0.607147 -0.226165
C54   C     C_R   0.674023 0.501497 0.601862 -0.230371
C55   C     C_R   0.282072 0.501337 0.607871 -0.111005
C56   C     C_R   0.724092 0.502072 0.600697 -0.115780
C57   C     C_R   0.253886 0.495670 0.503510 0.384670
C58   C     C_R   0.746162 0.502281 0.496174 0.378054
Cu1   Cu    Cu3+1 0.503580 0.507730 0.615930 0.934435
Cu2   Cu    Cu3+1 0.496420 0.492270 0.384070 0.934601
H1    H     H_    0.353309 0.507066 0.688909 0.157583
H2    H     H_    0.657774 0.501336 0.683794 0.161237
H3    H     H_    0.454310 0.406213 0.788954 0.145972
H4    H     H_    0.545690 0.593785 0.211047 0.145651
H5    H     H_    0.564365 0.633826 0.809473 0.119704
H6    H     H_    0.435638 0.366165 0.190533 0.119430
H7    H     H_    0.265084 0.504821 0.689399 0.131884
H8    H     H_    0.745827 0.502236 0.680934 0.136057
H9    H     H_    0.646683 0.501655 0.312504 0.157004
H10   H     H_    0.342196 0.488773 0.314686 0.160829
H11   H     H_    0.734867 0.502622 0.311709 0.135034
H12   H     H_    0.254107 0.486533 0.317407 0.133253
H13   H     H_    0.966528 0.246956 0.540026 0.139484
H14   H     H_    0.035161 0.761571 0.547579 0.139713
H15   H     H_    0.029186 0.234708 0.451833 0.158887
H16   H     H_    0.969262 0.747187 0.452331 0.159041
H17   H     H_    0.441472 0.822268 0.450091 0.166535
H18   H     H_    0.558548 0.177718 0.549814 0.166468
N1    N     N_R   0.202377 0.495666 0.504395 -0.460106
N2    N     N_R   0.797726 0.501429 0.495024 -0.459008
N3    N     N_R   0.508960 0.519350 0.790140 -0.202871
N4    N     N_R   0.491040 0.480650 0.209860 -0.202773
O1    O     O_R   0.502540 0.354460 0.582000 -0.576123
O2    O     O_R   0.497460 0.645540 0.418000 -0.576128
O3    O     O_R   0.496500 0.341410 0.386200 -0.588240
O4    O     O_R   0.503500 0.658590 0.613800 -0.588235
O5    O     O_R   0.433290 0.506540 0.597890 -0.585571
O6    O     O_R   0.566710 0.493460 0.402110 -0.585344
O7    O     O_R   0.427240 0.493490 0.402090 -0.595556
O8    O     O_R   0.572760 0.506510 0.597910 -0.595729
O9    O     O_2   0.204262 0.313558 0.478704 -0.579164
O10   O     O_2   0.795344 0.677975 0.477668 -0.579231
O11   O     O_2   0.794573 0.324647 0.512477 -0.550831
O12   O     O_2   0.206338 0.678120 0.530076 -0.549473
C59   C     C_3   0.596851 0.800415 0.617610 -0.430771
C60   C     C_3   0.634306 0.778413 0.526434 -0.791682
H19   H     H_    0.617910 0.729308 0.446161 0.241226
H20   H     H_    0.648555 0.852203 0.503572 0.265966
H21   H     H_    0.664868 0.735202 0.560922 0.259083
H22   H     H_    0.613437 0.840125 0.702439 0.201609
H23   H     H_    0.585091 0.723637 0.636671 0.205991
C61   C     C_3   0.403118 0.199603 0.382543 -0.429978
C62   C     C_3   0.365566 0.221055 0.473562 -0.791920
H24   H     H_    0.351487 0.147072 0.496331 0.265817
H25   H     H_    0.381811 0.270322 0.553917 0.240859
H26   H     H_    0.334899 0.263893 0.438975 0.261339
H27   H     H_    0.414820 0.276594 0.363959 0.205616
H28   H     H_    0.386632 0.160114 0.297509 0.201816
C63   C     C_3   0.393895 0.966432 0.377430 -0.874263
H29   H     H_    0.365888 0.012457 0.338684 0.244514
H30   H     H_    0.402803 0.901462 0.307254 0.230963
H31   H     H_    0.376957 0.933733 0.447659 0.234923
C64   C     C_3   0.606182 0.033474 0.622090 -0.873845
H32   H     H_    0.634223 0.987414 0.660579 0.244304
H33   H     H_    0.623026 0.066164 0.551744 0.235066
H34   H     H_    0.597369 0.098452 0.692338 0.230961
C65   C     C_3   0.416039 0.326742 0.957102 -0.915797
H35   H     H_    0.396078 0.285340 0.016046 0.233048
H36   H     H_    0.389464 0.369516 0.908253 0.235923
H37   H     H_    0.433960 0.266555 0.895308 0.243557
C66   C     C_3   0.583968 0.673239 0.042903 -0.915550
H38   H     H_    0.603932 0.714638 0.983960 0.233051
H39   H     H_    0.566049 0.733431 0.104699 0.243510
H40   H     H_    0.610539 0.630458 0.091752 0.235858
C67   C     C_3   0.124259 0.194435 0.454353 -0.304808
C68   C     C_3   0.091664 0.096322 0.438177 -0.920811
H41   H     H_    0.070161 0.096341 0.515302 0.253306
H42   H     H_    0.067605 0.091339 0.357836 0.258106
H43   H     H_    0.114322 0.025103 0.428912 0.257963
H44   H     H_    0.145315 0.187505 0.375626 0.239655
H45   H     H_    0.148879 0.189900 0.531936 0.243238
C69   C     C_3   0.873984 0.786108 0.443845 -0.305781
C70   C     C_3   0.905797 0.876845 0.420986 -0.919634
H46   H     H_    0.930891 0.904951 0.497751 0.251850
H47   H     H_    0.926145 0.852445 0.342216 0.259452
H48   H     H_    0.882654 0.943665 0.405394 0.258017
H49   H     H_    0.848393 0.766481 0.366193 0.237782
H50   H     H_    0.853878 0.817684 0.521132 0.244504
C71   C     C_3   0.874411 0.214461 0.544092 -0.755694
H51   H     H_    0.901076 0.153318 0.558354 0.194839
H52   H     H_    0.853652 0.229882 0.623270 0.255138
H53   H     H_    0.850748 0.180304 0.466871 0.258499
C72   C     C_3   0.127605 0.796600 0.558535 -0.756253
H54   H     H_    0.101454 0.861641 0.572349 0.194759
H55   H     H_    0.151649 0.804150 0.639085 0.256458
H56   H     H_    0.148112 0.808998 0.483195 0.257464

loop_
_geom_bond_atom_site_label_1
_geom_bond_atom_site_label_2
_ccdc_geom_bond_type
C72   H56   S    
C30   C32   A    
C68   H41   S    
C8    C26   A    
C14   C18   A    
C2    O2    A    
C35   C36   A    
C47   N1    A    
C50   H11   S    
Cu2   O6    S    
Cu2   O7    S    
C29   C36   A    
C30   C35   A    
C29   C63   S    
C19   C21   A    
Cu1   O1    S    
C63   H30   S    
C34   H17   S    
Cu2   O2    S    
C71   H53   S    
C33   H18   S    
C46   O10   S    
C69   H50   S    
C72   H54   S    
C60   H21   S    
C49   C57   A    
C3    C18   A    
C72   H55   S    
C57   N1    S    
C66   H40   S    
C52   H9    S    
Cu2   N4    S    
C67   H44   S    
C59   C60   S    
C69   C70   S    
C49   C51   A    
C49   H12   S    
C60   H20   S    
C22   C72   S    
C8    C69   S    
C1    C28   S    
C26   H16   S    
C23   O7    A    
C61   H28   S    
C2    C27   S    
C51   H10   S    
C11   C53   A    
C58   N2    S    
C64   H34   S    
Cu1   Cu2   S    
C27   C34   A    
C38   C40   A    
C23   O5    A    
C41   C43   A    
C42   N3    A    
C42   C44   A    
C12   C52   A    
C53   C55   A    
C10   C21   A    
C1    O3    A    
C54   C56   A    
C48   O11   S    
C13   C19   A    
C50   C58   A    
C31   C61   S    
C14   C20   A    
C19   H13   S    
C4    C6    A    
C65   H37   S    
C5    C7    A    
C59   H22   S    
C15   C26   A    
C6    C8    A    
C54   H2    S    
C68   H43   S    
C69   H49   S    
C56   H8    S    
C5    C45   A    
C25   H15   S    
Cu1   O8    S    
C43   C44   A    
C45   N1    A    
C3    C9    A    
C70   H48   S    
C67   H45   S    
C50   C52   A    
Cu2   O3    S    
C60   H19   S    
C20   H14   S    
C61   H27   S    
C62   H25   S    
C7    C67   S    
C24   O6    A    
C66   H38   S    
C4    C17   A    
C16   C18   A    
C20   C22   A    
C28   C33   A    
C9    C47   A    
C40   H5    S    
C55   C57   A    
C10   C48   A    
C67   C68   S    
C39   H6    S    
C63   H31   S    
C21   C71   S    
C53   H1    S    
C64   H32   S    
C16   C25   A    
C15   C17   A    
C68   H42   S    
C6    C46   A    
C27   C32   A    
C40   N3    A    
C28   C31   A    
Cu1   N3    S    
C39   N4    A    
C3    C5    A    
C24   O8    A    
C55   H7    S    
C71   H51   S    
C1    O1    A    
C12   C24   S    
C7    C25   A    
C13   C17   A    
C48   N2    A    
C37   C44   A    
C65   H36   S    
Cu1   O4    S    
C38   C43   A    
C37   C39   A    
C63   H29   S    
C46   N2    A    
C71   H52   S    
C70   H46   S    
C41   N4    A    
C11   C23   S    
C33   C35   A    
C47   O12   S    
C56   C58   A    
C2    O4    A    
C62   H26   S    
C34   C36   A    
C61   C62   S    
C45   O9    S    
Cu1   O5    S    
C66   H39   S    
C38   C66   S    
C11   C51   A    
C32   C59   S    
C37   C65   S    
C29   C31   A    
C9    C22   A    
C13   C16   A    
C62   H24   S    
C70   H47   S    
C14   C15   A    
C41   H4    S    
C65   H35   S    
C4    C10   A    
C42   H3    S    
C12   C54   A    
C59   H23   S    
C64   H33   S    
C30   C64   S    
