data_mof_unit_21594.cif
_audit_creation_date              2012-12-11T15:53:53-0500
_audit_creation_method            fapswitch 2.2
_symmetry_space_group_name_H-M    P1
_symmetry_Int_Tables_number       1
_space_group_crystal_system       triclinic
_cell_length_a                    10.640185
_cell_length_b                    10.744685
_cell_length_c                    17.032923
_cell_angle_alpha                 80.638369
_cell_angle_beta                  99.248789
_cell_angle_gamma                 118.765055
_cell_volume                      1676.59675468

loop_
_atom_site_label
_atom_site_type_symbol
_atom_type_description
_atom_site_fract_x
_atom_site_fract_y
_atom_site_fract_z
_atom_type_partial_charge
C1    C     C_R   0.384319 0.283754 0.632050 0.550600
C2    C     C_R   0.383006 0.833524 0.671489 0.215986
C3    C     C_R   0.367616 0.853039 0.748251 -0.124649
C4    C     C_3   0.142909 0.457547 0.796474 -0.235930
C5    C     C_3   0.161980 0.434507 0.714561 -0.246296
C6    C     C_R   0.312595 0.693772 0.646092 0.020396
C7    C     C_1   0.823570 0.656911 0.705900 -0.025242
C8    C     C_1   0.851336 0.684834 0.773659 -0.027720
C9    C     C_1   0.364569 0.232188 0.714247 -0.041200
C10   C     C_1   0.333565 0.185584 0.781467 -0.050622
C11   C     C_1   0.335716 0.664032 0.277798 -0.051049
C12   C     C_R   0.368597 0.655505 0.585453 0.558981
C13   C     C_1   0.323341 0.673471 0.207027 -0.058084
C14   C     C_R   0.876663 0.689083 0.169415 0.050080
C15   C     C_R   0.930799 0.614364 0.227547 0.033711
C16   C     C_R   0.920101 0.609527 0.306894 -0.025661
C17   C     C_R   0.829028 0.780187 0.275531 -0.145738
C18   C     C_R   0.840435 0.784776 0.194557 -0.155124
C19   C     C_3   0.920474 0.468961 0.235947 0.043101
C20   C     C_3   0.906724 0.462564 0.324201 -0.222514
C21   C     C_R   0.852194 0.678303 0.330884 0.023870
C22   C     C_R   0.296950 0.115851 0.172062 -0.006452
C23   C     C_R   0.777161 0.618980 0.626746 0.533615
C24   C     C_R   0.185045 0.118319 0.202720 0.005965
C25   C     C_R   0.191927 0.131654 0.281506 -0.009174
C26   C     C_R   0.409208 0.106245 0.307384 0.132323
C27   C     C_R   0.399580 0.091445 0.226166 -0.101024
C28   C     C_3   0.109121 0.205602 0.174977 -0.248913
C29   C     C_3   0.117122 0.223268 0.262143 -0.248889
C30   C     C_R   0.313322 0.143877 0.333193 0.025545
C31   C     C_R   0.892125 0.702107 0.855838 0.548572
C32   C     C_R   0.281774 0.750535 0.882801 0.562928
C33   C     C_R   0.286656 0.118248 0.858347 0.542888
C34   C     C_R   0.349044 0.221823 0.401843 0.590418
C35   C     C_R   0.896401 0.694975 0.087178 0.569491
C36   C     C_R   0.313044 0.700900 0.123867 0.551568
C37   C     C_R   0.279947 0.097393 0.088640 0.564990
C38   C     C_R   0.365046 0.654108 0.360838 0.562317
C39   C     C_R   0.776347 0.624985 0.401676 0.545606
C40   C     C_R   0.279803 0.736151 0.798713 -0.036051
C41   C     C_R   0.185290 0.609045 0.764743 0.007711
C42   C     C_R   0.201997 0.587881 0.690025 -0.024613
Cr1   Cr    Cr6+3 0.608440 0.389080 0.519680 1.116979
Cr2   Cr    Cr6+3 0.288640 0.400090 0.490760 1.020499
Cr3   Cr    Cr6+3 0.602940 0.710800 0.489510 1.100201
Cr4   Cr    Cr6+3 0.052530 0.947560 0.964210 1.029998
Cr5   Cr    Cr6+3 0.059970 0.626800 0.992920 1.041938
Cr6   Cr    Cr6+3 0.373320 0.938440 0.995370 1.049109
H1    H     H_    0.800069 0.380115 0.342781 0.230010
H2    H     H_    0.000318 0.461474 0.363500 0.129958
H3    H     H_    0.474409 0.065497 0.205499 0.202489
H4    H     H_    0.997368 0.141094 0.148357 0.162776
H5    H     H_    0.175134 0.306749 0.138973 0.150554
H6    H     H_    0.186975 0.335873 0.275333 0.157634
H7    H     H_    0.009632 0.170962 0.285466 0.167538
H8    H     H_    0.430910 0.957255 0.770033 0.162683
H9    H     H_    0.029080 0.398796 0.810964 0.160952
H10   H     H_    0.222550 0.446589 0.844259 0.156397
H11   H     H_    0.253477 0.412082 0.715271 0.138126
H12   H     H_    0.059513 0.361539 0.681979 0.170793
H13   H     H_    0.785556 0.843615 0.292563 0.159216
H14   H     H_    0.813064 0.856391 0.151751 0.139851
H15   H     H_    0.021689 0.471632 0.224651 0.135695
O1    O     O_R   0.754020 0.497590 0.609930 -0.506996
O2    O     O_R   0.295080 0.533620 0.397890 -0.526579
O3    O     O_R   0.485280 0.746620 0.388440 -0.456368
O4    O     O_R   0.720550 0.696220 0.420010 -0.507115
O5    O     O_3   0.500010 0.499990 0.499980 -0.299428
O6    O     O_R   0.163320 0.092900 0.874450 -0.503008
O7    O     O_R   0.934650 0.822080 0.882840 -0.487068
O8    O     O_R   0.915520 0.604140 0.893670 -0.513261
O9    O     O_R   0.191760 0.638110 0.923230 -0.498440
O10   O     O_R   0.406180 0.826930 0.920660 -0.504126
O11   O     O_R   0.358620 0.062870 0.901950 -0.510758
O12   O     O_R   0.481420 0.271390 0.600630 -0.428477
O13   O     O_R   0.163910 0.085460 0.050210 -0.518376
O14   O     O_R   0.935200 0.815170 0.045770 -0.513407
O15   O     O_R   0.916120 0.596690 0.069430 -0.467583
O16   O     O_R   0.192310 0.631200 0.086170 -0.505641
O17   O     O_R   0.406770 0.819480 0.096420 -0.499421
O18   O     O_R   0.359170 0.055960 0.064880 -0.489038
O19   O     O_3   0.161940 0.837600 0.984160 -0.293640
O20   O     O_R   0.263810 0.254550 0.589590 -0.500478
O21   O     O_R   0.300820 0.531200 0.560890 -0.530142
O22   O     O_R   0.491480 0.744020 0.564270 -0.433804
O23   O     O_R   0.726290 0.693800 0.583010 -0.492815
O24   O     O_R   0.747830 0.500190 0.434090 -0.508107
O25   O     O_R   0.475680 0.273800 0.437630 -0.434632
O26   O     O_R   0.257620 0.257160 0.413750 -0.528399
Cl1   Cl    Cl    0.500641 0.985058 0.613453 -0.524127
Br1   Br    Br    0.747414 0.328384 0.181108 -0.529953
Br2   Br    Br    0.558415 0.082874 0.377438 -0.427925

loop_
_geom_bond_atom_site_label_1
_geom_bond_atom_site_label_2
_ccdc_geom_bond_type
C5    C42   S    
C16   C21   A    
C11   C13   T    
C41   C42   A    
C14   C18   A    
C19   C20   S    
Cr5   O16   S    
Cr2   O20   S    
Cr4   O13   S    
C7    C8    T    
C32   O9    A    
C15   C19   S    
C26   C27   A    
C12   O22   A    
Cr1   O25   S    
C28   C29   S    
C6    C12   S    
C4    C41   S    
C26   Br2   S    
C15   C16   A    
Cr6   O18   S    
C12   O21   A    
Cr5   O19   S    
C2    Cl1   S    
Cr4   O6    S    
C20   H2    S    
C17   H13   S    
Cr4   O19   S    
C31   O7    A    
C38   O3    A    
C19   H15   S    
Cr1   O5    S    
C23   O23   A    
C4    H9    S    
Cr3   O4    S    
C39   O24   A    
C9    C10   T    
C33   O6    A    
C31   O8    A    
Cr1   O12   S    
C37   O18   A    
Cr2   O2    S    
C2    C6    A    
C27   H3    S    
Cr1   O1    S    
C25   C29   S    
C5    H11   S    
C1    O12   A    
Cr6   O11   S    
C1    C9    S    
C24   C25   A    
C13   C36   S    
C36   O17   A    
C32   O10   A    
C30   C34   S    
C18   H14   S    
C29   H7    S    
C22   C37   S    
C35   O14   A    
C17   C21   A    
C11   C38   S    
Cr3   O22   S    
C20   H1    S    
C3    H8    S    
C21   C39   S    
C38   O2    A    
C16   C20   S    
Cr3   O5    S    
C17   C18   A    
C34   O25   A    
Cr5   O8    S    
C23   O1    A    
C37   O13   A    
C3    C40   A    
C26   C30   A    
C22   C27   A    
C22   C24   A    
Cr2   O5    S    
C14   C35   S    
C25   C30   A    
C40   C41   A    
C5    H12   S    
C8    C31   S    
C39   O4    A    
Cr6   O10   S    
C24   C28   S    
C4    C5    S    
Cr2   O21   S    
C36   O16   A    
Cr4   O14   S    
C28   H5    S    
C29   H6    S    
C1    O20   A    
C35   O15   A    
Cr1   O24   S    
Cr6   O17   S    
C2    C3    A    
C34   O26   A    
C28   H4    S    
C7    C23   S    
Cr6   O19   S    
Cr3   O23   S    
C10   C33   S    
C32   C40   S    
Cr5   O9    S    
Cr4   O7    S    
C19   Br1   S    
C33   O11   A    
C6    C42   A    
C4    H10   S    
Cr3   O3    S    
C14   C15   A    
Cr5   O15   S    
Cr2   O26   S    
