data_mof_unit_5029.cif
_audit_creation_date              2012-12-11T15:47:05-0500
_audit_creation_method            fapswitch 2.2
_symmetry_space_group_name_H-M    P1
_symmetry_Int_Tables_number       1
_space_group_crystal_system       triclinic
_cell_length_a                    20.03217
_cell_length_b                    7.249232
_cell_length_c                    13.871172
_cell_angle_alpha                 90.003672
_cell_angle_beta                  103.027699
_cell_angle_gamma                 89.991163
_cell_volume                      1962.49498245

loop_
_atom_site_label
_atom_site_type_symbol
_atom_type_description
_atom_site_fract_x
_atom_site_fract_y
_atom_site_fract_z
_atom_type_partial_charge
O1    O     O_R   0.449560 0.506810 0.599700 -0.562249
O2    O     O_R   0.550440 0.006810 0.400300 -0.558262
O3    O     O_R   0.587960 0.180060 0.595760 -0.506152
O4    O     O_R   0.412040 0.680060 0.404240 -0.505371
C1    C     C_R   0.615698 0.343633 0.615125 0.771645
C2    C     C_R   0.384332 0.843712 0.384761 0.775954
O5    O     O_R   0.452380 0.177430 0.611700 -0.522975
O6    O     O_R   0.547620 0.677430 0.388300 -0.510971
O7    O     O_R   0.413900 0.001890 0.416350 -0.543615
O8    O     O_R   0.586100 0.501890 0.583650 -0.550446
C3    C     C_R   0.436076 0.346280 0.636407 0.781255
C4    C     C_R   0.563900 0.846237 0.363537 0.790306
O9    O     O_3   0.487530 0.337490 0.435890 -0.370712
O10   O     O_3   0.512470 0.837490 0.564110 -0.385913
V1    V     V_3+5 0.502310 0.064660 0.511890 1.647761
V2    V     V_3+5 0.497690 0.564660 0.488110 1.659421
C5    C     C_R   0.614390 0.013608 0.136292 0.558256
C6    C     C_R   0.385681 0.502428 0.866119 0.495954
H1    H     H_    0.524843 0.030819 0.196387 0.211353
H2    H     H_    0.474979 0.526308 0.805817 0.197696
C7    C     C_R   0.602468 0.862000 0.286684 -0.193195
C8    C     C_R   0.397128 0.361571 0.712776 -0.194875
C9    C     C_R   0.930567 0.830411 0.309859 -0.158037
C10   C     C_R   0.068978 0.339288 0.689508 -0.162755
C11   C     C_R   0.895239 0.816750 0.384846 -0.128343
C12   C     C_R   0.104127 0.328825 0.614183 -0.127737
C13   C     C_R   0.824040 0.825752 0.362938 -0.024634
C14   C     C_R   0.175385 0.333398 0.636107 -0.027807
C15   C     C_R   0.785951 0.845069 0.264406 0.056786
C16   C     C_R   0.213653 0.344454 0.734895 0.050034
C17   C     C_R   0.822256 0.865359 0.187660 -0.119192
C18   C     C_R   0.177618 0.360009 0.812220 -0.102738
C19   C     C_R   0.713144 0.860359 0.240982 -0.141267
C20   C     C_R   0.286500 0.356940 0.758398 -0.140538
C21   C     C_R   0.680264 0.933682 0.147557 -0.283290
C22   C     C_R   0.319772 0.422342 0.853299 -0.266590
C23   C     C_R   0.713547 0.918189 0.068793 0.427515
C24   C     C_R   0.286897 0.398594 0.931856 0.404764
C25   C     C_R   0.784462 0.889606 0.089173 0.477442
C26   C     C_R   0.215751 0.374248 0.911186 0.456821
C27   C     C_R   0.671393 0.809008 0.306573 0.603159
C28   C     C_R   0.328001 0.310204 0.691773 0.577972
C29   C     C_R   0.575331 0.970398 0.204295 -0.218641
C30   C     C_R   0.424438 0.465760 0.796835 -0.265328
C31   C     C_R   0.895130 0.856287 0.211819 -0.047505
C32   C     C_R   0.104697 0.356525 0.788004 -0.047840
H3    H     H_    0.986035 0.822773 0.328473 0.140937
H4    H     H_    0.013454 0.336048 0.670837 0.143326
H5    H     H_    0.800274 0.827736 0.425098 0.212319
H6    H     H_    0.199179 0.338880 0.574041 0.213360
H7    H     H_    0.923281 0.801981 0.460897 0.158299
H8    H     H_    0.075923 0.320604 0.537908 0.158034
C33   C     C_R   0.205046 0.009803 0.260949 0.467482
C34   C     C_R   0.794912 0.509999 0.738928 0.521654
C35   C     C_R   0.272638 0.005406 0.318126 -0.236697
C36   C     C_R   0.727473 0.504984 0.681291 -0.277387
H9    H     H_    0.292325 0.122329 0.364388 0.237734
H10   H     H_    0.707753 0.621791 0.634953 0.242049
C37   C     C_R   0.313756 0.848240 0.320916 -0.232455
C38   C     C_R   0.686365 0.347886 0.678652 -0.287261
C39   C     C_R   0.285119 0.692268 0.266683 0.707661
C40   C     C_R   0.715023 0.192010 0.733000 0.729345
C41   C     C_R   0.221716 0.703493 0.199909 -0.198887
C42   C     C_R   0.778424 0.203485 0.799722 -0.187975
H11   H     H_    0.205033 0.587262 0.151941 0.239520
H12   H     H_    0.794989 0.087613 0.847932 0.269378
C43   C     C_R   0.180334 0.860968 0.194870 -0.253944
C44   C     C_R   0.819711 0.361077 0.804928 -0.291417
O11   O     O_R   0.913920 0.203370 0.916260 -0.535175
O12   O     O_R   0.086080 0.703370 0.083740 -0.537582
O13   O     O_R   0.047620 0.535540 0.888290 -0.534408
O14   O     O_R   0.952380 0.035540 0.111710 -0.531349
C45   C     C_R   0.064157 0.367836 0.863377 0.795413
C46   C     C_R   0.935848 0.867836 0.136645 0.795119
O15   O     O_R   0.912040 0.532780 0.904220 -0.486178
O16   O     O_R   0.087960 0.032780 0.095780 -0.486057
O17   O     O_R   0.949550 0.708160 0.099720 -0.544297
O18   O     O_R   0.050450 0.208160 0.900280 -0.541788
C47   C     C_R   0.886812 0.365287 0.879320 0.755818
C48   C     C_R   0.113195 0.865249 0.120633 0.754675
O19   O     O_3   0.012480 0.375300 0.064060 -0.359171
O20   O     O_3   0.987520 0.875300 0.935940 -0.359841
V3    V     V_3+5 0.997690 0.648180 0.988110 1.726236
V4    V     V_3+5 0.002310 0.148180 0.011890 1.729193
F1    F     F_    0.317724 0.527131 0.278946 -0.629927
F2    F     F_    0.682004 0.027311 0.722217 -0.614405
S1    S     S_3+6 0.665360 0.880686 0.946520 0.127081
O21   O     O_2   0.598217 0.791055 0.949700 -0.290004
O22   O     O_2   0.651866 0.061367 0.893287 -0.261703
O23   O     O_3   0.708447 0.741762 0.884690 -0.454653
H13   H     H_    0.673563 0.697485 0.826951 0.373249
S2    S     S_3+6 0.335712 0.342162 0.051497 0.181022
O24   O     O_2   0.401877 0.252395 0.043503 -0.231372
O25   O     O_2   0.351756 0.514024 0.112335 -0.249683
O26   O     O_3   0.292584 0.193693 0.108213 -0.455394
H14   H     H_    0.270048 0.270960 0.150378 0.400269
S3    S     S_3+6 0.589511 0.213334 0.063276 0.139588
O27   O     O_2   0.539218 0.162625 0.969307 -0.227285
O28   O     O_2   0.555727 0.346280 0.120509 -0.276117
O29   O     O_3   0.658495 0.317238 0.037330 -0.495351
H15   H     H_    0.639802 0.421469 0.993311 0.395013
S4    S     S_3+6 0.411282 0.694917 0.944594 0.156068
O30   O     O_2   0.350867 0.781720 0.974614 -0.299332
O31   O     O_2   0.463340 0.636707 0.035197 -0.198761
O32   O     O_3   0.447454 0.853238 0.883835 -0.428521
H16   H     H_    0.409671 0.898235 0.830028 0.336700
F3    F     F_    0.695574 0.702857 0.387597 -0.689500
F4    F     F_    0.303397 0.209584 0.608770 -0.695598
F5    F     F_    0.815789 0.885495 0.012034 -0.650256
F6    F     F_    0.184569 0.364080 0.988319 -0.683005
S5    S     S_3+6 0.152808 0.195569 0.282995 -0.004280
O33   O     O_2   0.141027 0.325898 0.196880 -0.327818
O34   O     O_2   0.085102 0.122741 0.295878 -0.365613
O35   O     O_3   0.191161 0.311472 0.385511 -0.503927
H17   H     H_    0.163302 0.424516 0.385110 0.348964
S6    S     S_3+6 0.846875 0.696774 0.717581 0.017079
O36   O     O_2   0.858203 0.825993 0.804136 -0.304617
O37   O     O_2   0.914789 0.625190 0.704837 -0.373022
O38   O     O_3   0.808545 0.813436 0.615295 -0.505618
H18   H     H_    0.836924 0.925341 0.615273 0.347931

loop_
_geom_bond_atom_site_label_1
_geom_bond_atom_site_label_2
_ccdc_geom_bond_type
C16   C18   A    
S1    O21   D    
C41   H11   S    
C9    C31   A    
C35   C37   A    
C13   C15   A    
S5    O33   D    
O1    C3    A    
C5    S3    S    
O2    C4    A    
O16   V4    S    
C2    O7    A    
C5    C29   A    
O35   H17   S    
O5    C3    A    
C40   F2    S    
C42   C44   A    
C21   C23   A    
C10   C12   A    
C6    C30   A    
C34   C44   A    
O17   V3    S    
C24   S2    S    
S6    O36   D    
S4    O32   S    
C38   C40   A    
C6    S4    S    
C39   C41   A    
S2    O24   D    
C40   C42   A    
H2    C30   S    
C7    C29   A    
C14   H6    S    
C8    C30   A    
O26   H14   S    
C15   C19   A    
C36   H10   S    
C20   C28   A    
C46   O17   A    
C34   S6    S    
C45   O18   A    
S1    O23   S    
C33   S5    S    
C44   C47   S    
O5    V1    S    
O6    V2    S    
S3    O28   D    
H1    C29   S    
S3    O27   D    
O13   V3    S    
C33   C35   A    
C41   C43   A    
C37   C39   A    
C9    H3    S    
C28   F4    S    
C16   C20   A    
O12   C48   A    
C10   H4    S    
O14   C46   A    
O13   C45   A    
C26   F6    S    
C4    C7    S    
S2    O26   S    
C36   C38   A    
C31   C46   S    
C42   H12   S    
O4    V2    S    
C11   H7    S    
O12   V3    S    
C12   H8    S    
O6    C4    A    
S2    O25   D    
S5    O34   D    
O1    V2    S    
S4    O31   D    
O2    V1    S    
O14   V4    S    
C39   F1    S    
C7    C27   A    
O4    C2    A    
C35   H9    S    
O11   C47   A    
O19   V4    S    
O3    V1    S    
S3    O29   S    
C27   F3    S    
C1    C38   S    
C18   C32   A    
C2    C37   S    
C23   S1    S    
C43   C48   S    
O16   C48   A    
O3    C1    A    
O38   H18   S    
C34   C36   A    
C11   C13   A    
O32   H16   S    
C3    C8    S    
C12   C14   A    
S6    O38   S    
C19   C27   A    
C14   C16   A    
O7    V1    S    
C10   C32   A    
C1    O8    A    
C23   C25   A    
O11   V4    S    
O8    V2    S    
C24   C26   A    
O15   V3    S    
O23   H13   S    
C8    C28   A    
C6    C22   A    
C22   C24   A    
O29   H15   S    
C19   C21   A    
S6    O37   D    
S5    O35   S    
C20   C22   A    
C18   C26   A    
S4    O30   D    
C33   C43   A    
O18   V4    S    
C25   F5    S    
C9    C11   A    
C15   C17   A    
O20   V3    S    
C17   C31   A    
O9    V2    S    
C17   C25   A    
S1    O22   D    
O10   V1    S    
C5    C21   A    
O15   C47   A    
C32   C45   S    
C13   H5    S    
