data_mof_unit_54373.cif
_audit_creation_date              2012-12-10T18:47:06-0500
_audit_creation_method            fapswitch 2.2
_symmetry_space_group_name_H-M    P1
_symmetry_Int_Tables_number       1
_space_group_crystal_system       triclinic
_cell_length_a                    10.611507
_cell_length_b                    10.002698
_cell_length_c                    15.015277
_cell_angle_alpha                 90.387574
_cell_angle_beta                  93.685014
_cell_angle_gamma                 90.008651
_cell_volume                      1590.44519956

loop_
_atom_site_label
_atom_site_type_symbol
_atom_type_description
_atom_site_fract_x
_atom_site_fract_y
_atom_site_fract_z
_atom_type_partial_charge
C1    C     C_R   0.261091 0.500001 0.499969 0.898529
C2    C     C_R   0.128243 0.500027 0.499557 -0.105694
C3    C     C_R   0.581951 0.072192 0.557131 0.216077
C4    C     C_R   0.418049 0.927808 0.442869 0.216076
C5    C     C_R   0.418345 0.071167 0.442687 0.217756
C6    C     C_R   0.581657 0.928833 0.557313 0.217760
C7    C     C_R   0.500731 0.499355 0.327020 0.884501
C8    C     C_R   0.499269 0.500645 0.672979 0.884499
C9    C     C_R   0.536659 0.387622 0.815576 -0.275479
C10   C     C_R   0.463342 0.612378 0.184424 -0.275479
C11   C     C_R   0.498099 0.502190 0.768920 -0.223554
C12   C     C_R   0.738908 0.499999 0.500031 0.898529
C13   C     C_R   0.501901 0.497810 0.231080 -0.223553
C14   C     C_R   0.459072 0.616980 0.813845 0.617066
C15   C     C_R   0.540928 0.383020 0.186155 0.617065
C16   C     C_R   0.459857 0.617451 0.906601 -0.149664
C17   C     C_R   0.540143 0.382549 0.093399 -0.149663
C18   C     C_R   0.499349 0.500916 0.953525 -0.058637
C19   C     C_R   0.500651 0.499084 0.046475 -0.058636
C20   C     C_R   0.537517 0.386002 0.907554 0.061462
C21   C     C_R   0.462483 0.613998 0.092446 0.061462
C22   C     C_R   0.422172 0.731259 0.953623 0.688393
C23   C     C_R   0.423658 0.728995 0.046061 -0.271440
C24   C     C_R   0.577829 0.268740 0.046377 0.688392
C25   C     C_3   0.121341 0.499273 0.328741 -0.893540
C26   C     C_3   0.878659 0.500716 0.671259 -0.893541
C27   C     C_3   0.841853 0.498562 0.331410 -0.822219
C28   C     C_3   0.158147 0.501453 0.668591 -0.822211
C29   C     C_3   0.675731 0.143476 0.621108 -0.811842
C30   C     C_3   0.324269 0.856524 0.378893 -0.811843
C31   C     C_3   0.326810 0.141519 0.377308 -0.748849
C32   C     C_3   0.673195 0.858481 0.622689 -0.748850
C33   C     C_R   0.576343 0.271005 0.953939 -0.271440
C34   C     C_R   0.057745 0.499601 0.416788 0.147906
C35   C     C_R   0.942255 0.500397 0.583212 0.147906
C36   C     C_R   0.926356 0.499491 0.417397 0.130931
C37   C     C_R   0.073644 0.500514 0.582604 0.130930
C38   C     C_R   0.871757 0.499973 0.500443 -0.105694
F1    F     F_    0.418365 0.726631 0.767268 -0.607490
F2    F     F_    0.581636 0.273369 0.232733 -0.607490
F3    F     F_    0.384222 0.845032 0.910977 -0.599647
F4    F     F_    0.615778 0.154968 0.089023 -0.599648
H1    H     H_    0.567219 0.299655 0.780347 0.187701
H2    H     H_    0.906576 0.591867 0.710287 0.254823
H3    H     H_    0.781371 0.407910 0.329212 0.270053
H4    H     H_    0.780645 0.588647 0.329269 0.236283
H5    H     H_    0.892759 0.498220 0.269462 0.248823
H6    H     H_    0.218639 0.592097 0.670781 0.270053
H7    H     H_    0.107241 0.501819 0.730538 0.248824
H8    H     H_    0.219347 0.411361 0.670742 0.236280
H9    H     H_    0.670197 0.251632 0.619739 0.285423
H10   H     H_    0.660327 0.114907 0.690817 0.214593
H11   H     H_    0.773529 0.117413 0.605390 0.224697
H12   H     H_    0.432782 0.700345 0.219652 0.187701
H13   H     H_    0.329803 0.748367 0.380261 0.285425
H14   H     H_    0.226471 0.882587 0.394611 0.224696
H15   H     H_    0.339672 0.885093 0.309183 0.214593
H16   H     H_    0.331091 0.249713 0.380171 0.281541
H17   H     H_    0.346368 0.113624 0.307895 0.241146
H18   H     H_    0.228256 0.114372 0.390148 0.208223
H19   H     H_    0.668910 0.750287 0.619829 0.281543
H20   H     H_    0.771749 0.885624 0.609843 0.208224
H21   H     H_    0.653647 0.886380 0.692102 0.241138
H22   H     H_    0.394429 0.817406 0.081455 0.187216
H23   H     H_    0.605572 0.182594 0.918545 0.187216
H24   H     H_    0.225758 0.499569 0.335865 0.212419
H25   H     H_    0.093407 0.408129 0.289711 0.254829
H26   H     H_    0.093101 0.589872 0.290080 0.250539
H27   H     H_    0.774242 0.500399 0.664135 0.212419
H28   H     H_    0.906914 0.410124 0.709923 0.250544
N1    N     N_R   0.500000 0.857200 0.500000 -0.111960
N2    N     N_R   0.500000 0.142800 0.500000 -0.111959
O1    O     O_R   0.316770 0.614620 0.499990 -0.615531
O2    O     O_R   0.683230 0.385380 0.500010 -0.615528
O3    O     O_R   0.683230 0.614620 0.500010 -0.630049
O4    O     O_R   0.316770 0.385380 0.499990 -0.630048
O5    O     O_R   0.499980 0.614680 0.367850 -0.639072
O6    O     O_R   0.500020 0.385320 0.632150 -0.639072
O7    O     O_R   0.500020 0.614680 0.632150 -0.567083
O8    O     O_R   0.499980 0.385320 0.367850 -0.567083
Zn1   Zn    Zn3+2 0.500000 0.653120 0.500000 0.965641
Zn2   Zn    Zn3+2 0.500000 0.346880 0.500000 0.965642

loop_
_geom_bond_atom_site_label_1
_geom_bond_atom_site_label_2
_ccdc_geom_bond_type
C6    C32   S    
C12   O2    A    
C24   F4    S    
C25   H25   S    
C3    C6    A    
C26   H2    S    
C31   H16   S    
C19   C21   A    
C32   H19   S    
C18   C19   A    
C5    N2    A    
C11   C14   A    
C22   F3    S    
C30   H15   S    
C1    C2    S    
C31   H17   S    
C3    C29   S    
C14   F1    S    
C28   H8    S    
C8    O7    A    
C18   C20   A    
C25   C34   S    
C7    O5    A    
C27   H3    S    
C8    O6    A    
C25   H26   S    
O2    Zn2   S    
O1    Zn1   S    
C10   C21   A    
C6    N1    A    
C9    H1    S    
C17   C24   A    
C33   H23   S    
C35   C38   A    
O8    Zn2   S    
O4    Zn2   S    
O7    Zn1   S    
O3    Zn1   S    
C30   H14   S    
C31   H18   S    
C28   H7    S    
O6    Zn2   S    
C9    C20   A    
O5    Zn1   S    
C9    C11   A    
C20   C33   A    
C27   H4    S    
C23   H22   S    
C21   C23   A    
C26   H28   S    
C14   C16   A    
C29   H9    S    
C27   H5    S    
C15   C17   A    
C28   H6    S    
C16   C22   A    
C35   C37   A    
C1    O4    A    
C25   H24   S    
C32   H21   S    
C4    C5    A    
C10   C13   A    
C27   C36   S    
C30   H13   S    
C24   C33   A    
C1    O1    A    
C13   C15   A    
C3    N2    A    
C32   H20   S    
C2    C37   A    
C2    C34   A    
C29   H11   S    
C28   C37   S    
C8    C11   S    
C36   C38   A    
C17   C19   A    
C34   C36   A    
C12   C38   S    
C10   H12   S    
N2    Zn2   S    
C15   F2    S    
C26   C35   S    
C7    C13   S    
C16   C18   A    
C12   O3    A    
C26   H27   S    
C22   C23   A    
N1    Zn1   S    
C4    N1    A    
C4    C30   S    
C7    O8    A    
C5    C31   S    
C29   H10   S    
