data_mof_unit_64736.cif
_audit_creation_date              2012-12-10T20:47:35-0500
_audit_creation_method            fapswitch 2.2
_symmetry_space_group_name_H-M    P1
_symmetry_Int_Tables_number       1
_space_group_crystal_system       triclinic
_cell_length_a                    17.894339
_cell_length_b                    19.190044
_cell_length_c                    19.215998
_cell_angle_alpha                 94.598806
_cell_angle_beta                  99.075904
_cell_angle_gamma                 103.40217
_cell_volume                      6291.59506559

loop_
_atom_site_label
_atom_site_type_symbol
_atom_type_description
_atom_site_fract_x
_atom_site_fract_y
_atom_site_fract_z
_atom_type_partial_charge
C1    C     C_R   0.490997 0.506993 0.687915 0.532054
C2    C     C_R   0.919054 0.427330 0.443493 -0.106295
C3    C     C_R   0.958764 0.390838 0.402841 0.086533
C4    C     C_R   0.507965 0.494248 0.311962 0.511579
C5    C     C_R   0.040624 0.408130 0.416647 0.056380
C6    C     C_R   0.082661 0.461072 0.474487 0.018127
C7    C     C_R   0.081574 0.373432 0.373893 -0.098293
C8    C     C_R   0.162694 0.390585 0.387282 -0.125479
C9    C     C_R   0.164951 0.477741 0.486085 -0.101611
C10   C     C_R   0.510937 0.493235 0.235784 0.027497
C11   C     C_R   0.462962 0.527112 0.192583 -0.142409
C12   C     C_R   0.839023 0.600163 0.620241 -0.119244
C13   C     C_R   0.465647 0.527001 0.120610 -0.086256
C14   C     C_R   0.516739 0.492787 0.090210 0.236354
C15   C     C_R   0.564521 0.459074 0.133414 -0.088913
C16   C     C_R   0.491853 0.308965 0.491075 0.507353
C17   C     C_R   0.561759 0.459131 0.205614 -0.140194
C18   C     C_R   0.554501 0.538513 0.886255 0.267996
C19   C     C_R   0.555965 0.534611 0.813692 -0.133592
C20   C     C_R   0.482276 0.518521 0.909389 0.210947
C21   C     C_R   0.486492 0.511378 0.763609 -0.002449
C22   C     C_R   0.414194 0.494229 0.786916 0.062305
C23   C     C_R   0.837208 0.516199 0.518770 -0.121354
C24   C     C_R   0.412936 0.498401 0.859497 -0.118306
C25   C     C_R   0.505070 0.767681 0.516447 -0.014133
C26   C     C_R   0.454293 0.791603 0.465704 -0.107798
C27   C     C_R   0.447888 0.862706 0.472885 0.269224
C28   C     C_R   0.507626 0.691306 0.509630 0.518633
C29   C     C_R   0.493761 0.911598 0.531121 0.235338
C30   C     C_R   0.543153 0.887481 0.582525 -0.140513
C31   C     C_R   0.549290 0.816134 0.575125 -0.155374
C32   C     C_R   0.460127 0.117872 0.537335 -0.079283
C33   C     C_R   0.456189 0.189709 0.537136 -0.143253
C34   C     C_R   0.917779 0.522162 0.538654 0.033914
C35   C     C_R   0.498783 0.087341 0.488872 0.238239
C36   C     C_R   0.491109 0.232027 0.489082 0.028870
C37   C     C_R   0.528388 0.200982 0.440243 -0.137294
C38   C     C_R   0.531489 0.129168 0.439906 -0.092138
C39   C     C_R   0.288414 0.459268 0.459249 0.505418
C40   C     C_R   0.712259 0.539833 0.540124 0.508884
C41   C     C_R   0.797549 0.553299 0.559788 0.021368
C42   C     C_R   0.203937 0.442654 0.443221 0.044681
C43   C     C_R   0.919332 0.609340 0.639516 -0.122215
C44   C     C_R   0.958932 0.570879 0.599286 0.052788
C45   C     C_R   0.958614 0.482147 0.499418 0.013279
C46   C     C_R   0.041359 0.496386 0.517775 0.032004
C47   C     C_R   0.079877 0.544871 0.579274 -0.112292
C48   C     C_R   0.039170 0.580821 0.619319 -0.114895
Cl1   Cl    Cl    0.643636 0.572146 0.945963 -0.528906
Cl2   Cl    Cl    0.379109 0.887598 0.409858 -0.533489
H1    H     H_    0.071038 0.617310 0.666098 0.124122
H2    H     H_    0.201060 0.518558 0.527180 0.110723
H3    H     H_    0.432762 0.086424 0.574978 0.152160
H4    H     H_    0.577792 0.924419 0.627873 0.141130
H5    H     H_    0.588079 0.798813 0.615503 0.157392
H6    H     H_    0.555317 0.232233 0.402216 0.150022
H7    H     H_    0.560356 0.106099 0.401765 0.144742
H8    H     H_    0.418371 0.754773 0.420814 0.175950
H9    H     H_    0.193338 0.363077 0.354187 0.119062
H10   H     H_    0.950487 0.646230 0.686224 0.123951
H11   H     H_    0.809430 0.629437 0.652772 0.147851
H12   H     H_    0.051745 0.332930 0.329789 0.163845
H13   H     H_    0.803718 0.483916 0.470756 0.133545
H14   H     H_    0.141562 0.555343 0.599295 0.127706
H15   H     H_    0.856378 0.409654 0.430746 0.135777
H16   H     H_    0.611654 0.549482 0.796297 0.165854
H17   H     H_    0.604070 0.432614 0.110935 0.150272
H18   H     H_    0.599494 0.432668 0.237744 0.150990
H19   H     H_    0.427722 0.553768 0.089147 0.149523
H20   H     H_    0.357446 0.485446 0.877411 0.157396
H21   H     H_    0.423210 0.553868 0.214335 0.151333
H22   H     H_    0.427081 0.212429 0.575275 0.149045
I1    I     I_    0.304131 0.467239 0.717142 -0.336408
I2    I     I_    0.888485 0.310185 0.320801 -0.359808
N1    N     N_2   0.521855 0.490932 0.017022 -0.161061
N2    N     N_2   0.476524 0.521152 0.982053 -0.227358
N3    N     N_2   0.490743 0.984761 0.539195 -0.226469
N4    N     N_2   0.503717 0.014472 0.485455 -0.170138
O1    O     O_3   0.500000 0.500000 0.500000 -0.447730
O2    O     O_R   0.321500 0.427480 0.506110 -0.517028
O3    O     O_R   0.674970 0.575130 0.575140 -0.545138
O4    O     O_R   0.328550 0.507430 0.428780 -0.537820
O5    O     O_R   0.674980 0.489960 0.489960 -0.542771
O6    O     O_R   0.540930 0.349770 0.460420 -0.544384
O7    O     O_R   0.550820 0.667300 0.556650 -0.537898
O8    O     O_R   0.445640 0.455160 0.644460 -0.502331
O9    O     O_R   0.462610 0.527770 0.338470 -0.544440
O10   O     O_R   0.540910 0.554790 0.665460 -0.545804
O11   O     O_R   0.550840 0.462270 0.351610 -0.542403
O12   O     O_R   0.445650 0.335310 0.524600 -0.539545
O13   O     O_R   0.462600 0.647620 0.458330 -0.540766
Zn1   Zn    Zn3+2 0.565550 0.451340 0.451340 0.944687
Zn2   Zn    Zn3+2 0.429430 0.430690 0.543050 0.979065
Zn3   Zn    Zn3+2 0.439490 0.544930 0.432570 0.954907
Zn4   Zn    Zn3+2 0.565540 0.573040 0.573050 0.954464

loop_
_geom_bond_atom_site_label_1
_geom_bond_atom_site_label_2
_ccdc_geom_bond_type
C25   C31   A    
C1    C21   S    
O4    Zn3   S    
C27   C29   A    
C11   C13   A    
N1    N2    D    
C2    H15   S    
C6    C9    A    
C24   H20   S    
C7    C8    A    
C4    O9    A    
N3    N4    D    
C25   C28   S    
C16   O12   A    
O5    Zn1   S    
C30   H4    S    
C9    C42   A    
C29   C30   A    
C36   C37   A    
C19   C21   A    
C37   C38   A    
C8    C42   A    
O1    Zn2   S    
C12   C43   A    
C8    H9    S    
C5    C6    A    
O3    Zn4   S    
C11   H21   S    
C10   C17   A    
O9    Zn3   S    
C16   O6    A    
C33   C36   A    
C20   N2    S    
C19   H16   S    
C18   C19   A    
C3    I2    S    
C33   H22   S    
C37   H6    S    
C48   H1    S    
C20   C24   A    
C27   Cl2   S    
C1    O10   A    
C23   H13   S    
O10   Zn4   S    
C13   C14   A    
C40   O5    A    
C9    H2    S    
C39   C42   S    
C2    C45   A    
C32   C35   A    
C35   C38   A    
C34   C44   A    
O1    Zn3   S    
C47   H14   S    
C5    C7    A    
C25   C26   A    
C45   C46   A    
C43   C44   A    
C7    H12   S    
O1    Zn4   S    
C12   C41   A    
O8    Zn2   S    
C38   H7    S    
C47   C48   A    
C23   C34   A    
C15   H17   S    
C26   C27   A    
C34   C45   A    
O11   Zn1   S    
C26   H8    S    
O1    Zn1   S    
C43   H10   S    
C40   C41   S    
C22   C24   A    
C4    C10   S    
C32   H3    S    
O12   Zn2   S    
C4    O11   A    
C1    O8    A    
C15   C17   A    
C46   C47   A    
C17   H18   S    
C6    C46   A    
C40   O3    A    
C39   O4    A    
C3    C5    A    
C39   O2    A    
C35   N4    S    
C23   C41   A    
C32   C33   A    
C2    C3    A    
C14   N1    S    
O13   Zn3   S    
C12   H11   S    
O7    Zn4   S    
C30   C31   A    
C13   H19   S    
C28   O13   A    
C18   C20   A    
C10   C11   A    
C29   N3    S    
C28   O7    A    
C14   C15   A    
O6    Zn1   S    
C22   I1    S    
C31   H5    S    
O2    Zn2   S    
C21   C22   A    
C16   C36   S    
C44   C48   A    
C18   Cl1   S    
