data_mof_unit_40136.cif
_audit_creation_date              2012-12-11T15:24:40-0500
_audit_creation_method            fapswitch 2.2
_symmetry_space_group_name_H-M    P1
_symmetry_Int_Tables_number       1
_space_group_crystal_system       triclinic
_cell_length_a                    22.998926
_cell_length_b                    6.956856
_cell_length_c                    20.666639
_cell_angle_alpha                 90.000544
_cell_angle_beta                  93.227468
_cell_angle_gamma                 90.0
_cell_volume                      3301.42196779

loop_
_atom_site_label
_atom_site_type_symbol
_atom_type_description
_atom_site_fract_x
_atom_site_fract_y
_atom_site_fract_z
_atom_type_partial_charge
O1    O     O_R   0.188030 0.379840 0.189340 -0.539613
O2    O     O_R   0.811970 0.620160 0.810660 -0.539612
O3    O     O_R   0.311970 0.879840 0.310660 -0.539611
O4    O     O_R   0.688030 0.120160 0.689340 -0.539611
O5    O     O_R   0.307090 0.708420 0.185790 -0.536931
O6    O     O_R   0.692910 0.291580 0.814210 -0.536931
O7    O     O_R   0.192910 0.208420 0.314210 -0.536933
O8    O     O_R   0.807090 0.791580 0.685790 -0.536933
C1    C     C_R   0.326769 0.540766 0.170698 0.730152
C2    C     C_R   0.673231 0.459234 0.829301 0.730151
C3    C     C_R   0.173231 0.040767 0.329301 0.730148
C4    C     C_R   0.826769 0.959233 0.670698 0.730149
O9    O     O_R   0.188180 0.709480 0.181650 -0.542590
O10   O     O_R   0.811820 0.290520 0.818350 -0.542590
O11   O     O_R   0.311820 0.209480 0.318350 -0.542590
O12   O     O_R   0.688180 0.790520 0.681650 -0.542591
O13   O     O_R   0.192210 0.880960 0.306500 -0.535378
O14   O     O_R   0.807790 0.119040 0.693500 -0.535377
O15   O     O_R   0.307790 0.380960 0.193500 -0.535377
O16   O     O_R   0.692210 0.619040 0.806500 -0.535377
C5    C     C_R   0.167762 0.540591 0.165404 0.706716
C6    C     C_R   0.832238 0.459409 0.834596 0.706716
C7    C     C_R   0.332238 0.040592 0.334597 0.706719
C8    C     C_R   0.667762 0.959407 0.665403 0.706718
O17   O     O_3   0.251460 0.546730 0.290970 -0.369121
O18   O     O_3   0.748540 0.453270 0.709030 -0.369121
O19   O     O_3   0.248540 0.046730 0.209030 -0.369121
O20   O     O_3   0.751460 0.953270 0.790970 -0.369121
V1    V     V_3+5 0.249730 0.821120 0.242400 1.405372
V2    V     V_3+5 0.750270 0.178880 0.757600 1.405373
V3    V     V_3+5 0.250270 0.321120 0.257600 1.405371
V4    V     V_3+5 0.749730 0.678880 0.742400 1.405372
C9    C     C_R   0.576208 0.824196 0.612015 -0.237515
C10   C     C_R   0.423792 0.175801 0.387985 -0.237516
C11   C     C_R   0.923795 0.324207 0.887980 -0.237509
C12   C     C_R   0.076206 0.675799 0.112019 -0.237510
C13   C     C_R   0.618516 0.969623 0.615952 -0.075446
C14   C     C_R   0.381484 0.030375 0.384048 -0.075444
C15   C     C_R   0.881486 0.469629 0.884045 -0.075453
C16   C     C_R   0.118513 0.530371 0.115955 -0.075453
C17   C     C_R   0.613142 0.126235 0.573408 -0.222567
C18   C     C_R   0.386858 0.873761 0.426591 -0.222567
C19   C     C_R   0.886860 0.626241 0.926590 -0.222566
C20   C     C_R   0.113138 0.373751 0.073413 -0.222569
C21   C     C_R   0.566589 0.137339 0.526624 0.071818
C22   C     C_R   0.433412 0.862654 0.473374 0.071815
C23   C     C_R   0.933413 0.637348 0.973374 0.071819
C24   C     C_R   0.066585 0.362649 0.026628 0.071820
C25   C     C_R   0.523595 0.992637 0.523272 0.032014
C26   C     C_R   0.476406 0.007357 0.476726 0.032002
C27   C     C_R   0.976407 0.492643 0.976725 0.032004
C28   C     C_R   0.023593 0.507357 0.023275 0.032009
C29   C     C_R   0.527810 0.834055 0.566660 0.042271
C30   C     C_R   0.472190 0.165940 0.433339 0.042259
C31   C     C_R   0.972192 0.334063 0.933335 0.042290
C32   C     C_R   0.027808 0.665939 0.066665 0.042293
C33   C     C_R   0.562806 0.292517 0.483422 -0.197014
C34   C     C_R   0.437195 0.707475 0.516575 -0.197012
C35   C     C_R   0.937195 0.792525 0.016576 -0.197023
C36   C     C_R   0.062802 0.207468 0.983427 -0.197021
C37   C     C_R   0.516412 0.309427 0.436101 0.082843
C38   C     C_R   0.483588 0.690568 0.563898 0.082841
C39   C     C_R   0.983587 0.809430 0.063901 0.082831
C40   C     C_R   0.016412 0.190570 0.936100 0.082831
H1    H     H_    0.581130 0.705987 0.645827 0.120771
H2    H     H_    0.418870 0.294011 0.354173 0.120772
H3    H     H_    0.918874 0.206001 0.854165 0.120767
H4    H     H_    0.081128 0.794011 0.145831 0.120767
H5    H     H_    0.645825 0.238747 0.576198 0.123675
H6    H     H_    0.354175 0.761250 0.423801 0.123676
H7    H     H_    0.854176 0.738751 0.923801 0.123675
H8    H     H_    0.145819 0.261234 0.076204 0.123677
H9    H     H_    0.596770 0.399907 0.487416 0.118299
H10   H     H_    0.403232 0.600084 0.512581 0.118301
H11   H     H_    0.903233 0.899919 0.012580 0.118303
H12   H     H_    0.096762 0.100068 0.987424 0.118302
C41   C     C_3   0.044481 0.103003 0.526801 -0.139302
C42   C     C_3   0.955517 0.896997 0.473196 -0.139303
C43   C     C_3   0.455557 0.603272 0.973243 -0.139315
C44   C     C_3   0.544443 0.396728 0.026757 -0.139316
C45   C     C_3   0.020251 0.914532 0.554988 -0.139113
C46   C     C_3   0.979747 0.085468 0.445009 -0.139113
C47   C     C_3   0.479722 0.414827 0.944967 -0.139099
C48   C     C_3   0.520278 0.585173 0.055033 -0.139099
H13   H     H_    0.036727 0.843889 0.600571 0.107230
H14   H     H_    0.963271 0.156111 0.399427 0.107229
H15   H     H_    0.463225 0.344425 0.899349 0.107229
H16   H     H_    0.536775 0.655575 0.100651 0.107229
H17   H     H_    0.081378 0.188107 0.548700 0.107944
H18   H     H_    0.918620 0.811893 0.451297 0.107944
H19   H     H_    0.418693 0.688603 0.951380 0.107939
H20   H     H_    0.581307 0.311397 0.048619 0.107939
H21   H     H_    0.034008 0.675243 0.475442 0.110667
H22   H     H_    0.965990 0.324757 0.524555 0.110667
H23   H     H_    0.465876 0.175264 0.024394 0.110658
H24   H     H_    0.534124 0.824736 0.975606 0.110658
C49   C     C_1   0.872295 0.968867 0.624895 -0.194681
C50   C     C_1   0.127704 0.031133 0.375104 -0.194681
C51   C     C_1   0.627704 0.468871 0.875104 -0.194681
C52   C     C_1   0.372296 0.531129 0.124895 -0.194681
C53   C     C_3   0.981450 0.177898 0.513372 -0.140196
C54   C     C_3   0.018548 0.822102 0.486625 -0.140195
C55   C     C_3   0.518614 0.677881 0.986714 -0.140185
C56   C     C_3   0.481385 0.322119 0.013286 -0.140185
C57   C     C_3   0.957839 0.989564 0.540949 0.170867
C58   C     C_3   0.042160 0.010437 0.459049 0.170866
C59   C     C_3   0.542161 0.489571 0.959050 0.170867
C60   C     C_3   0.457839 0.510429 0.040950 0.170867
C61   C     C_1   0.910716 0.977898 0.586951 -0.066515
C62   C     C_1   0.089282 0.022102 0.413048 -0.066515
C63   C     C_1   0.589283 0.477903 0.913048 -0.066512
C64   C     C_1   0.410716 0.522097 0.086952 -0.066512
C65   C     C_3   0.513575 0.476070 0.387826 -0.354619
C66   C     C_3   0.563277 0.623772 0.394300 -0.309639
C67   C     C_3   0.554715 0.783372 0.343956 -0.762451
H25   H     H_    0.556415 0.723330 0.294297 0.221751
H26   H     H_    0.512094 0.855490 0.348567 0.239931
H27   H     H_    0.589802 0.892076 0.351456 0.219194
H28   H     H_    0.564668 0.689944 0.443210 0.206377
H29   H     H_    0.605587 0.551864 0.387097 0.190639
H30   H     H_    0.513108 0.414762 0.338104 0.169966
H31   H     H_    0.471961 0.554021 0.392972 0.184208
C68   C     C_3   0.486424 0.523933 0.612175 -0.354621
C69   C     C_3   0.436723 0.376226 0.605701 -0.309636
C70   C     C_3   0.445282 0.216651 0.656054 -0.762465
H32   H     H_    0.487907 0.144548 0.651457 0.239927
H33   H     H_    0.443570 0.276716 0.705708 0.221752
H34   H     H_    0.410200 0.107931 0.648551 0.219199
H35   H     H_    0.394412 0.448133 0.612894 0.190640
H36   H     H_    0.435339 0.310031 0.556794 0.206379
H37   H     H_    0.528039 0.445983 0.607032 0.184203
H38   H     H_    0.486888 0.585251 0.661895 0.169971
C71   C     C_3   0.986422 0.976068 0.112179 -0.354630
C72   C     C_3   0.936726 0.123793 0.105695 -0.309623
C73   C     C_3   0.945279 0.283370 0.156051 -0.762452
H39   H     H_    0.943518 0.223324 0.205702 0.221746
H40   H     H_    0.987926 0.355375 0.151493 0.239920
H41   H     H_    0.910223 0.392167 0.148513 0.219204
H42   H     H_    0.935354 0.189984 0.056789 0.206381
H43   H     H_    0.894409 0.051902 0.112878 0.190634
H44   H     H_    0.986879 0.914759 0.161900 0.169981
H45   H     H_    0.028039 0.054005 0.107041 0.184190
C74   C     C_3   0.013576 0.023932 0.887822 -0.354629
C75   C     C_3   0.063274 0.876213 0.894303 -0.309625
C76   C     C_3   0.054721 0.716636 0.843948 -0.762450
H46   H     H_    0.012078 0.644615 0.848511 0.239920
H47   H     H_    0.056475 0.776686 0.794297 0.221746
H48   H     H_    0.089781 0.607852 0.851480 0.219202
H49   H     H_    0.105589 0.948111 0.887119 0.190635
H50   H     H_    0.064649 0.810021 0.943210 0.206378
H51   H     H_    0.971960 0.945991 0.892961 0.184193
H52   H     H_    0.013118 0.085241 0.838101 0.169979

loop_
_geom_bond_atom_site_label_1
_geom_bond_atom_site_label_2
_ccdc_geom_bond_type
C34   C38   A    
C73   H41   S    
C47   H15   S    
O1    C5    A    
C50   C62   T    
C68   H38   S    
O19   V1    S    
O13   V1    S    
O3    C7    A    
C18   H6    S    
C44   C48   S    
O15   V3    S    
C10   H2    S    
C66   C67   S    
C9    H1    S    
C68   C69   S    
C42   H18   S    
O7    C3    A    
C44   C59   S    
C21   C33   A    
C71   H45   S    
C26   C30   A    
C69   H35   S    
C44   C56   S    
C3    C50   S    
C39   C71   S    
O9    V1    S    
C41   C58   S    
C14   C18   A    
C24   C28   A    
C76   H46   S    
O4    C8    A    
C42   C54   S    
C74   C75   S    
O1    V3    S    
O2    V4    S    
C18   C22   A    
C33   H9    S    
O3    V1    S    
C12   C16   A    
C75   H50   S    
C41   C53   S    
C1    O15   A    
C65   H31   S    
H22   C53   S    
C2    O16   A    
C67   H26   S    
O2    C6    A    
C70   H34   S    
C54   C58   S    
O14   V2    S    
C21   C25   A    
C43   H19   S    
C66   H28   S    
C45   H13   S    
C74   H51   S    
O12   C8    A    
C22   C34   A    
O17   V1    S    
C43   C55   S    
O10   V2    S    
O20   V4    S    
C38   C68   S    
C76   H47   S    
C24   C36   A    
O5    V1    S    
C45   C54   S    
C9    C29   A    
C45   C57   S    
C53   C57   S    
O7    V3    S    
C47   C56   S    
O19   V3    S    
C27   C28   A    
O8    V4    S    
C73   H39   S    
C72   H42   S    
O18   V4    S    
C15   C19   A    
C46   H14   S    
C11   C31   A    
C36   H12   S    
C9    C13   A    
C60   C64   S    
C44   H20   S    
C11   C15   A    
O5    C1    A    
C75   H49   S    
C12   C32   A    
C49   C61   T    
C29   C38   A    
C42   C46   S    
C41   C45   S    
O8    C4    A    
C67   H27   S    
C51   C63   T    
C31   C40   A    
C8    C13   S    
C32   C39   A    
C69   H36   S    
C33   C37   A    
C4    C49   S    
C74   H52   S    
O6    V2    S    
C52   C64   T    
C1    C52   S    
C42   C57   S    
C37   C65   S    
C70   H32   S    
C35   H11   S    
C56   C60   S    
C76   H48   S    
H23   C56   S    
C34   H10   S    
C17   H5    S    
C65   C66   S    
O16   V4    S    
C73   H40   S    
C57   C61   S    
C3    O13   A    
C19   H7    S    
C68   H37   S    
C10   C14   A    
C59   C63   S    
O17   V3    S    
C48   H16   S    
C75   C76   S    
C30   C37   A    
H21   C54   S    
O6    C2    A    
C23   C27   A    
C12   H4    S    
O11   V3    S    
C72   C73   S    
C41   H17   S    
C40   C74   S    
O12   V4    S    
C7    C14   S    
C22   C26   A    
C35   C39   A    
C36   C40   A    
O10   C6    A    
O20   V2    S    
C20   C24   A    
O9    C5    A    
C43   C47   S    
C10   C30   A    
C71   C72   S    
C5    C16   S    
C25   C29   A    
C6    C15   S    
O11   C7    A    
C48   C60   S    
C46   C53   S    
C47   C59   S    
C43   C60   S    
C20   H8    S    
C27   C31   A    
C46   C58   S    
C13   C17   A    
C2    C51   S    
O4    V2    S    
C11   H3    S    
C23   C35   A    
C28   C32   A    
C16   C20   A    
C65   H30   S    
C72   H43   S    
C58   C62   S    
C25   C26   A    
H24   C55   S    
C4    O14   A    
C70   H33   S    
C48   C55   S    
C17   C21   A    
C55   C59   S    
C71   H44   S    
C19   C23   A    
C66   H29   S    
C67   H25   S    
C69   C70   S    
O18   V2    S    
