data_mof_unit_33279.cif
_audit_creation_date              2012-12-11T15:30:35-0500
_audit_creation_method            fapswitch 2.2
_symmetry_space_group_name_H-M    P1
_symmetry_Int_Tables_number       1
_space_group_crystal_system       triclinic
_cell_length_a                    6.954764
_cell_length_b                    20.466736
_cell_length_c                    24.431834
_cell_angle_alpha                 89.701839
_cell_angle_beta                  90.487531
_cell_angle_gamma                 89.479777
_cell_volume                      3477.34173195

loop_
_atom_site_label
_atom_site_type_symbol
_atom_type_description
_atom_site_fract_x
_atom_site_fract_y
_atom_site_fract_z
_atom_type_partial_charge
O1    O     O_R   0.507310 0.423620 0.460450 -0.537045
O2    O     O_R   0.170760 0.556060 0.437190 -0.534685
O3    O     O_R   0.004040 0.576380 0.539550 -0.536074
C1    C     C_R   0.338768 0.576191 0.421243 0.720722
O4    O     O_R   0.177350 0.422870 0.454070 -0.538791
O5    O     O_R   0.010680 0.442240 0.556560 -0.536074
C2    C     C_R   0.346232 0.398984 0.443374 0.691244
O6    O     O_R   0.500670 0.557760 0.443440 -0.536562
O7    O     O_3   0.340380 0.506510 0.533610 -0.365204
V1    V     V_3+5 0.064130 0.498790 0.493770 1.428875
O8    O     O_R   0.681170 0.443940 0.562810 -0.534332
C3    C     C_R   0.850881 0.423936 0.578674 0.720947
O9    O     O_R   0.674570 0.577130 0.545930 -0.537358
C4    C     C_R   0.842775 0.600974 0.556664 0.697309
V2    V     V_3+5 0.564560 0.501210 0.506230 1.432427
O10   O     O_3   0.838170 0.493490 0.466390 -0.367914
C5    C     C_R   0.975811 0.838208 0.911204 -0.040285
C6    C     C_R   0.848051 0.661604 0.588923 -0.042059
C7    C     C_R   0.032434 0.721709 0.906466 -0.164040
C8    C     C_R   0.026075 0.779196 0.936578 -0.169910
C9    C     C_R   0.932586 0.839484 0.854849 -0.215871
C10   C     C_R   0.941162 0.781483 0.822786 0.086728
C11   C     C_R   0.991688 0.722310 0.850090 0.141141
C12   C     C_R   0.903818 0.780065 0.764817 0.059173
C13   C     C_R   0.917879 0.719506 0.735471 0.057569
C14   C     C_R   0.967575 0.662377 0.765138 -0.186819
C15   C     C_R   0.003270 0.663947 0.821093 -0.204432
C16   C     C_R   0.853437 0.837152 0.735191 -0.189157
C17   C     C_R   0.817837 0.835606 0.679241 -0.205023
C18   C     C_R   0.830329 0.777319 0.650191 0.142585
C19   C     C_R   0.881090 0.718145 0.677467 0.085994
C20   C     C_R   0.790223 0.778008 0.593784 -0.164820
C21   C     C_R   0.797516 0.720609 0.563592 -0.169277
C22   C     C_R   0.890619 0.660228 0.645324 -0.213818
H1    H     H_    0.041549 0.618705 0.841939 0.120941
H2    H     H_    0.926563 0.613179 0.662723 0.097648
H3    H     H_    0.762595 0.722136 0.520292 0.105388
H4    H     H_    0.779048 0.880820 0.658430 0.118721
H5    H     H_    0.071719 0.676566 0.927278 0.110504
H6    H     H_    0.061397 0.777723 0.979853 0.103436
H7    H     H_    0.897017 0.886542 0.837414 0.091450
H8    H     H_    0.980668 0.615144 0.746308 0.126973
H9    H     H_    0.839532 0.884333 0.754058 0.120413
H10   H     H_    0.750721 0.823150 0.573005 0.109254
C23   C     C_3   0.808380 0.270712 0.810656 0.135462
C24   C     C_3   0.126778 0.233384 0.774363 -0.414148
C25   C     C_3   0.106599 0.284301 0.726998 -0.416287
H11   H     H_    0.900196 0.296251 0.841204 0.112035
H12   H     H_    0.216508 0.191365 0.760581 0.162855
H13   H     H_    0.203783 0.255931 0.809523 0.173945
H14   H     H_    0.173295 0.331132 0.739111 0.181739
H15   H     H_    0.190460 0.266702 0.691278 0.172000
C26   C     C_1   0.863368 0.378850 0.624596 -0.181607
C27   C     C_3   0.926165 0.208929 0.792521 0.151350
C28   C     C_3   0.770861 0.318712 0.760497 0.605386
C29   C     C_3   0.891846 0.294234 0.709881 0.152782
C30   C     C_3   0.820446 0.225522 0.692412 -0.396894
C31   C     C_3   0.829361 0.177059 0.741642 -0.372796
C32   C     C_1   0.875721 0.340862 0.662879 0.016909
C33   C     C_1   0.946655 0.160794 0.838280 -0.021799
C34   C     C_1   0.960634 0.121914 0.875905 -0.185813
H16   H     H_    0.682236 0.160080 0.751249 0.128249
H17   H     H_    0.912850 0.132854 0.729570 0.161559
H18   H     H_    0.672454 0.227884 0.674961 0.146940
H19   H     H_    0.912609 0.206374 0.658965 0.161384
C35   C     C_3   0.602197 0.726537 0.285127 -0.392269
C36   C     C_3   0.319038 0.678421 0.236175 -0.308795
C37   C     C_3   0.346337 0.727816 0.188193 -0.333605
H20   H     H_    0.731284 0.755208 0.206990 0.157786
H21   H     H_    0.689965 0.681848 0.277354 0.175876
H22   H     H_    0.164958 0.664640 0.238682 0.173441
H23   H     H_    0.402056 0.632899 0.227700 0.125481
H24   H     H_    0.441551 0.705635 0.156832 0.138987
H25   H     H_    0.204847 0.737889 0.168099 0.144028
C38   C     C_1   0.475510 0.878332 0.124735 -0.196620
C39   C     C_3   0.387196 0.708061 0.291346 0.249174
C40   C     C_3   0.629634 0.776155 0.237303 -0.324060
C41   C     C_3   0.434510 0.792631 0.208981 0.239330
C42   C     C_3   0.297444 0.821245 0.252779 -0.363454
C43   C     C_3   0.271312 0.772300 0.301514 0.242251
C44   C     C_1   0.459791 0.839935 0.162728 -0.081173
C45   C     C_1   0.363605 0.660385 0.337477 -0.045767
C46   C     C_1   0.348569 0.621825 0.375377 -0.188378
H26   H     H_    0.327712 0.795147 0.339743 0.057236
H27   H     H_    0.356443 0.867897 0.268641 0.105677
H28   H     H_    0.656529 0.748186 0.323911 0.154430
H29   H     H_    0.695517 0.821600 0.253415 0.145096
H30   H     H_    0.155666 0.833100 0.233479 0.158045
C47   C     C_R   0.472117 0.161752 0.088852 -0.045602
C48   C     C_R   0.352389 0.338304 0.411138 -0.040870
C49   C     C_R   0.531773 0.277693 0.094170 -0.161585
C50   C     C_R   0.523534 0.220416 0.063858 -0.164013
C51   C     C_R   0.429499 0.160623 0.145044 -0.215942
C52   C     C_R   0.440221 0.218388 0.177335 0.087088
C53   C     C_R   0.492049 0.277194 0.150404 0.139495
C54   C     C_R   0.404079 0.219892 0.235195 0.059070
C55   C     C_R   0.420451 0.280175 0.264787 0.058418
C56   C     C_R   0.471796 0.336908 0.235499 -0.188776
C57   C     C_R   0.506313 0.335261 0.179656 -0.203208
C58   C     C_R   0.352743 0.163157 0.264483 -0.189496
C59   C     C_R   0.318233 0.164802 0.320324 -0.205596
C60   C     C_R   0.332490 0.222869 0.349576 0.142486
C61   C     C_R   0.384305 0.281679 0.322649 0.086378
C62   C     C_R   0.292766 0.222362 0.405808 -0.165507
C63   C     C_R   0.300990 0.279634 0.436123 -0.170248
C64   C     C_R   0.395003 0.339443 0.354944 -0.216017
H31   H     H_    0.545935 0.380194 0.159106 0.120191
H32   H     H_    0.431189 0.386266 0.337763 0.092657
H33   H     H_    0.265838 0.278298 0.479237 0.103184
H34   H     H_    0.278619 0.119867 0.340873 0.118345
H35   H     H_    0.572086 0.322549 0.073652 0.114814
H36   H     H_    0.558672 0.221746 0.020743 0.119894
H37   H     H_    0.393281 0.113803 0.162225 0.092539
H38   H     H_    0.487302 0.383869 0.254564 0.121136
H39   H     H_    0.337241 0.116196 0.245420 0.120670
H40   H     H_    0.252458 0.177503 0.426321 0.109049
O11   O     O_R   0.323590 0.942280 0.056590 -0.535617
O12   O     O_R   0.647030 0.077140 0.045940 -0.537544
O13   O     O_R   0.813570 0.057750 0.943430 -0.532838
C65   C     C_R   0.478187 0.101063 0.056628 0.698167
O14   O     O_R   0.653510 0.943950 0.062820 -0.537776
O15   O     O_R   0.820100 0.923600 0.960440 -0.536803
C66   C     C_R   0.485483 0.923849 0.078789 0.722700
O16   O     O_R   0.317060 0.076430 0.039590 -0.535399
O17   O     O_3   0.483830 0.993520 0.966410 -0.366779
V3    V     V_3+5 0.760140 0.001200 0.006230 1.425308
O18   O     O_R   0.149560 0.922820 0.954030 -0.538359
C67   C     C_R   0.981329 0.898918 0.943385 0.691297
O19   O     O_R   0.143080 0.056020 0.937150 -0.537983
C68   C     C_R   0.973365 0.076138 0.921362 0.724915
V4    V     V_3+5 0.259690 0.998730 0.993720 1.424732
O20   O     O_3   0.986120 0.006480 0.033580 -0.367357
N1    N     N_2   0.829707 0.384929 0.775370 -0.519206
H41   H     H_    0.971493 0.389370 0.787179 0.216314
C69   C     C_3   0.702376 0.421858 0.810592 -0.456599
H42   H     H_    0.764288 0.470820 0.818339 0.163639
H43   H     H_    0.684768 0.396346 0.850438 0.196520
H44   H     H_    0.559740 0.429301 0.790666 0.232793
O21   O     O_3   0.637882 0.255818 0.838844 -0.643253
H45   H     H_    0.575482 0.218040 0.821177 0.284349
O22   O     O_3   0.573989 0.321240 0.745505 -0.636040
H46   H     H_    0.523239 0.276343 0.743341 0.276790
O23   O     O_3   0.075538 0.758207 0.308393 -0.652926
H47   H     H_    0.014997 0.797857 0.324253 0.272536

loop_
_geom_bond_atom_site_label_1
_geom_bond_atom_site_label_2
_ccdc_geom_bond_type
C31   H16   S    
C69   H44   S    
C28   C29   S    
C13   C19   A    
C51   C52   A    
C28   O22   S    
C4    C6    S    
H20   C40   S    
C7    C8    A    
C43   H26   S    
C5    C8    A    
C55   C56   A    
C26   C32   T    
C69   H42   S    
C27   C33   S    
C40   C41   S    
C24   H12   S    
C14   C15   A    
C59   C60   A    
C38   C66   S    
C16   C17   A    
O5    C3    A    
C18   C19   A    
C8    H6    S    
C53   C57   A    
C56   H38   S    
C37   H25   S    
V2    O10   S    
C23   O21   S    
O13   C68   A    
C29   C30   S    
C36   H23   S    
C49   H35   S    
C62   C63   A    
C62   H40   S    
O8    V2    S    
C17   H4    S    
O1    V2    S    
C11   C15   A    
O7    V1    S    
C22   H2    S    
C3    C26   S    
C1    O6    A    
C37   H24   S    
O9    C4    A    
O15   C67   A    
C52   C53   A    
C58   H39   S    
C42   H30   S    
C13   C14   A    
O12   C65   A    
C37   C41   S    
C36   C37   S    
C39   C43   S    
C12   C13   A    
C48   C64   A    
C39   C45   S    
C49   C50   A    
O4    C2    A    
C41   C42   S    
C38   C44   T    
C25   H14   S    
C15   H1    S    
C59   H34   S    
C28   N1    S    
C2    C48   S    
C5    C9    A    
O16   V4    S    
C33   C34   T    
O15   V3    S    
C7    C11   A    
O5    V1    S    
C17   C18   A    
O17   V4    S    
C47   C65   S    
V3    O20   S    
O21   H45   S    
C43   O23   S    
C35   C39   S    
C54   C55   A    
C24   C27   S    
C20   H10   S    
C19   C22   A    
C51   H37   S    
C47   C50   A    
C52   C54   A    
C6    C22   A    
C40   H29   S    
C55   C61   A    
O3    C4    A    
C7    H5    S    
C34   C68   S    
C9    H7    S    
C23   C27   S    
C45   C46   T    
O6    V2    S    
O9    V2    S    
O17   V3    S    
C10   C12   A    
O18   C67   A    
O2    V1    S    
C42   H27   S    
C14   H8    S    
C30   H18   S    
C21   H3    S    
O19   C68   A    
C27   C31   S    
C23   H11   S    
C31   H17   S    
C69   H43   S    
C35   C40   S    
C63   H33   S    
C24   C25   S    
O1    C2    A    
C50   H36   S    
C12   C16   A    
C48   C63   A    
C30   H19   S    
C35   H28   S    
O8    C3    A    
C5    C67   S    
C25   H15   S    
C57   H31   S    
C24   H13   S    
C16   H9    S    
C29   C32   S    
C60   C62   A    
C20   C21   A    
O23   H47   S    
O11   C66   A    
O4    V1    S    
O3    V1    S    
V1    O10   S    
O22   H46   S    
C18   C20   A    
C41   C44   S    
C30   C31   S    
N1    H41   S    
C1    C46   S    
C64   H32   S    
O2    C1    A    
C54   C58   A    
C58   C59   A    
C61   C64   A    
C36   H22   S    
C47   C51   A    
C60   C61   A    
O11   V4    S    
C6    C21   A    
O18   V4    S    
O14   C66   A    
C49   C53   A    
C42   C43   S    
O13   V3    S    
C65   O16   A    
O14   V3    S    
C35   H21   S    
C23   C28   S    
C56   C57   A    
N1    C69   S    
C10   C11   A    
C36   C39   S    
O12   V3    S    
C9    C10   A    
V4    O20   S    
O7    V2    S    
C25   C29   S    
O19   V4    S    
