data_mof_unit_12498.cif
_audit_creation_date              2013-03-05T16:09:06-0500
_audit_creation_method            fapswitch 2.2
_symmetry_space_group_name_H-M    P1
_symmetry_Int_Tables_number       1
_space_group_crystal_system       triclinic
_cell_length_a                    18.212208
_cell_length_b                    7.091705
_cell_length_c                    13.001157
_cell_angle_alpha                 90.086271
_cell_angle_beta                  72.139493
_cell_angle_gamma                 89.908135
_cell_volume                      1598.24076972

loop_
_atom_site_label
_atom_site_type_symbol
_atom_site_description
_atom_site_fract_x
_atom_site_fract_y
_atom_site_fract_z
_atom_type_partial_charge
O1    O     O_R   0.453880 0.506200 0.150010 -0.586643
O2    O     O_R   0.546120 0.006200 0.849990 -0.590894
O3    O     O_R   0.604080 0.177770 0.007280 -0.579315
O4    O     O_R   0.395920 0.677770 0.992720 -0.566156
C1    C     C_R   0.635950 0.344419 0.001907 0.983648
C2    C     C_R   0.364037 0.844610 0.998175 0.985820
O5    O     O_R   0.458010 0.176640 0.159130 -0.580940
O6    O     O_R   0.541990 0.676640 0.840870 -0.577605
O7    O     O_R   0.399010 0.004010 0.002930 -0.592329
O8    O     O_R   0.600990 0.504010 0.997070 -0.578410
C3    C     C_R   0.443122 0.345424 0.201716 0.998602
C4    C     C_R   0.556844 0.844978 0.798207 0.999375
O9    O     O_3   0.480810 0.338440 0.948570 -0.257266
O10   O     O_3   0.519190 0.838440 0.051430 -0.256131
V1    V     V_3+5 0.503560 0.064490 0.009540 1.290495
V2    V     V_3+5 0.496440 0.564490 0.990460 1.302026
C5    C     C_R   0.578509 0.823211 0.502473 0.891754
C6    C     C_R   0.420968 0.404114 0.495959 0.890327
H1    H     H_    0.483680 0.804848 0.648651 0.182947
H2    H     H_    0.515805 0.413112 0.349423 0.180687
C7    C     C_R   0.591169 0.851167 0.681033 -0.259531
C8    C     C_R   0.408523 0.355759 0.318654 -0.256025
C9    C     C_R   0.951588 0.858353 0.384535 -0.303727
C10   C     C_R   0.048089 0.350213 0.615739 -0.305107
C11   C     C_R   0.920867 0.836686 0.496150 0.329277
C12   C     C_R   0.078651 0.360171 0.503556 0.331233
C13   C     C_R   0.840432 0.820036 0.542124 0.665082
C14   C     C_R   0.158942 0.378231 0.456817 0.665829
C15   C     C_R   0.789650 0.844391 0.478480 -0.155244
C16   C     C_R   0.209953 0.366630 0.520941 -0.156051
C17   C     C_R   0.822546 0.855705 0.364116 -0.190722
C18   C     C_R   0.177173 0.365809 0.635535 -0.191309
C19   C     C_R   0.707388 0.850476 0.524326 0.081758
C20   C     C_R   0.292256 0.363617 0.475165 0.081038
C21   C     C_R   0.659472 0.841674 0.455695 -0.346347
C22   C     C_R   0.340114 0.384021 0.543313 -0.345892
C23   C     C_R   0.693414 0.850693 0.342665 0.239146
C24   C     C_R   0.306261 0.384232 0.656451 0.239451
C25   C     C_R   0.773433 0.860437 0.298257 0.598582
C26   C     C_R   0.226324 0.373102 0.701279 0.599114
C27   C     C_R   0.670786 0.870638 0.636690 -0.100446
C28   C     C_R   0.329029 0.334777 0.363534 -0.101291
C29   C     C_R   0.545433 0.823635 0.614160 -0.181348
C30   C     C_R   0.454105 0.394128 0.384455 -0.184253
C31   C     C_R   0.904069 0.861134 0.318479 -0.166491
C32   C     C_R   0.095697 0.359406 0.681528 -0.166004
H3    H     H_    0.702216 0.905153 0.692115 0.190075
H4    H     H_    0.297965 0.290689 0.309306 0.189578
H5    H     H_    0.013535 0.867637 0.347767 0.192285
H6    H     H_    0.986179 0.341071 0.652938 0.191210
C33   C     C_1   0.216317 0.858683 0.000246 -0.119491
C34   C     C_1   0.783657 0.358892 0.999849 -0.118770
C35   C     C_1   0.283619 0.852751 0.999066 -0.128588
C36   C     C_1   0.716356 0.352446 0.001069 -0.132671
O11   O     O_R   0.899030 0.205490 0.002790 -0.569725
O12   O     O_R   0.100970 0.705490 0.997210 -0.565799
O13   O     O_R   0.042000 0.536370 0.840840 -0.581252
O14   O     O_R   0.958000 0.036370 0.159160 -0.581467
C37   C     C_R   0.057785 0.367970 0.798300 1.100211
C38   C     C_R   0.942072 0.868593 0.201704 1.100770
O15   O     O_R   0.895930 0.535070 0.992690 -0.565293
O16   O     O_R   0.104070 0.035070 0.007310 -0.569228
O17   O     O_R   0.953870 0.707520 0.150040 -0.585294
O18   O     O_R   0.046130 0.207520 0.849960 -0.585262
C39   C     C_R   0.864114 0.366853 0.998769 0.957463
C40   C     C_R   0.135873 0.866670 0.001263 0.957804
O19   O     O_3   0.019200 0.374340 0.051340 -0.261408
O20   O     O_3   0.980800 0.874340 0.948660 -0.262725
V3    V     V_3+5 0.996440 0.648350 0.990470 1.323860
V4    V     V_3+5 0.003560 0.148350 0.009530 1.318927
N1    N     N_R   0.647342 0.862119 0.270945 0.294095
O21   O     O_R   0.658259 0.742210 0.191758 -0.346660
O22   O     O_R   0.604873 0.010698 0.272920 -0.355614
N2    N     N_R   0.352428 0.383941 0.728222 0.293635
O23   O     O_R   0.341021 0.511444 0.803608 -0.354236
O24   O     O_R   0.395604 0.238567 0.730604 -0.349578
F1    F     F_    0.530720 0.797279 0.441574 -0.666965
F2    F     F_    0.468626 0.439476 0.555961 -0.669748
F3    F     F_    0.813868 0.759286 0.645773 -0.680516
F4    F     F_    0.184897 0.428566 0.351272 -0.680870
N3    N     N_R   0.971888 0.827239 0.561947 0.251116
O25   O     O_R   0.046348 0.822327 0.517134 -0.410100
O26   O     O_R   0.945029 0.835861 0.666854 -0.333406
N4    N     N_R   0.027583 0.357468 0.437731 0.251277
O27   O     O_R   0.953196 0.368287 0.482244 -0.407495
O28   O     O_R   0.054277 0.331625 0.333737 -0.335164
F5    F     F_    0.802071 0.877446 0.189122 -0.678251
F6    F     F_    0.197826 0.366535 0.810817 -0.677448

loop_
_geom_bond_atom_site_label_1
_geom_bond_atom_site_label_2
_geom_bond_distance
_ccdc_geom_bond_type
C16   C18   1.424985 A    
C31   C38   1.463768 S    
C9    C31   1.393843 A    
C32   C37   1.463505 S    
C13   C15   1.427999 A    
C20   C28   1.413917 A    
C25   F5    1.358898 S    
O2    C4    1.309551 A    
C2    O7    1.309051 A    
N3    O25   1.301846 A    
O5    C3    1.310599 A    
O19   V3    2.185724 S    
C37   O18   1.306335 A    
N2    O24   1.301749 A    
C38   O17   1.307867 A    
C21   C23   1.410285 A    
N4    O28   1.301435 A    
C13   F3    1.355766 S    
C9    H5    1.084053 S    
O14   C38   1.307834 A    
C15   C19   1.433039 A    
O16   V4    1.989916 S    
O11   C39   1.317136 A    
C7    C29   1.389995 A    
C8    C30   1.389504 A    
O17   V3    2.022581 S    
H1    C29   1.083966 S    
O20   V3    1.743917 S    
O1    C3    1.308636 A    
O18   V4    2.024390 S    
O6    C4    1.310344 A    
O5    V1    2.026506 S    
O6    V2    2.029847 S    
C11   N3    1.444723 S    
N3    O26   1.301418 A    
C34   C36   1.221861 T    
C10   H6    1.084075 S    
N2    O23   1.301231 A    
C16   C20   1.433194 A    
C1    C36   1.462254 S    
N4    O27   1.301831 A    
O4    C2    1.309348 A    
N1    O22   1.301630 A    
O16   C40   1.318123 A    
O14   V4    2.029828 S    
C4    C7    1.459309 S    
C33   C35   1.221761 T    
C33   C40   1.462058 S    
O4    V2    1.989945 S    
C5    C29   1.390973 A    
C6    C30   1.390571 A    
C6    F2    1.356542 S    
C5    F1    1.356827 S    
C27   H3    1.076907 S    
O1    V2    2.022844 S    
C28   H4    1.076788 S    
O2    V1    2.021059 S    
C7    C27   1.393582 A    
O20   V4    2.184787 S    
H2    C30   1.083973 S    
C23   N1    1.435267 S    
C2    C35   1.462116 S    
O3    V1    1.992349 S    
C24   N2    1.434898 S    
O15   V3    1.992322 S    
C12   N4    1.444303 S    
C18   C32   1.420391 A    
C10   C12   1.394464 A    
O3    C1    1.309988 A    
C11   C13   1.407410 A    
C3    C8    1.457981 S    
C12   C14   1.407016 A    
O19   V4    1.743251 S    
C19   C27   1.414445 A    
C26   F6    1.358885 S    
C14   C16   1.428255 A    
O7    V1    1.979840 S    
C10   C32   1.393756 A    
N1    O21   1.301468 A    
C23   C25   1.395073 A    
O8    V2    1.978575 S    
C24   C26   1.394770 A    
C8    C28   1.393332 A    
O12   C40   1.317610 A    
C22   C24   1.409767 A    
C19   C21   1.428017 A    
C17   C25   1.415656 A    
C20   C22   1.428067 A    
C18   C26   1.415586 A    
C14   F4    1.355725 S    
O11   V4    1.973828 S    
O13   C37   1.309249 A    
O15   C39   1.318907 A    
C1    O8    1.308712 A    
C9    C11   1.394742 A    
C15   C17   1.424865 A    
O12   V3    1.975028 S    
C17   C31   1.420492 A    
O9    V2    1.743971 S    
O10   V1    1.744639 S    
C5    C21   1.418453 A    
O13   V3    2.026490 S    
C6    C22   1.418631 A    
C34   C39   1.462241 S    
