data_mof_unit_25666.cif
_audit_creation_date              2013-03-05T16:00:42-0500
_audit_creation_method            fapswitch 2.2
_symmetry_space_group_name_H-M    P1
_symmetry_Int_Tables_number       1
_space_group_crystal_system       triclinic
_cell_length_a                    6.921083
_cell_length_b                    31.384439
_cell_length_c                    35.04147
_cell_angle_alpha                 89.993171
_cell_angle_beta                  90.045535
_cell_angle_gamma                 90.038857
_cell_volume                      7611.50442259

loop_
_atom_site_label
_atom_site_type_symbol
_atom_site_description
_atom_site_fract_x
_atom_site_fract_y
_atom_site_fract_z
_atom_type_partial_charge
O1    O     O_R   0.417270 0.211480 0.210950 -0.600499
O2    O     O_R   0.582730 0.788520 0.789050 -0.586906
O3    O     O_R   0.582730 0.788520 0.710950 -0.601467
O4    O     O_R   0.417270 0.211480 0.289050 -0.584848
O5    O     O_R   0.917270 0.288520 0.289050 -0.596498
O6    O     O_R   0.082730 0.711480 0.710950 -0.584768
O7    O     O_R   0.082730 0.711480 0.789050 -0.598306
O8    O     O_R   0.917270 0.288520 0.210950 -0.583781
O9    O     O_R   0.746940 0.206370 0.288750 -0.601363
O10   O     O_R   0.253060 0.793630 0.711250 -0.582850
O11   O     O_R   0.253060 0.793630 0.788750 -0.597683
O12   O     O_R   0.746940 0.206370 0.211250 -0.582187
O13   O     O_R   0.246940 0.293630 0.211250 -0.596111
O14   O     O_R   0.753060 0.706370 0.788750 -0.583121
O15   O     O_R   0.753060 0.706370 0.711250 -0.597914
O16   O     O_R   0.246940 0.293630 0.288750 -0.603676
C1    C     C_R   0.578007 0.196306 0.302339 0.974464
C2    C     C_R   0.421781 0.803733 0.697765 0.978113
C3    C     C_R   0.422246 0.803896 0.802246 0.973174
C4    C     C_R   0.578101 0.196285 0.197761 0.979867
C5    C     C_R   0.077976 0.303589 0.197548 0.980987
C6    C     C_R   0.921776 0.696103 0.802172 0.973385
C7    C     C_R   0.921905 0.696364 0.697581 0.977890
C8    C     C_R   0.078478 0.303695 0.302335 0.972014
O17   O     O_3   0.583760 0.276950 0.250000 -0.271707
O18   O     O_3   0.416240 0.723050 0.750000 -0.265436
O19   O     O_3   0.083760 0.223050 0.250000 -0.266814
O20   O     O_3   0.916240 0.776950 0.750000 -0.267728
V1    V     V_3+5 0.858600 0.245000 0.250000 1.176040
V2    V     V_3+5 0.141400 0.755000 0.750000 1.181925
V3    V     V_3+5 0.358600 0.255000 0.250000 1.169461
V4    V     V_3+5 0.641400 0.745000 0.750000 1.181610
C9    C     C_R   0.958647 0.588445 0.536619 0.535764
C10   C     C_R   0.000943 0.411600 0.462542 0.529682
C11   C     C_R   0.040069 0.410660 0.036117 0.535920
C12   C     C_R   0.991578 0.587122 0.961454 0.527633
C13   C     C_R   0.462162 0.912606 0.962484 0.534910
C14   C     C_R   0.506013 0.089058 0.037312 0.526698
C15   C     C_R   0.539093 0.088407 0.463307 0.533054
C16   C     C_R   0.486233 0.911705 0.537499 0.526312
N1    N     N_R   0.947030 0.574594 0.573716 -0.169676
N2    N     N_R   0.014146 0.425486 0.425480 -0.170139
N3    N     N_R   0.050922 0.424684 0.073171 -0.169724
N4    N     N_R   0.979908 0.573078 0.924425 -0.170070
N5    N     N_R   0.448407 0.926643 0.925467 -0.169641
N6    N     N_R   0.521166 0.074966 0.074289 -0.170817
N7    N     N_R   0.547724 0.074547 0.426174 -0.170258
N8    N     N_R   0.475977 0.925610 0.574597 -0.170603
C17   C     C_R   0.951613 0.531887 0.582180 0.603372
C18   C     C_R   0.018584 0.468226 0.417157 0.597309
C19   C     C_R   0.044632 0.467407 0.081493 0.603244
C20   C     C_R   0.977157 0.530316 0.916212 0.600384
C21   C     C_R   0.451886 0.969400 0.917187 0.603947
C22   C     C_R   0.527235 0.032182 0.082383 0.596607
C23   C     C_R   0.538333 0.031863 0.417728 0.602700
C24   C     C_R   0.473923 0.968374 0.582886 0.597451
C25   C     C_R   0.963980 0.501314 0.552807 -0.081382
C26   C     C_R   0.004352 0.498778 0.446504 -0.082465
C27   C     C_R   0.031113 0.497836 0.052017 -0.081100
C28   C     C_R   0.991798 0.499890 0.945671 -0.083287
C29   C     C_R   0.465489 0.999826 0.946679 -0.081816
C30   C     C_R   0.512144 0.001791 0.052912 -0.081815
C31   C     C_R   0.524641 0.001327 0.447128 -0.079824
C32   C     C_R   0.488798 0.998886 0.553500 -0.081731
C33   C     C_R   0.975999 0.515122 0.514635 0.005485
C34   C     C_R   0.989892 0.484951 0.484637 0.004321
C35   C     C_R   0.019954 0.483857 0.013882 0.005381
C36   C     C_R   0.005130 0.513884 0.983778 0.004673
C37   C     C_R   0.479947 0.985816 0.984764 0.005213
C38   C     C_R   0.495271 0.015826 0.014875 0.004430
C39   C     C_R   0.515582 0.015157 0.485319 0.005025
C40   C     C_R   0.500573 0.985026 0.515348 0.004211
C41   C     C_R   0.974441 0.559034 0.506391 -0.059294
C42   C     C_R   0.989482 0.441026 0.492847 -0.061953
C43   C     C_R   0.023390 0.439921 0.005780 -0.059355
C44   C     C_R   0.003628 0.557836 0.991856 -0.059517
C45   C     C_R   0.479353 0.941859 0.992810 -0.059251
C46   C     C_R   0.493720 0.059797 0.006878 -0.059605
C47   C     C_R   0.521451 0.059049 0.493556 -0.059802
C48   C     C_R   0.497482 0.941107 0.507154 -0.059563
C49   C     C_R   0.965017 0.457377 0.560669 -0.079870
C50   C     C_R   0.003971 0.542715 0.438649 -0.081379
C51   C     C_R   0.028081 0.541794 0.059742 -0.080028
C52   C     C_R   0.994009 0.455928 0.937959 -0.081332
C53   C     C_R   0.465552 0.043811 0.939024 -0.080259
C54   C     C_R   0.512850 0.957810 0.060561 -0.080403
C55   C     C_R   0.519545 0.957400 0.439275 -0.078842
C56   C     C_R   0.492941 0.042816 0.561344 -0.080313
C57   C     C_R   0.976959 0.427611 0.531060 -0.096867
C58   C     C_R   0.988542 0.572459 0.468203 -0.094799
C59   C     C_R   0.015111 0.571420 0.030033 -0.097762
C60   C     C_R   0.010223 0.426325 0.967624 -0.094515
C61   C     C_R   0.478825 0.073418 0.968751 -0.097955
C62   C     C_R   0.495971 0.928226 0.030902 -0.094733
C63   C     C_R   0.506935 0.927668 0.468914 -0.097959
C64   C     C_R   0.509880 0.072508 0.531765 -0.094910
O21   O     O_2   0.953891 0.630558 0.528953 -0.540724
O22   O     O_2   0.997368 0.369449 0.470058 -0.538696
O23   O     O_2   0.046399 0.368526 0.028605 -0.540549
O24   O     O_2   0.993173 0.629308 0.968840 -0.542734
O25   O     O_2   0.458394 0.870447 0.969976 -0.540578
O26   O     O_2   0.500933 0.131247 0.030008 -0.542659
O27   O     O_2   0.548719 0.130473 0.471000 -0.539254
O28   O     O_2   0.487521 0.869552 0.529973 -0.542814
O29   O     O_2   0.944879 0.519026 0.618890 -0.496244
O30   O     O_2   0.036623 0.481135 0.380610 -0.496767
O31   O     O_2   0.050748 0.480419 0.118164 -0.496519
O32   O     O_2   0.960772 0.517275 0.879671 -0.494933
O33   O     O_2   0.443007 0.982454 0.880548 -0.496014
O34   O     O_2   0.547441 0.019070 0.118833 -0.494876
O35   O     O_2   0.541603 0.018979 0.381009 -0.496289
O36   O     O_2   0.457961 0.981355 0.619447 -0.495285
H1    H     H_    0.955882 0.445812 0.589733 0.182603
H2    H     H_    0.014780 0.554288 0.409611 0.182711
H3    H     H_    0.036461 0.553484 0.088774 0.182490
H4    H     H_    0.984088 0.444229 0.908948 0.182556
H5    H     H_    0.454580 0.055534 0.910034 0.182465
H6    H     H_    0.525502 0.946078 0.089521 0.182897
H7    H     H_    0.526305 0.945813 0.410197 0.182695
H8    H     H_    0.484278 0.054421 0.590397 0.182950
H9    H     H_    0.976590 0.394048 0.538243 0.180025
H10   H     H_    0.988054 0.606019 0.461006 0.179582
H11   H     H_    0.014001 0.605009 0.037109 0.179698
H12   H     H_    0.012145 0.392741 0.960538 0.179478
H13   H     H_    0.477525 0.107022 0.961728 0.179614
H14   H     H_    0.496334 0.894625 0.037945 0.179678
H15   H     H_    0.504479 0.894110 0.461734 0.179788
H16   H     H_    0.513574 0.106056 0.538964 0.179908
C65   C     C_R   0.874618 0.389197 0.368200 0.412478
C66   C     C_R   0.768601 0.609834 0.627142 0.405093
C67   C     C_R   0.123846 0.610273 0.868125 0.396819
C68   C     C_R   0.230205 0.389794 0.126729 0.405207
C69   C     C_R   0.379585 0.110128 0.131837 0.398501
C70   C     C_R   0.269742 0.891096 0.872097 0.405915
C71   C     C_R   0.619152 0.890073 0.631900 0.399592
C72   C     C_R   0.725566 0.108270 0.371743 0.407406
C73   C     C_R   0.898236 0.360030 0.338010 -0.291123
C74   C     C_R   0.769305 0.639178 0.657562 -0.310242
C75   C     C_R   0.103519 0.640225 0.838458 -0.307681
C76   C     C_R   0.229965 0.360613 0.157283 -0.310674
C77   C     C_R   0.400515 0.139238 0.162162 -0.319734
C78   C     C_R   0.270125 0.861443 0.841898 -0.312784
C79   C     C_R   0.598903 0.860847 0.662161 -0.320033
C80   C     C_R   0.725163 0.137313 0.341038 -0.319256
H17   H     H_    0.782341 0.356158 0.317532 0.181356
H18   H     H_    0.641040 0.642149 0.675035 0.194288
H19   H     H_    0.223057 0.645179 0.819022 0.194757
H20   H     H_    0.358395 0.357766 0.174767 0.194011
H21   H     H_    0.284682 0.142448 0.182726 0.188020
H22   H     H_    0.141369 0.858121 0.824578 0.193228
H23   H     H_    0.715246 0.857540 0.682636 0.188092
H24   H     H_    0.849641 0.138767 0.322408 0.187343
C81   C     C_R   0.067309 0.335479 0.334025 -0.221224
C82   C     C_R   0.931034 0.665039 0.665411 -0.204559
C83   C     C_R   0.932795 0.664038 0.833642 -0.205295
C84   C     C_R   0.068430 0.334763 0.165261 -0.206086
C85   C     C_R   0.566785 0.164706 0.166042 -0.180208
C86   C     C_R   0.432259 0.835763 0.834038 -0.204239
C87   C     C_R   0.432674 0.835384 0.666079 -0.179544
C88   C     C_R   0.568332 0.164879 0.334361 -0.182196
C89   C     C_R   0.217233 0.340876 0.361293 0.042482
C90   C     C_R   0.096710 0.661060 0.641860 0.055202
C91   C     C_R   0.777962 0.657297 0.859368 0.071746
C92   C     C_R   0.902486 0.338573 0.141702 0.055369
C93   C     C_R   0.715874 0.160562 0.138800 0.035830
C94   C     C_R   0.599522 0.840661 0.857095 0.058492
C95   C     C_R   0.282983 0.839645 0.638933 0.035171
C96   C     C_R   0.407027 0.162616 0.359056 0.031713
C97   C     C_R   0.194854 0.370220 0.391075 -0.015681
C98   C     C_R   0.097075 0.631215 0.611914 -0.071261
C99   C     C_R   0.798327 0.627436 0.889060 -0.068227
C100  C     C_R   0.901709 0.368234 0.111612 -0.071978
C101  C     C_R   0.697489 0.130986 0.108917 -0.069175
C102  C     C_R   0.599593 0.870587 0.886965 -0.072227
C103  C     C_R   0.300548 0.869390 0.609162 -0.067799
C104  C     C_R   0.403909 0.132710 0.388844 -0.076318
H25   H     H_    0.310286 0.374129 0.411669 0.173152
H26   H     H_    0.223849 0.627929 0.594062 0.169702
H27   H     H_    0.681066 0.622505 0.909003 0.169738
H28   H     H_    0.774743 0.371396 0.093752 0.169031
H29   H     H_    0.813066 0.127878 0.088282 0.167580
H30   H     H_    0.727004 0.874312 0.904609 0.171016
H31   H     H_    0.184400 0.872594 0.588630 0.169153
H32   H     H_    0.278199 0.130833 0.407178 0.166659
C105  C     C_R   0.026433 0.394638 0.394865 0.026364
C106  C     C_R   0.935965 0.605518 0.604301 0.055273
C107  C     C_R   0.968555 0.603845 0.893741 0.053324
C108  C     C_R   0.062607 0.393917 0.103872 0.055790
C109  C     C_R   0.531567 0.105630 0.105093 0.059811
C110  C     C_R   0.437598 0.895823 0.894783 0.055156
C111  C     C_R   0.466372 0.894773 0.605304 0.058511
C112  C     C_R   0.560678 0.105443 0.395553 0.060751
N9    N     N_R   0.695613 0.412336 0.371609 0.239193
O37   O     O_R   0.633646 0.425063 0.404747 -0.428124
O38   O     O_R   0.585220 0.417781 0.341921 -0.362600
N10   N     N_R   0.596884 0.585260 0.619620 0.233733
O39   O     O_R   0.553929 0.573349 0.585069 -0.431134
O40   O     O_R   0.473837 0.577669 0.646858 -0.361111
N11   N     N_R   0.302656 0.587143 0.871937 0.234366
O41   O     O_R   0.361158 0.573605 0.905083 -0.434950
O42   O     O_R   0.415156 0.582010 0.842550 -0.356392
N12   N     N_R   0.401638 0.414409 0.119102 0.233673
O43   O     O_R   0.443866 0.426299 0.084521 -0.430698
O44   O     O_R   0.525124 0.422085 0.146281 -0.361756
N13   N     N_R   0.202920 0.086111 0.128313 0.235315
O45   O     O_R   0.139346 0.074306 0.094994 -0.430776
O46   O     O_R   0.095156 0.079269 0.158117 -0.355185
N14   N     N_R   0.097911 0.915576 0.879531 0.233124
O47   O     O_R   0.055158 0.927641 0.914032 -0.431531
O48   O     O_R   0.975104 0.923138 0.852215 -0.362497
N15   N     N_R   0.796031 0.913973 0.628261 0.235376
O49   O     O_R   0.859210 0.925613 0.594883 -0.431893
O50   O     O_R   0.904421 0.920814 0.658008 -0.355235
N16   N     N_R   0.894904 0.082733 0.378721 0.236008
O51   O     O_R   0.939609 0.070786 0.413174 -0.427706
O52   O     O_R   0.016134 0.074931 0.351223 -0.359806
N17   N     N_3   0.391668 0.316349 0.360368 -0.195188
H33   H     H_    0.356109 0.283986 0.359810 0.101245
H34   H     H_    0.468568 0.324165 0.335717 0.157400
N18   N     N_3   0.262998 0.687751 0.647782 -0.176966
H35   H     H_    0.225113 0.718634 0.639486 0.098488
H36   H     H_    0.376811 0.678448 0.630039 0.116384
N19   N     N_3   0.601997 0.681289 0.855894 -0.176492
H37   H     H_    0.632693 0.712595 0.863958 0.084907
H38   H     H_    0.498117 0.670138 0.875107 0.128676
N20   N     N_3   0.736320 0.311897 0.147764 -0.176775
H39   H     H_    0.774134 0.280981 0.139575 0.098641
H40   H     H_    0.622229 0.321112 0.130016 0.116362
N21   N     N_3   0.883420 0.187310 0.140527 -0.202564
H41   H     H_    0.005162 0.167746 0.142033 0.144098
H42   H     H_    0.891539 0.204550 0.115045 0.106503
N22   N     N_3   0.768215 0.814950 0.850699 -0.175103
H43   H     H_    0.735267 0.784049 0.859621 0.090815
H44   H     H_    0.882852 0.825200 0.867848 0.117352
N23   N     N_3   0.115620 0.812844 0.640633 -0.202528
H45   H     H_    0.993792 0.832365 0.642245 0.143786
H46   H     H_    0.107170 0.795708 0.615100 0.106666
N24   N     N_3   0.247668 0.191324 0.354777 -0.197247
H47   H     H_    0.232688 0.208445 0.380196 0.108244
H48   H     H_    0.122430 0.173232 0.351023 0.133744

loop_
_geom_bond_atom_site_label_1
_geom_bond_atom_site_label_2
_geom_bond_distance
_ccdc_geom_bond_type
O17   V3    1.703399 S    
C71   N15   1.441012 S    
C16   O28   1.349045 S    
C56   C64   1.398653 A    
O18   V4    1.703401 S    
C65   C105  1.415797 A    
O12   V1    1.976950 S    
O19   V1    1.704255 S    
N23   H46   1.045543 S    
C37   C45   1.408044 A    
N19   H37   1.044029 S    
C102  H30   1.082859 S    
C78   H22   1.082741 S    
C32   C40   1.408406 A    
C99   H27   1.082449 S    
C76   H20   1.082891 S    
N18   H36   1.045671 S    
C69   C109  1.416465 A    
O15   V4    1.978435 S    
C29   C37   1.408560 A    
N13   O45   1.301194 A    
O16   V3    1.978434 S    
C95   N23   1.432344 S    
C30   C54   1.406053 A    
C22   O34   1.349049 S    
C52   H4    1.083005 S    
N12   O44   1.301523 A    
O12   C4    1.299138 A    
C72   C112  1.416939 A    
O8    V1    1.975488 S    
C42   C57   1.406352 A    
C73   H17   1.082618 S    
C27   C51   1.406114 A    
C41   C58   1.406320 A    
C89   N17   1.432634 S    
C26   C50   1.406091 A    
C103  C111  1.403233 A    
C28   C52   1.406057 A    
N16   O52   1.301548 A    
C104  C112  1.402008 A    
C38   C46   1.408194 A    
C80   C88   1.407928 A    
C46   C61   1.406432 A    
C93   C101  1.405067 A    
C98   C106  1.401158 A    
C34   C42   1.408238 A    
C45   C62   1.406311 A    
O1    V3    1.976097 S    
C17   C25   1.409931 A    
C65   N9    1.441543 S    
C64   H16   1.082996 S    
O3    C2    1.296984 A    
O2    V4    1.976092 S    
N1    C17   1.373087 A    
N7    C112  1.448930 S    
C10   C42   1.409714 A    
C1    C88   1.495375 S    
C16   N8    1.373229 A    
C70   C110  1.414898 A    
O11   C3    1.302778 A    
N8    C111  1.448657 S    
C2    C87   1.491631 S    
C54   C62   1.398474 A    
C27   C35   1.408571 A    
C21   C29   1.410210 A    
C26   C34   1.408524 A    
O11   V2    1.976947 S    
N14   O47   1.301286 A    
N9    O38   1.301560 A    
C23   C31   1.410164 A    
N23   H45   1.044159 S    
C16   C48   1.409987 A    
C56   H8    1.083001 S    
C11   N3    1.373014 A    
N17   H34   1.044094 S    
C72   N16   1.441011 S    
N9    O37   1.301153 A    
O9    V1    1.977595 S    
O4    V3    1.975422 S    
C14   O26   1.349033 S    
C49   C57   1.398745 A    
C100  H28   1.083019 S    
O15   C7    1.301940 A    
N7    C23   1.373424 A    
C101  H29   1.083164 S    
N11   O41   1.301117 A    
O16   C8    1.298930 A    
O7    V2    1.975488 S    
C59   H11   1.083000 S    
C12   C44   1.409397 A    
C93   N21   1.432341 S    
C58   H10   1.082999 S    
C30   C38   1.408526 A    
C68   C108  1.415084 A    
O3    V4    1.975422 S    
C53   C61   1.398900 A    
C78   C86   1.409383 A    
C19   O31   1.349011 S    
C11   O23   1.349096 S    
C97   H25   1.083082 S    
N18   H35   1.045399 S    
C65   C73   1.408726 A    
C82   C90   1.418883 A    
O5    V1    1.975264 S    
C6    C83   1.494740 S    
C62   H14   1.083001 S    
C76   C84   1.409079 A    
O17   V1    2.150904 S    
N24   H48   1.044109 S    
C10   N2    1.372912 A    
C94   C102  1.406370 A    
N12   O43   1.301284 A    
O19   V3    2.149702 S    
C35   C36   1.418116 A    
C18   C26   1.409667 A    
C51   H3    1.083004 S    
O20   V4    2.149700 S    
C50   H2    1.083004 S    
C54   H6    1.083004 S    
C33   C41   1.408122 A    
C85   C93   1.412307 A    
C104  H32   1.083517 S    
N16   O51   1.301292 A    
C92   N20   1.437961 S    
C17   O29   1.348997 S    
C14   C46   1.409916 A    
C83   C91   1.416683 A    
N17   H33   1.045115 S    
C13   C45   1.409319 A    
N5    C21   1.373096 A    
C39   C47   1.408027 A    
C40   C48   1.408145 A    
C55   C63   1.398866 A    
C15   C47   1.409690 A    
C44   C59   1.406298 A    
C67   N11   1.441285 S    
C55   H7    1.082997 S    
N21   H41   1.044204 S    
C70   C78   1.409332 A    
C49   H1    1.083002 S    
O10   V2    1.977593 S    
C70   N14   1.440217 S    
N15   O49   1.301210 A    
C90   C98   1.406678 A    
C75   C83   1.408571 A    
N2    C18   1.372988 A    
C75   H19   1.083145 S    
N6    C22   1.373008 A    
C24   C32   1.409877 A    
O8    C5    1.296684 A    
O13   C5    1.302038 A    
C12   O24   1.349088 S    
C36   C44   1.408223 A    
O9    C1    1.301496 A    
C48   C63   1.406418 A    
C53   H5    1.082996 S    
C71   C111  1.416695 A    
C29   C53   1.406227 A    
C43   C60   1.406369 A    
C102  C110  1.400411 A    
C96   C104  1.403846 A    
O4    C1    1.296567 A    
N2    C105  1.447735 S    
C9    C41   1.409432 A    
O6    V2    1.975269 S    
C98   H26   1.082978 S    
C33   C34   1.418218 A    
N20   H40   1.045673 S    
C4    C85   1.491270 S    
O14   V4    1.977394 S    
N21   H42   1.045543 S    
N15   O50   1.301550 A    
C12   N4    1.372729 A    
C23   O35   1.348999 S    
C35   C43   1.408105 A    
N6    C109  1.447937 S    
C13   N5    1.373111 A    
C51   C59   1.398590 A    
C66   C74   1.408771 A    
N11   O42   1.301557 A    
C91   C99   1.407271 A    
C8    C81   1.494885 S    
C86   C94   1.419436 A    
C15   N7    1.373381 A    
C77   C85   1.407169 A    
N8    C24   1.373316 A    
C92   C100  1.406449 A    
N24   H47   1.045569 S    
C73   C81   1.408549 A    
O1    C4    1.296777 A    
C94   N22   1.437441 S    
C101  C109  1.403042 A    
C31   C55   1.406255 A    
O2    C3    1.296921 A    
C3    C86   1.498742 S    
C68   N12   1.440573 S    
O13   V3    1.977392 S    
C11   C43   1.409428 A    
C31   C39   1.408384 A    
N10   O39   1.301288 A    
N22   H44   1.045487 S    
N4    C20   1.372722 A    
C96   N24   1.432386 S    
C66   C106  1.415063 A    
O20   V2    1.704255 S    
C15   O27   1.349098 S    
C91   N19   1.437355 S    
C68   C76   1.408841 A    
O7    C6    1.298198 A    
C22   C30   1.409632 A    
C103  H31   1.083109 S    
C77   H21   1.083104 S    
C66   N10   1.440508 S    
C50   C58   1.398548 A    
C99   C107  1.401429 A    
C74   H18   1.082891 S    
C9    N1    1.373055 A    
O14   C6    1.299291 A    
C60   H12   1.082998 S    
C89   C97   1.400690 A    
C39   C40   1.418456 A    
C72   C80   1.410042 A    
N14   O48   1.301503 A    
C84   C92   1.419008 A    
C13   O25   1.349138 S    
N19   H38   1.045463 S    
N3    C19   1.372926 A    
O5    C8    1.298805 A    
C57   H9    1.082998 S    
N3    C108  1.447768 S    
O10   C2    1.299148 A    
O6    C7    1.296905 A    
C79   H23   1.083087 S    
C71   C79   1.408985 A    
C10   O22   1.349048 S    
C5    C84   1.497106 S    
C87   C95   1.412329 A    
N1    C106  1.448079 S    
C95   C103  1.405122 A    
C25   C49   1.406190 A    
C79   C87   1.407149 A    
C88   C96   1.414787 A    
C37   C38   1.418300 A    
C61   H13   1.082995 S    
C14   N6    1.373028 A    
N10   O40   1.301521 A    
C67   C75   1.408511 A    
N4    C107  1.447194 S    
C97   C105  1.401844 A    
C32   C56   1.406147 A    
C63   H15   1.082995 S    
N5    C110  1.448210 S    
C47   C64   1.406383 A    
C19   C27   1.409750 A    
C100  C108  1.400910 A    
C28   C36   1.408690 A    
C20   C28   1.409774 A    
N20   H39   1.045359 S    
C7    C82   1.497252 S    
C81   C89   1.420070 A    
C18   O30   1.349036 S    
C90   N18   1.437945 S    
C20   O32   1.348988 S    
C21   O33   1.348954 S    
C69   C77   1.408797 A    
C52   C60   1.398623 A    
C9    O21   1.349105 S    
C74   C82   1.409133 A    
N13   O46   1.301559 A    
C69   N13   1.441172 S    
C24   O36   1.349035 S    
C80   H24   1.082278 S    
N22   H43   1.044033 S    
C25   C33   1.408495 A    
O18   V2    2.150905 S    
C67   C107  1.415188 A    
