data_mof_unit_49890.cif
_audit_creation_date              2012-12-11T15:55:37-0500
_audit_creation_method            fapswitch 2.2
_symmetry_space_group_name_H-M    P1
_symmetry_Int_Tables_number       1
_space_group_crystal_system       triclinic
_cell_length_a                    6.936499
_cell_length_b                    14.575421
_cell_length_c                    16.066085
_cell_angle_alpha                 90.015081
_cell_angle_beta                  89.756112
_cell_angle_gamma                 90.179758
_cell_volume                      1624.29688238

loop_
_atom_site_label
_atom_site_type_symbol
_atom_type_description
_atom_site_fract_x
_atom_site_fract_y
_atom_site_fract_z
_atom_type_partial_charge
O1    O     O_R   0.505680 0.583900 0.413320 -0.540747
O2    O     O_R   0.176010 0.594950 0.586080 -0.543436
O3    O     O_R   0.005680 0.416100 0.586680 -0.538840
C1    C     C_R   0.344997 0.617189 0.615020 0.688978
O4    O     O_R   0.175960 0.594930 0.413930 -0.542772
O5    O     O_R   0.005640 0.416080 0.413300 -0.541331
C2    C     C_R   0.345331 0.617166 0.385017 0.691099
O6    O     O_R   0.505720 0.583920 0.586700 -0.541765
O7    O     O_3   0.339190 0.441320 0.500000 -0.368913
V1    V     V_3+5 0.064350 0.510890 0.500000 1.407322
O8    O     O_R   0.675920 0.405050 0.413920 -0.543605
C3    C     C_R   0.845059 0.382743 0.385027 0.688946
O9    O     O_R   0.675960 0.405070 0.586070 -0.539769
C4    C     C_R   0.843995 0.383478 0.615191 0.705425
V2    V     V_3+5 0.564340 0.489110 0.500000 1.408921
O10   O     O_3   0.839370 0.558680 0.500000 -0.369602
C5    C     C_R   0.001370 0.250261 0.686176 0.055189
C6    C     C_R   0.850446 0.313144 0.681621 -0.091791
C7    C     C_R   0.702485 0.305208 0.741560 -0.144949
H1    H     H_    0.581092 0.351522 0.740140 0.102846
C8    C     C_R   0.716740 0.241600 0.807519 -0.079935
H2    H     H_    0.605041 0.240450 0.854709 0.112055
C9    C     C_R   0.878405 0.183597 0.815095 -0.150482
C10   C     C_R   0.014710 0.186122 0.750159 0.131784
C11   C     C_3   0.229832 0.195478 0.751427 0.302424
C12   C     C_3   0.212568 0.266121 0.682018 -0.479396
H3    H     H_    0.283990 0.224275 0.810922 0.027099
H4    H     H_    0.272692 0.245326 0.620719 0.205007
H5    H     H_    0.252103 0.336679 0.702005 0.134604
C13   C     C_R   0.046853 0.224454 0.217586 -0.155955
H6    H     H_    0.187585 0.205876 0.193670 0.114592
C14   C     C_R   0.035807 0.287994 0.282831 -0.149319
H7    H     H_    0.168555 0.316558 0.306986 0.118121
C15   C     C_R   0.856260 0.314354 0.316234 -0.044920
C16   C     C_R   0.688077 0.275350 0.282532 -0.153582
H8    H     H_    0.547347 0.293920 0.306457 0.117112
C17   C     C_R   0.699123 0.211809 0.217288 -0.151342
H9    H     H_    0.566377 0.183237 0.193140 0.117158
C18   C     C_R   0.878665 0.185490 0.183850 -0.040804
C19   C     C_R   0.188192 0.725126 0.717306 -0.142371
H10   H     H_    0.047658 0.707364 0.692926 0.118046
C20   C     C_R   0.199274 0.788320 0.782809 -0.100337
H11   H     H_    0.066724 0.817506 0.806648 0.121994
C21   C     C_R   0.378576 0.813520 0.816890 -0.036541
C22   C     C_R   0.546532 0.774029 0.783379 -0.128833
H12   H     H_    0.687067 0.791855 0.807724 0.114688
C23   C     C_R   0.535464 0.710847 0.717869 -0.143649
H13   H     H_    0.668051 0.681753 0.693975 0.117398
C24   C     C_R   0.356119 0.685419 0.683945 -0.052173
C25   C     C_R   0.188360 0.724327 0.282809 -0.150685
H14   H     H_    0.047703 0.705609 0.306977 0.118415
C26   C     C_R   0.199153 0.787892 0.217588 -0.151492
H15   H     H_    0.066407 0.816329 0.193705 0.117459
C27   C     C_R   0.378511 0.814415 0.183854 -0.039662
C28   C     C_R   0.546782 0.775607 0.217248 -0.154994
H16   H     H_    0.687434 0.794331 0.193078 0.115148
C29   C     C_R   0.535989 0.712038 0.282471 -0.148736
H17   H     H_    0.668729 0.683600 0.306359 0.118691
C30   C     C_R   0.356626 0.685509 0.316198 -0.045589
O11   O     O_R   0.229200 0.915950 0.913350 -0.533981
O12   O     O_R   0.559090 0.905000 0.086080 -0.550929
O13   O     O_R   0.729280 0.083880 0.086680 -0.547368
C31   C     C_R   0.389751 0.882744 0.115022 0.656381
O14   O     O_R   0.558920 0.904980 0.913920 -0.536298
O15   O     O_R   0.729110 0.083860 0.913300 -0.506690
C32   C     C_R   0.389684 0.881427 0.886042 0.786956
O16   O     O_R   0.229360 0.915970 0.086730 -0.548115
O17   O     O_3   0.395680 0.058580 0.000030 -0.363518
V3    V     V_3+5 0.670570 0.989070 0.999990 1.464346
O18   O     O_R   0.058820 0.094950 0.913870 -0.537332
C33   C     C_R   0.890380 0.116844 0.884808 0.744390
O19   O     O_R   0.058990 0.094970 0.086020 -0.550134
C34   C     C_R   0.889861 0.117186 0.114983 0.660370
V4    V     V_3+5 0.170560 0.010930 0.999930 1.463559
O20   O     O_3   0.895590 0.941310 0.999960 -0.382708
S1    S     S_3+6 0.350420 0.093067 0.718367 0.015183
O21   O     O_2   0.437368 0.048230 0.793082 -0.319781
O22   O     O_2   0.210702 0.027405 0.678557 -0.333365
O23   O     O_3   0.528911 0.118453 0.650793 -0.487223
H18   H     H_    0.473552 0.108390 0.594795 0.344054

loop_
_geom_bond_atom_site_label_1
_geom_bond_atom_site_label_2
_ccdc_geom_bond_type
C28   H16   S    
C4    C6    S    
C21   C32   S    
C7    H1    S    
S1    O23   S    
C1    O6    A    
C23   C24   A    
C22   H12   S    
C21   C22   A    
C5    C12   S    
C7    C8    A    
S1    O22   D    
C6    C7    A    
O5    C3    A    
C13   H6    S    
C29   C30   A    
C27   C31   S    
O17   V4    S    
V2    O10   S    
C15   C16   A    
O12   C31   A    
O8    V2    S    
C16   H8    S    
O17   V3    S    
O18   V4    S    
C25   C26   A    
C9    C10   A    
O13   C34   A    
O18   C33   A    
O1    V2    S    
O7    V1    S    
C19   C20   A    
O11   C32   A    
O9    C4    A    
C20   C21   A    
C2    C30   S    
C26   C27   A    
C25   H14   S    
C22   C23   A    
C8    C9    A    
C31   O16   A    
C5    C10   A    
V4    O20   S    
C9    C33   S    
C10   C11   S    
O19   V4    S    
O4    C2    A    
C11   C12   S    
O15   C33   A    
O13   V3    S    
O14   C32   A    
O2    C1    A    
C17   H9    S    
C23   H13   S    
C5    C6    A    
O16   V4    S    
O14   V3    S    
S1    O21   D    
O3    C4    A    
C19   H10   S    
O6    V2    S    
C28   C29   A    
C20   H11   S    
C25   C30   A    
C3    C15   S    
O2    V1    S    
C26   H15   S    
O12   V3    S    
C27   C28   A    
C16   C17   A    
O1    C2    A    
O19   C34   A    
O5    V1    S    
O8    C3    A    
C11   H3    S    
C12   H4    S    
C1    C24   S    
C11   S1    S    
C14   H7    S    
O9    V2    S    
O7    V2    S    
O4    V1    S    
C17   C18   A    
O3    V1    S    
V1    O10   S    
C13   C14   A    
C29   H17   S    
O15   V3    S    
O11   V4    S    
C13   C18   A    
V3    O20   S    
C18   C34   S    
O23   H18   S    
C12   H5    S    
C8    H2    S    
C19   C24   A    
C14   C15   A    
