data_mof_unit_23380.cif
_audit_creation_date              2013-03-05T16:05:19-0500
_audit_creation_method            fapswitch 2.2
_symmetry_space_group_name_H-M    P1
_symmetry_Int_Tables_number       1
_space_group_crystal_system       triclinic
_cell_length_a                    27.136125
_cell_length_b                    7.198884
_cell_length_c                    22.790292
_cell_angle_alpha                 89.994473
_cell_angle_beta                  101.487018
_cell_angle_gamma                 89.998196
_cell_volume                      4362.9035162

loop_
_atom_site_label
_atom_site_type_symbol
_atom_site_description
_atom_site_fract_x
_atom_site_fract_y
_atom_site_fract_z
_atom_type_partial_charge
O1    O     O_R   0.707300 0.594030 0.176840 -0.570936
O2    O     O_R   0.292700 0.405970 0.823160 -0.598405
O3    O     O_R   0.792700 0.094030 0.323160 -0.570868
O4    O     O_R   0.207300 0.905970 0.676840 -0.598389
O5    O     O_R   0.697330 0.262360 0.295660 -0.572778
O6    O     O_R   0.302670 0.737640 0.704340 -0.561588
O7    O     O_R   0.802670 0.762360 0.204340 -0.572576
O8    O     O_R   0.197330 0.237640 0.795660 -0.561551
C1    C     C_R   0.683970 0.432275 0.310550 1.048198
C2    C     C_R   0.315776 0.567773 0.689050 1.046186
C3    C     C_R   0.816053 0.932278 0.189460 1.047865
C4    C     C_R   0.184202 0.067763 0.810922 1.046156
O9    O     O_R   0.701410 0.264250 0.175600 -0.587767
O10   O     O_R   0.298590 0.735750 0.824400 -0.569685
O11   O     O_R   0.798590 0.764250 0.324400 -0.587965
O12   O     O_R   0.201410 0.235750 0.675600 -0.569796
O13   O     O_R   0.796800 0.094950 0.202240 -0.590581
O14   O     O_R   0.203200 0.905050 0.797760 -0.600358
O15   O     O_R   0.703200 0.594950 0.297760 -0.590470
O16   O     O_R   0.296800 0.405050 0.702240 -0.600301
C5    C     C_R   0.689671 0.432619 0.153375 1.040564
C6    C     C_R   0.310128 0.567103 0.846719 1.045664
C7    C     C_R   0.810332 0.932609 0.346625 1.040037
C8    C     C_R   0.189868 0.067121 0.653285 1.045513
O17   O     O_3   0.781290 0.427390 0.258880 -0.269052
O18   O     O_3   0.218710 0.572610 0.741120 -0.273724
O19   O     O_3   0.718710 0.927390 0.241120 -0.269249
O20   O     O_3   0.281290 0.072610 0.758880 -0.273817
V1    V     V_3+5 0.744190 0.152150 0.248350 1.252550
V2    V     V_3+5 0.255810 0.847850 0.751650 1.242058
V3    V     V_3+5 0.755810 0.652150 0.251650 1.252470
V4    V     V_3+5 0.244190 0.347850 0.748350 1.242009
C9    C     C_R   0.156086 0.056405 0.593643 -0.414201
C10   C     C_R   0.844611 0.937086 0.406117 -0.412658
C11   C     C_R   0.343908 0.556328 0.906367 -0.414305
C12   C     C_R   0.655393 0.437098 0.093883 -0.412923
C13   C     C_R   0.143378 0.017385 0.485551 0.317282
C14   C     C_R   0.861745 0.862081 0.512414 0.313124
C15   C     C_R   0.356616 0.517186 0.014460 0.317303
C16   C     C_R   0.638254 0.362042 0.987595 0.313145
C17   C     C_R   0.176027 0.030158 0.541404 0.384423
C18   C     C_R   0.828196 0.868974 0.457186 0.393760
C19   C     C_R   0.323967 0.530003 0.958604 0.384561
C20   C     C_R   0.671805 0.368913 0.042822 0.393575
C21   C     C_R   0.103614 0.069646 0.589184 0.421410
C22   C     C_R   0.894402 0.001745 0.411365 0.431056
C23   C     C_R   0.396380 0.569573 0.910833 0.421483
C24   C     C_R   0.605599 0.501731 0.088635 0.431952
C25   C     C_R   0.069975 0.029827 0.533588 -0.114451
C26   C     C_R   0.930661 0.972625 0.465802 -0.113187
C27   C     C_R   0.430018 0.529712 0.966428 -0.114528
C28   C     C_R   0.569337 0.472580 0.034205 -0.113312
C29   C     C_R   0.090634 0.016432 0.481176 -0.095942
C30   C     C_R   0.912702 0.913088 0.517209 -0.093144
C31   C     C_R   0.409361 0.516263 0.018838 -0.095987
C32   C     C_R   0.587296 0.413057 0.982800 -0.093200
C33   C     C_R   0.016932 0.997046 0.528326 0.127171
C34   C     C_R   0.984144 0.993931 0.470777 0.124409
C35   C     C_R   0.483063 0.496958 0.971688 0.127154
C36   C     C_R   0.515853 0.493843 0.029235 0.124284
C37   C     C_R   0.006437 0.988511 0.420122 -0.214901
C38   C     C_R   0.996794 0.943910 0.578061 -0.218389
C39   C     C_R   0.493562 0.488377 0.079892 -0.214574
C40   C     C_R   0.503201 0.443855 0.921952 -0.218246
C41   C     C_R   0.058249 0.996871 0.425279 -0.052609
C42   C     C_R   0.946268 0.900644 0.572475 -0.052770
C43   C     C_R   0.441748 0.496689 0.074736 -0.052584
C44   C     C_R   0.553729 0.400614 0.927536 -0.052741
H1    H     H_    0.072488 0.985131 0.384401 0.187184
H2    H     H_    0.934144 0.854819 0.612478 0.185018
H3    H     H_    0.427510 0.484911 0.115614 0.187260
H4    H     H_    0.565853 0.354809 0.887533 0.184975
H5    H     H_    0.984681 0.961757 0.375890 0.204271
H6    H     H_    0.020402 0.919511 0.621409 0.197109
H7    H     H_    0.515323 0.461625 0.124124 0.204810
H8    H     H_    0.479592 0.419458 0.878606 0.197153
C45   C     C_R   0.851642 0.078325 0.108064 -0.353231
C46   C     C_R   0.150156 0.921197 0.893372 -0.336931
C47   C     C_R   0.648958 0.575645 0.392769 -0.356315
C48   C     C_R   0.349462 0.422475 0.606148 -0.337737
H9    H     H_    0.819891 0.172311 0.101141 0.178283
H10   H     H_    0.182324 0.828795 0.900051 0.169778
H11   H     H_    0.681144 0.667575 0.400325 0.179072
H12   H     H_    0.317089 0.331048 0.599225 0.169647
C49   C     C_R   0.887408 0.093993 0.071354 0.566158
C50   C     C_R   0.114702 0.903194 0.930423 0.507508
C51   C     C_R   0.613194 0.591117 0.429489 0.566679
C52   C     C_R   0.384857 0.404567 0.569011 0.507471
C53   C     C_R   0.928332 0.970289 0.079125 -0.037074
C54   C     C_R   0.073072 0.023556 0.922611 -0.113384
C55   C     C_R   0.571679 0.470025 0.420815 -0.037201
C56   C     C_R   0.426801 0.523512 0.577214 -0.112965
C57   C     C_R   0.933365 0.831776 0.123759 0.409788
C58   C     C_R   0.067375 0.162969 0.878235 0.428932
C59   C     C_R   0.566106 0.334090 0.375337 0.410551
C60   C     C_R   0.432795 0.661734 0.621992 0.429238
C61   C     C_R   0.897666 0.820027 0.161741 0.178351
C62   C     C_R   0.103047 0.178637 0.840321 0.175335
C63   C     C_R   0.601881 0.322422 0.337440 0.179031
C64   C     C_R   0.397105 0.677573 0.659884 0.175502
C65   C     C_R   0.855812 0.942011 0.152806 -0.269773
C66   C     C_R   0.145109 0.057597 0.848506 -0.264244
C67   C     C_R   0.644237 0.441951 0.347202 -0.268952
C68   C     C_R   0.354814 0.557648 0.651397 -0.263902
C69   C     C_R   0.971172 0.835897 0.001159 -0.243436
C70   C     C_R   0.030195 0.153264 0.000693 -0.289817
C71   C     C_R   0.527989 0.334134 0.497797 -0.245405
C72   C     C_R   0.470460 0.654595 0.499992 -0.288779
H13   H     H_    0.948019 0.713027 0.000790 0.206744
H14   H     H_    0.053524 0.275632 0.001002 0.191312
H15   H     H_    0.550563 0.210029 0.497501 0.206371
H16   H     H_    0.447703 0.778200 0.500324 0.192821
C73   C     C_R   0.004860 0.845213 0.961912 0.571353
C74   C     C_R   0.995645 0.144058 0.039382 0.582072
C75   C     C_R   0.494287 0.343430 0.537032 0.570941
C76   C     C_R   0.505070 0.645425 0.461374 0.581353
C77   C     C_R   0.035331 0.005874 0.961910 0.043898
C78   C     C_R   0.965861 0.983915 0.039512 0.060493
C79   C     C_R   0.464552 0.505678 0.537900 0.043563
C80   C     C_R   0.534089 0.483687 0.460356 0.061750
O21   O     O_3   0.005850 0.695987 0.924061 -0.693798
H17   H     H_    0.025196 0.728867 0.893089 0.327664
O22   O     O_3   0.990931 0.288079 0.077927 -0.705152
H18   H     H_    0.014005 0.389988 0.071878 0.348048
O23   O     O_3   0.492572 0.192560 0.574030 -0.695437
H19   H     H_    0.473546 0.225335 0.605319 0.328031
O24   O     O_3   0.510589 0.791111 0.423762 -0.705332
H20   H     H_    0.488037 0.894060 0.430405 0.347541
O25   O     O_3   0.905095 0.102324 0.363920 -0.730783
H21   H     H_    0.929285 0.201252 0.380576 0.333389
O26   O     O_3   0.087013 0.134317 0.638816 -0.725705
H22   H     H_    0.056668 0.211157 0.624552 0.341830
O27   O     O_3   0.594900 0.602287 0.136076 -0.730414
H23   H     H_    0.570695 0.701184 0.119417 0.333299
O28   O     O_3   0.412985 0.634294 0.861209 -0.725375
H24   H     H_    0.443325 0.711141 0.875479 0.341966
O29   O     O_3   0.779253 0.811726 0.455548 -0.696389
H25   H     H_    0.757114 0.854633 0.418205 0.294818
O30   O     O_3   0.227178 0.020838 0.542390 -0.692373
H26   H     H_    0.246745 0.041821 0.583286 0.298506
O31   O     O_3   0.720740 0.311538 0.044464 -0.695450
H27   H     H_    0.742879 0.354188 0.081837 0.294725
O32   O     O_3   0.272816 0.520652 0.957615 -0.692241
H28   H     H_    0.253250 0.541645 0.916717 0.298424
Br1   Br    Br    0.173409 0.994171 0.415828 -0.370690
Br2   Br    Br    0.835748 0.775544 0.580566 -0.377646
Br3   Br    Br    0.326585 0.493872 0.084180 -0.370580
Br4   Br    Br    0.664246 0.275471 0.919447 -0.377336
O33   O     O_3   0.882516 0.226432 0.026658 -0.695675
H29   H     H_    0.852152 0.302507 0.027277 0.342195
O34   O     O_3   0.120177 0.770193 0.974981 -0.708184
H30   H     H_    0.150927 0.696390 0.974341 0.349096
O35   O     O_3   0.618639 0.720775 0.475044 -0.695383
H31   H     H_    0.649419 0.795058 0.475056 0.343466
O36   O     O_3   0.379023 0.273017 0.524000 -0.707477
H32   H     H_    0.348075 0.200142 0.524387 0.349684
O37   O     O_3   0.974529 0.714975 0.129951 -0.705136
H33   H     H_    0.969132 0.604665 0.153652 0.381919
O38   O     O_3   0.025601 0.276740 0.872342 -0.682672
H34   H     H_    0.029815 0.386441 0.847842 0.371547
O39   O     O_3   0.524395 0.219771 0.368304 -0.705466
H35   H     H_    0.529198 0.110943 0.343680 0.381273
O40   O     O_3   0.474861 0.774140 0.628286 -0.683508
H36   H     H_    0.470937 0.883262 0.653149 0.371393
Br5   Br    Br    0.909495 0.653565 0.229782 -0.475126
Br6   Br    Br    0.091300 0.351260 0.773909 -0.476303
Br7   Br    Br    0.589678 0.159649 0.268501 -0.476232
Br8   Br    Br    0.409033 0.848984 0.726600 -0.476432

loop_
_geom_bond_atom_site_label_1
_geom_bond_atom_site_label_2
_geom_bond_distance
_ccdc_geom_bond_type
O17   V3    1.754344 S    
C63   C67   1.417472 A    
C25   C29   1.420246 A    
O1    C5    1.327893 A    
O37   H33   0.987544 S    
C51   C55   1.406941 A    
O19   V1    1.754412 S    
C9    C21   1.410399 A    
C19   O32   1.385374 S    
O40   H36   0.986727 S    
C10   C18   1.414161 A    
C56   C60   1.411424 A    
C48   H12   1.083821 S    
C11   C23   1.410396 A    
C22   O25   1.379299 S    
C47   C51   1.406455 A    
O39   H35   0.987373 S    
C25   C33   1.439873 A    
C33   C38   1.405823 A    
C5    C12   1.483978 S    
C42   H2    1.080578 S    
O7    C3    1.338715 A    
C6    C11   1.482520 S    
C35   C40   1.405821 A    
C26   C30   1.421663 A    
C48   C68   1.404289 A    
C36   C39   1.406558 A    
C40   C44   1.386915 A    
O9    V1    1.995221 S    
C56   C79   1.494725 S    
C14   C18   1.399679 A    
C59   O39   1.382741 S    
C70   H14   1.084003 S    
O4    C8    1.325325 A    
C59   C63   1.424572 A    
C43   H3    1.080621 S    
C46   C66   1.404447 A    
C58   C62   1.424601 A    
O32   H28   0.988105 S    
O1    V3    1.980149 S    
O13   V1    1.977269 S    
O2    V4    1.980150 S    
O3    V1    1.980063 S    
C14   Br2   1.932486 S    
C28   C36   1.441231 A    
O3    C7    1.327857 A    
C1    O15   1.337629 A    
C64   C68   1.418267 A    
C15   C31   1.414814 A    
C52   C56   1.406780 A    
C2    O16   1.337671 A    
C20   O31   1.384043 S    
C16   C32   1.413754 A    
C76   O24   1.381350 S    
O2    C6    1.325336 A    
O34   H30   0.991752 S    
C51   O35   1.382043 S    
C10   C22   1.411444 A    
C45   H9    1.082043 S    
C11   C19   1.415116 A    
C16   C20   1.399681 A    
O5    V1    1.988754 S    
C1    C67   1.491259 S    
O22   H18   0.991805 S    
C13   C29   1.414799 A    
C46   C50   1.406770 A    
C34   C37   1.406550 A    
O11   C7    1.327730 A    
O15   V3    1.977238 S    
C35   C36   1.430909 A    
O12   C8    1.329314 A    
C18   O29   1.383997 S    
C53   C57   1.411430 A    
C72   C79   1.405827 A    
C47   C67   1.402980 A    
O10   V2    1.995223 S    
C54   C58   1.411185 A    
C63   Br7   1.935021 S    
C39   C43   1.388704 A    
O7    V3    1.988703 S    
C16   Br4   1.932487 S    
C26   C34   1.441225 A    
C52   O36   1.381916 S    
C24   O27   1.379298 S    
O28   H24   0.991500 S    
C50   C54   1.406565 A    
C38   C42   1.386926 A    
O18   V4    1.754343 S    
C15   C19   1.401661 A    
C37   H5    1.079274 S    
C32   C44   1.402542 A    
C55   C59   1.411568 A    
C58   O38   1.383158 S    
O4    V2    1.980063 S    
C72   H16   1.083979 S    
C44   H4    1.080579 S    
O8    V4    1.988705 S    
C54   C77   1.494177 S    
C4    C66   1.492066 S    
C37   C41   1.388671 A    
C46   H10   1.083816 S    
C31   C43   1.403273 A    
O38   H34   0.986831 S    
C14   C30   1.413753 A    
C21   C25   1.435366 A    
O8    C4    1.338937 A    
C7    C10   1.484014 S    
C40   H8    1.079419 S    
O9    C5    1.327683 A    
C3    C65   1.491890 S    
C62   Br6   1.934988 S    
C57   O37   1.382686 S    
C71   C75   1.402192 A    
O21   H17   0.988658 S    
C74   C78   1.408314 A    
C73   C77   1.421778 A    
C74   O22   1.381278 S    
O6    V2    1.988754 S    
C70   C74   1.410695 A    
C21   O26   1.379196 S    
C75   C79   1.421976 A    
C70   C77   1.405599 A    
C50   O34   1.381927 S    
O23   H19   0.988629 S    
C69   C78   1.403774 A    
C12   C20   1.414199 A    
C27   C35   1.439863 A    
C15   Br3   1.932019 S    
O26   H22   0.991492 S    
C57   C61   1.424380 A    
C71   C80   1.403806 A    
C29   C41   1.403251 A    
O25   H21   0.991474 S    
O16   V4    1.977241 S    
C69   C73   1.402120 A    
C41   H1    1.080625 S    
C69   H13   1.084032 S    
C3    O13   1.337836 A    
C49   C53   1.406852 A    
C23   O28   1.379136 S    
C71   H15   1.084022 S    
O5    C1    1.338601 A    
O6    C2    1.338916 A    
C23   C27   1.435337 A    
O30   H26   0.988098 S    
O11   V3    1.995381 S    
O24   H20   0.991757 S    
C30   C42   1.402546 A    
O12   V4    1.995382 S    
O29   H25   0.988397 S    
C22   C26   1.437017 A    
C8    C9    1.482441 S    
C75   O23   1.381385 S    
C60   O40   1.383210 S    
C64   Br8   1.934853 S    
C9    C17   1.415105 A    
C72   C76   1.410772 A    
C2    C68   1.491954 S    
C48   C52   1.406860 A    
C62   C66   1.418435 A    
O33   H29   0.991790 S    
C47   H11   1.081951 S    
O10   C6    1.329346 A    
C33   C34   1.430922 A    
O27   H23   0.991474 S    
C39   H7    1.079288 S    
C61   Br5   1.935220 S    
C60   C64   1.424718 A    
O20   V2    1.754413 S    
C45   C65   1.403344 A    
C12   C24   1.411453 A    
C27   C31   1.420206 A    
C13   C17   1.401620 A    
C49   O33   1.382102 S    
C17   O30   1.385377 S    
O14   V2    1.977263 S    
C45   C49   1.406420 A    
C76   C80   1.408375 A    
C24   C28   1.437005 A    
C73   O21   1.381400 S    
C53   C78   1.492619 S    
C4    O14   1.337705 A    
O36   H32   0.991739 S    
C55   C80   1.492782 S    
C38   H6    1.079416 S    
C13   Br1   1.932026 S    
O35   H31   0.991745 S    
O31   H27   0.988373 S    
C61   C65   1.417858 A    
C28   C32   1.421660 A    
