data_mof_unit_65449.cif
_audit_creation_date              2012-12-10T18:01:45-0500
_audit_creation_method            fapswitch 2.2
_symmetry_space_group_name_H-M    P1
_symmetry_Int_Tables_number       1
_space_group_crystal_system       triclinic
_cell_length_a                    10.833797
_cell_length_b                    9.502379
_cell_length_c                    19.407252
_cell_angle_alpha                 90.013849
_cell_angle_beta                  90.18543
_cell_angle_gamma                 89.993217
_cell_volume                      1997.90483022

loop_
_atom_site_label
_atom_site_type_symbol
_atom_type_description
_atom_site_fract_x
_atom_site_fract_y
_atom_site_fract_z
_atom_type_partial_charge
C1    C     C_R   0.262100 0.500003 0.499960 0.946443
C2    C     C_R   0.737900 0.499997 0.500040 0.946462
C3    C     C_R   0.500173 0.499981 0.930106 0.532679
C4    C     C_R   0.499813 0.500018 0.069874 0.532524
C5    C     C_R   0.499864 0.499995 0.367306 0.943058
C6    C     C_R   0.500134 0.500005 0.632693 0.943203
C7    C     C_R   0.064098 0.386272 0.528873 0.525465
C8    C     C_R   0.935902 0.613728 0.471128 0.525425
C9    C     C_R   0.936301 0.386286 0.528915 0.514540
C10   C     C_R   0.063699 0.613714 0.471085 0.514533
C11   C     C_R   0.871673 0.500005 0.500034 -0.488620
C12   C     C_R   0.128327 0.499995 0.499966 -0.488661
C13   C     C_R   0.423686 0.074462 0.456851 0.093216
C14   C     C_R   0.576314 0.925538 0.543148 0.093029
C15   C     C_R   0.576272 0.074484 0.543172 0.097291
C16   C     C_R   0.423729 0.925516 0.456828 0.097439
C17   C     C_R   0.523575 0.624851 0.254443 0.520073
C18   C     C_R   0.476010 0.375247 0.745548 0.520020
C19   C     C_R   0.524678 0.624667 0.745671 0.506432
C20   C     C_R   0.475715 0.375233 0.254322 0.506420
C21   C     C_R   0.523483 0.624795 0.182626 0.552941
C22   C     C_R   0.476102 0.375303 0.817364 0.552938
C23   C     C_R   0.524603 0.624589 0.817488 0.558084
C24   C     C_R   0.475784 0.375311 0.182504 0.558042
C25   C     C_R   0.499674 0.500047 0.145872 -0.419164
C26   C     C_R   0.500312 0.499952 0.854113 -0.419088
C27   C     C_R   0.499717 0.500017 0.291203 -0.495679
C28   C     C_R   0.500275 0.499982 0.708791 -0.495599
Cu1   Cu    Cu3+1 0.500000 0.640660 0.500000 1.091184
Cu2   Cu    Cu3+1 0.500000 0.359340 0.500000 1.091196
H1    H     H_    0.362558 0.130702 0.422338 0.180081
H2    H     H_    0.637444 0.869298 0.577661 0.180255
H3    H     H_    0.637263 0.130738 0.577759 0.192472
H4    H     H_    0.362737 0.869262 0.422240 0.192558
N1    N     N_R   0.500000 0.852070 0.500000 -0.204072
N2    N     N_R   0.500000 0.147930 0.500000 -0.204018
N3    N     N_R   0.524062 0.380296 0.034300 -0.102275
N4    N     N_R   0.475927 0.619705 0.965678 -0.102394
N5    N     N_R   0.524231 0.380274 0.965789 -0.102523
N6    N     N_R   0.475752 0.619723 0.034187 -0.102401
O1    O     O_R   0.319640 0.618740 0.500000 -0.554638
O2    O     O_R   0.680360 0.381260 0.500000 -0.554625
O3    O     O_R   0.680360 0.618740 0.500000 -0.546265
O4    O     O_R   0.319640 0.381260 0.500000 -0.546284
O5    O     O_R   0.499980 0.618820 0.400140 -0.532087
O6    O     O_R   0.500020 0.381180 0.599860 -0.532154
O7    O     O_R   0.500020 0.618820 0.599860 -0.551291
O8    O     O_R   0.499980 0.381180 0.400140 -0.551242
F1    F     F_    0.124693 0.276795 0.558703 -0.549610
F2    F     F_    0.875307 0.723205 0.441298 -0.549700
F3    F     F_    0.876127 0.276846 0.558800 -0.580088
F4    F     F_    0.123873 0.723154 0.441200 -0.580098
F5    F     F_    0.549142 0.747307 0.287656 -0.536822
F6    F     F_    0.450019 0.252913 0.712329 -0.536796
F7    F     F_    0.550743 0.746979 0.712583 -0.561990
F8    F     F_    0.450072 0.252800 0.287406 -0.561755
F9    F     F_    0.549786 0.746730 0.149274 -0.513512
F10   F     F_    0.449387 0.253493 0.850725 -0.513658
F11   F     F_    0.551353 0.746378 0.850984 -0.515525
F12   F     F_    0.449441 0.253397 0.149019 -0.515365

loop_
_geom_bond_atom_site_label_1
_geom_bond_atom_site_label_2
_ccdc_geom_bond_type
C22   F10   S    
C19   C23   A    
C21   F9    S    
Cu1   Cu2   S    
C20   C27   A    
C8    F2    S    
Cu1   N1    S    
C1    O4    A    
C9    F3    S    
Cu2   N2    S    
C2    O3    A    
C24   F12   S    
C10   F4    S    
C4    C25   S    
C3    N5    A    
N3    N5    A    
C5    C27   S    
Cu1   O3    S    
C23   F11   S    
C19   C28   A    
C9    C11   A    
Cu2   O4    S    
C1    C12   S    
C10   C12   A    
C2    O2    A    
C8    C11   A    
C2    C11   S    
C1    O1    A    
N4    N6    A    
Cu1   O7    S    
C20   F8    S    
C16   N1    A    
C7    C12   A    
C20   C24   A    
C5    O8    A    
C17   C21   A    
Cu1   O1    S    
C23   C26   A    
Cu1   O5    S    
C6    O7    A    
C18   F6    S    
C19   F7    S    
C17   C27   A    
C17   F5    S    
C15   N2    A    
C18   C28   A    
C24   C25   A    
C7    F1    S    
C13   N2    A    
C8    C10   A    
C22   C26   A    
C13   C16   A    
Cu2   O8    S    
C14   N1    A    
C7    C9    A    
C21   C25   A    
C14   C15   A    
Cu2   O2    S    
C6    O6    A    
C16   H4    S    
C18   C22   A    
C5    O5    A    
C13   H1    S    
C3    C26   S    
C6    C28   S    
C4    N6    A    
C3    N4    A    
C14   H2    S    
C4    N3    A    
C15   H3    S    
Cu2   O6    S    
