data_mof_unit_34617.cif
_audit_creation_date              2012-12-10T17:48:22-0500
_audit_creation_method            fapswitch 2.2
_symmetry_space_group_name_H-M    P1
_symmetry_Int_Tables_number       1
_space_group_crystal_system       triclinic
_cell_length_a                    13.868103
_cell_length_b                    14.734574
_cell_length_c                    14.522839
_cell_angle_alpha                 114.950354
_cell_angle_beta                  106.491848
_cell_angle_gamma                 72.338118
_cell_volume                      2521.73582038

loop_
_atom_site_label
_atom_site_type_symbol
_atom_type_description
_atom_site_fract_x
_atom_site_fract_y
_atom_site_fract_z
_atom_type_partial_charge
C1    C     C_R   0.515117 0.118497 0.689554 0.782882
C2    C     C_R   0.488919 0.881597 0.311191 0.800102
C3    C     C_R   0.539283 0.355925 0.929871 0.074233
C4    C     C_R   0.522430 0.637959 0.079558 0.078548
C5    C     C_R   0.548916 0.320322 0.009640 0.107209
C6    C     C_R   0.535199 0.670827 0.005914 0.086099
C7    C     C_R   0.539063 0.460671 0.954571 0.074755
C8    C     C_R   0.533624 0.531726 0.056815 0.086355
C9    C     C_R   0.543984 0.494169 0.134470 -0.255772
C10   C     C_R   0.545400 0.496626 0.880830 -0.239226
C11   C     C_R   0.552530 0.391154 0.111573 -0.204826
C12   C     C_R   0.544349 0.598725 0.906180 -0.153538
C13   C     C_R   0.325726 0.299118 0.329445 -0.382453
C14   C     C_R   0.670192 0.703958 0.674665 -0.313235
C15   C     C_R   0.354446 0.213428 0.357966 0.645814
C16   C     C_R   0.644958 0.786808 0.642354 0.647439
C17   C     C_R   0.488101 0.285199 0.489196 -0.043759
C18   C     C_R   0.514195 0.713158 0.508566 -0.063662
C19   C     C_R   0.462707 0.373483 0.462727 -0.044605
C20   C     C_R   0.539136 0.625181 0.535463 -0.059177
C21   C     C_R   0.380937 0.377566 0.379111 0.006975
C22   C     C_R   0.618765 0.622609 0.621374 0.002002
C23   C     C_R   0.687115 0.987011 0.504384 0.827748
C24   C     C_R   0.312932 0.013372 0.496233 0.816076
C25   C     C_R   0.515108 0.457037 0.515760 0.036641
C26   C     C_R   0.487090 0.541366 0.481737 0.030028
C27   C     C_R   0.407201 0.539672 0.395848 -0.302886
C28   C     C_R   0.592965 0.459895 0.603149 -0.319779
C29   C     C_R   0.355120 0.459446 0.345010 0.459037
C30   C     C_R   0.646374 0.539439 0.653874 0.461264
C31   C     C_1   0.207540 0.022030 0.495315 -0.163283
C32   C     C_1   0.792716 0.979920 0.507772 -0.165805
C33   C     C_2   0.013232 0.037230 0.494300 -0.148069
C34   C     C_2   0.987425 0.967561 0.513259 -0.158650
C35   C     C_1   0.881686 0.973876 0.510634 0.012615
C36   C     C_1   0.118773 0.029579 0.494771 0.009452
C37   C     C_R   0.525214 0.184623 0.801182 -0.130219
C38   C     C_R   0.498181 0.814895 0.202590 -0.133724
C39   C     C_R   0.550389 0.215824 0.985445 -0.052902
C40   C     C_R   0.537138 0.775068 0.033442 -0.043005
C41   C     C_R   0.536916 0.148182 0.880833 -0.084295
C42   C     C_R   0.522660 0.846603 0.133623 -0.094701
C43   C     C_R   0.525825 0.287145 0.827217 -0.261763
C44   C     C_R   0.496131 0.712228 0.173182 -0.247450
Cu1   Cu    Cu3+1 0.526370 0.916390 0.524860 0.975227
Cu2   Cu    Cu3+1 0.473630 0.083610 0.475140 0.982657
H1    H     H_    0.045342 0.904980 0.529808 0.156260
H2    H     H_    0.955299 0.099728 0.477592 0.164067
H3    H     H_    0.260158 0.304522 0.268823 0.187889
H4    H     H_    0.729407 0.703991 0.741835 0.212551
H5    H     H_    0.382115 0.599995 0.365668 0.142539
H6    H     H_    0.613558 0.401881 0.635769 0.131754
H7    H     H_    0.558265 0.369229 0.175435 0.180295
H8    H     H_    0.548819 0.620116 0.845205 0.202686
H9    H     H_    0.472854 0.691346 0.225211 0.146503
H10   H     H_    0.512065 0.312912 0.764664 0.158933
H11   H     H_    0.549513 0.542515 0.215175 0.150742
H12   H     H_    0.555890 0.447100 0.803249 0.139892
H13   H     H_    0.453173 0.722901 0.446351 0.146677
H14   H     H_    0.551230 0.273889 0.549261 0.140482
N1    N     N_R   0.433980 0.209250 0.437830 -0.209128
N2    N     N_R   0.566020 0.790750 0.562170 -0.215147
O1    O     O_R   0.534760 0.019630 0.662610 -0.540917
O2    O     O_R   0.465240 0.980370 0.337390 -0.572550
O3    O     O_R   0.490220 0.160840 0.620610 -0.593755
O4    O     O_R   0.509780 0.839160 0.379390 -0.585623
O5    O     O_R   0.663260 0.919400 0.523940 -0.557084
O6    O     O_R   0.336740 0.080600 0.476060 -0.520304
O7    O     O_R   0.618720 0.060610 0.481950 -0.574984
O8    O     O_R   0.381280 0.939390 0.518050 -0.591874
C45   C     C_2   0.541548 0.951144 0.167336 0.332269
H15   H     H_    0.486634 0.018604 0.202953 0.081612
O9    O     O_2   0.620062 0.962520 0.155089 -0.480192
C46   C     C_2   0.532705 0.040527 0.855657 0.378116
H16   H     H_    0.471134 0.007316 0.797520 0.069517
O10   O     O_2   0.599012 0.987741 0.898660 -0.504753
C47   C     C_2   0.560529 0.176849 0.067891 0.416409
H17   H     H_    0.507636 0.131763 0.060206 0.059580
O11   O     O_2   0.630972 0.190214 0.141908 -0.509397
C48   C     C_2   0.554618 0.811415 0.959403 0.441480
H18   H     H_    0.506781 0.882041 0.951271 0.072283
O12   O     O_2   0.625811 0.766495 0.912074 -0.501946
O13   O     O_3   0.274837 0.463630 0.263468 -0.610105
C49   C     C_3   0.316064 0.427652 0.172860 0.028616
H19   H     H_    0.371062 0.352278 0.162181 0.128506
H20   H     H_    0.355846 0.484616 0.176545 0.156398
C50   C     C_3   0.228661 0.413617 0.079505 -0.309328
H21   H     H_    0.186996 0.358238 0.075986 0.218796
H22   H     H_    0.173638 0.488185 0.087830 0.232360
C51   C     C_3   0.269280 0.373825 0.979124 -0.923337
H23   H     H_    0.311291 0.427984 0.980796 0.266980
H24   H     H_    0.203898 0.365942 0.913025 0.255523
H25   H     H_    0.321733 0.297583 0.967522 0.244612
O14   O     O_3   0.719527 0.541409 0.742421 -0.597336
C52   C     C_3   0.803202 0.456206 0.721178 0.045167
H26   H     H_    0.874008 0.486024 0.740985 0.162883
H27   H     H_    0.797334 0.403334 0.638506 0.127674
C53   C     C_3   0.815372 0.396220 0.789348 -0.314479
H28   H     H_    0.826985 0.447759 0.871877 0.242999
H29   H     H_    0.744383 0.367607 0.772245 0.207695
C54   C     C_3   0.906661 0.305247 0.771482 -0.917947
H30   H     H_    0.895470 0.251441 0.689873 0.257947
H31   H     H_    0.913511 0.263756 0.822301 0.261637
H32   H     H_    0.979106 0.331940 0.789864 0.254887
O15   O     O_3   0.690515 0.870780 0.697570 -0.559662
C55   C     C_3   0.799395 0.843130 0.712447 0.016173
H33   H     H_    0.825622 0.883640 0.677660 0.172970
H34   H     H_    0.831610 0.759868 0.674356 0.104785
C56   C     C_3   0.843270 0.879365 0.828207 -0.269972
H35   H     H_    0.813264 0.963078 0.864359 0.253500
H36   H     H_    0.818086 0.839711 0.864691 0.253512
C57   C     C_3   0.960600 0.858119 0.848613 -0.939568
H37   H     H_    0.992483 0.774610 0.814830 0.258958
H38   H     H_    0.989777 0.885602 0.933162 0.271051
H39   H     H_    0.987469 0.898889 0.814604 0.255614
O16   O     O_3   0.297697 0.137274 0.313994 -0.579000
C58   C     C_3   0.275398 0.101564 0.204574 0.003832
H40   H     H_    0.301490 0.016873 0.175270 0.161691
H41   H     H_    0.316509 0.130033 0.169720 0.099300
C59   C     C_3   0.159070 0.126860 0.167496 -0.319634
H42   H     H_    0.120493 0.090782 0.196512 0.236180
H43   H     H_    0.129483 0.210961 0.198762 0.217448
C60   C     C_3   0.131949 0.087766 0.049817 -0.921771
H44   H     H_    0.167701 0.124806 0.019240 0.250698
H45   H     H_    0.047165 0.106352 0.025369 0.268330
H46   H     H_    0.159275 0.003366 0.016715 0.254164

loop_
_geom_bond_atom_site_label_1
_geom_bond_atom_site_label_2
_ccdc_geom_bond_type
C7    C10   A    
C50   H21   S    
C54   H30   S    
C27   C29   A    
C23   O7    A    
C52   H26   S    
C49   C50   S    
C4    C8    A    
C43   H10   S    
C57   H38   S    
C52   C53   S    
C24   O8    A    
C7    C8    A    
C39   C41   A    
C47   H17   S    
C25   C28   A    
C38   C44   A    
C3    C43   A    
C26   C27   A    
C46   O10   D    
C39   C47   S    
C10   H12   S    
C49   H20   S    
C29   O13   S    
C3    C7    A    
C58   H41   S    
C6    C12   A    
C60   H45   S    
C55   H33   S    
Cu1   N2    S    
C33   C36   S    
O16   C58   S    
C34   C35   S    
C23   O5    A    
Cu2   O7    S    
C17   N1    A    
C41   C46   S    
C2    O2    A    
C8    C9    A    
Cu1   O5    S    
C1    O3    A    
C40   C48   S    
C18   C20   A    
C11   H7    S    
C59   C60   S    
C1    C37   S    
C40   C42   A    
C54   H31   S    
C16   N2    A    
C1    O1    A    
C57   H37   S    
C27   H5    S    
C47   O11   D    
C46   H16   S    
Cu2   N1    S    
C32   C35   T    
C60   H44   S    
C6    C40   A    
C49   H19   S    
Cu2   O3    S    
C4    C6    A    
C56   C57   S    
C45   O9    D    
C18   N2    A    
C60   H46   S    
C4    C44   A    
C3    C5    A    
C25   C26   A    
Cu1   Cu2   S    
C21   C29   A    
Cu1   O1    S    
Cu2   O2    S    
C37   C43   A    
Cu2   O6    S    
C2    C38   S    
C51   H24   S    
O13   C49   S    
C13   C15   A    
C20   C26   A    
C33   C34   D    
C15   N1    A    
C13   C21   A    
C9    C11   A    
C10   C12   A    
C16   O15   S    
C13   H3    S    
C48   O12   D    
C20   C22   A    
C54   H32   S    
C53   H29   S    
C50   H22   S    
C14   C16   A    
C58   C59   S    
C59   H42   S    
C59   H43   S    
C51   H25   S    
C5    C39   A    
C22   C30   A    
C19   C21   A    
Cu1   O8    S    
C31   C36   T    
C48   H18   S    
C2    O4    A    
C52   H27   S    
C5    C11   A    
C53   C54   S    
O15   C55   S    
C23   C32   S    
C14   C22   A    
C56   H36   S    
C24   C31   S    
C45   H15   S    
C30   O14   S    
C56   H35   S    
C28   H6    S    
C44   H9    S    
C51   H23   S    
C14   H4    S    
C55   H34   S    
C28   C30   A    
C42   C45   S    
C17   C19   A    
C9    H11   S    
C37   C41   A    
O14   C52   S    
C19   C25   A    
C24   O6    A    
C17   H14   S    
C38   C42   A    
C18   H13   S    
C53   H28   S    
C50   C51   S    
Cu1   O4    S    
C33   H2    S    
C15   O16   S    
C34   H1    S    
C58   H40   S    
C57   H39   S    
C12   H8    S    
C55   C56   S    
