data_mof_unit_12255.cif
_audit_creation_date              2012-12-10T16:57:13-0500
_audit_creation_method            fapswitch 2.2
_symmetry_space_group_name_H-M    P1
_symmetry_Int_Tables_number       1
_space_group_crystal_system       triclinic
_cell_length_a                    15.859716
_cell_length_b                    10.943413
_cell_length_c                    9.761199
_cell_angle_alpha                 90.406244
_cell_angle_beta                  89.352779
_cell_angle_gamma                 91.285034
_cell_volume                      1693.57431419

loop_
_atom_site_label
_atom_site_type_symbol
_atom_type_description
_atom_site_fract_x
_atom_site_fract_y
_atom_site_fract_z
_atom_type_partial_charge
C1    C     C_R   0.497837 0.265892 0.499669 0.843594
C2    C     C_3   0.946640 0.392199 0.591885 0.100463
C3    C     C_3   0.917250 0.480059 0.474911 -0.004408
C4    C     C_3   0.950179 0.613044 0.509973 -0.075411
C5    C     C_3   0.047695 0.617627 0.527406 0.217330
C6    C     C_1   0.824516 0.482084 0.482932 0.076069
C7    C     C_1   0.175354 0.493079 0.501326 0.100802
C8    C     C_1   0.250893 0.496458 0.502879 -0.211627
C9    C     C_2   0.500570 0.935479 0.388295 0.174533
C10   C     C_2   0.516746 0.867190 0.500358 0.001845
C11   C     C_2   0.511938 0.068703 0.390557 -0.183342
C12   C     C_R   0.340449 0.499518 0.500905 0.813832
C13   C     C_2   0.489235 0.134649 0.499851 -0.303097
C14   C     C_2   0.450113 0.431106 0.923570 0.015713
C15   C     C_2   0.459083 0.418334 0.077588 0.269917
C16   C     C_R   0.502888 0.734726 0.499979 0.798079
C17   C     C_R   0.659639 0.497903 0.498769 0.803238
C18   C     C_3   0.046186 0.390001 0.597790 0.418859
C19   C     C_3   0.057236 0.451061 0.338398 0.512509
C20   C     C_3   0.955765 0.433067 0.331117 0.469876
C21   C     C_1   0.749155 0.489507 0.493305 -0.228931
C22   C     C_3   0.082880 0.487655 0.491966 0.012036
Cu1   Cu    Cu3+1 0.500020 0.500020 0.638630 0.951667
Cu2   Cu    Cu3+1 0.499980 0.499980 0.361370 0.952319
H1    H     H_    0.923712 0.298247 0.565903 0.122371
H2    H     H_    0.534172 0.113121 0.297242 0.160939
H3    H     H_    0.461705 0.092422 0.590639 0.169830
H4    H     H_    0.399514 0.379264 0.874739 0.087041
H5    H     H_    0.511329 0.582387 0.110141 0.212597
H6    H     H_    0.058396 0.639809 0.637019 0.035424
H7    H     H_    0.922160 0.638682 0.611324 0.172649
N1    N     N_2   0.499090 0.498660 0.846910 -0.012735
N2    N     N_2   0.499070 0.498630 0.153040 -0.263466
O1    O     O_R   0.500010 0.321960 0.617040 -0.580128
O2    O     O_R   0.499990 0.321920 0.382900 -0.541526
O3    O     O_R   0.379450 0.500030 0.617120 -0.589577
O4    O     O_R   0.379420 0.499980 0.382980 -0.556918
O5    O     O_R   0.500010 0.678080 0.617100 -0.625363
O6    O     O_R   0.499990 0.678040 0.382960 -0.550952
O7    O     O_R   0.620580 0.500020 0.617020 -0.564402
O8    O     O_R   0.620550 0.499970 0.382880 -0.581805
N3    N     N_3   0.077574 0.418943 0.737596 -0.603507
H8    H     H_    0.053737 0.500451 0.775308 0.209960
H9    H     H_    0.054876 0.356275 0.809644 0.213258
O9    O     O_3   0.910222 0.431019 0.718819 -0.622232
C23   C     C_3   0.874413 0.332585 0.795016 0.034982
H10   H     H_    0.869905 0.364394 0.902116 0.172342
H11   H     H_    0.915288 0.252078 0.795866 0.115920
C24   C     C_3   0.785673 0.295600 0.745702 -0.333576
H12   H     H_    0.742736 0.373361 0.760592 0.246643
H13   H     H_    0.787110 0.271634 0.635139 0.210616
C25   C     C_3   0.750491 0.184280 0.822578 -0.914868
H14   H     H_    0.789821 0.103522 0.800870 0.249163
H15   H     H_    0.685145 0.163322 0.788447 0.274326
H16   H     H_    0.749260 0.201537 0.934550 0.259721
N4    N     N_3   0.920237 0.703364 0.411935 -0.574614
H17   H     H_    0.954863 0.699905 0.320485 0.314549
H18   H     H_    0.930038 0.790831 0.453548 0.223571
N5    N     N_3   0.471935 0.880280 0.262645 -0.583594
H19   H     H_    0.516197 0.901489 0.185760 0.208428
H20   H     H_    0.415112 0.920060 0.236263 0.211328
N6    N     N_3   0.555788 0.921679 0.619006 -0.613400
H21   H     H_    0.517342 0.903403 0.704488 0.213533
H22   H     H_    0.613486 0.879603 0.633612 0.209805
O10   O     O_3   0.573357 0.532735 0.904169 -0.541135
C26   C     C_3   0.588557 0.657981 0.876409 0.180232
H23   H     H_    0.529682 0.711350 0.887140 0.123251
H24   H     H_    0.615662 0.669335 0.772404 0.190568
C27   C     C_3   0.653884 0.711052 0.976168 -0.449084
H25   H     H_    0.630608 0.701798 0.083324 0.224191
H26   H     H_    0.713440 0.660182 0.965330 0.226322
C28   C     C_3   0.672730 0.846083 0.948164 -0.930785
H27   H     H_    0.700834 0.857713 0.844234 0.255312
H28   H     H_    0.718396 0.882456 0.024483 0.264886
H29   H     H_    0.614096 0.899446 0.956288 0.253572
N7    N     N_3   0.417999 0.315930 0.142141 -0.529368
H30   H     H_    0.441489 0.236516 0.097103 0.183909
H31   H     H_    0.353696 0.318982 0.120347 0.182605
O11   O     O_3   0.076061 0.274319 0.549592 -0.616268
C29   C     C_3   0.081741 0.178468 0.645225 0.103612
H32   H     H_    0.069338 0.091532 0.588761 0.144584
H33   H     H_    0.033071 0.179991 0.726578 0.101727
C30   C     C_3   0.171334 0.173684 0.702379 -0.316852
H34   H     H_    0.216017 0.152897 0.617447 0.217845
H35   H     H_    0.191323 0.263240 0.746270 0.233562
C31   C     C_3   0.177339 0.077151 0.813644 -0.981113
H36   H     H_    0.136378 0.101193 0.902448 0.258283
H37   H     H_    0.243491 0.072751 0.849018 0.257430
H38   H     H_    0.157621 0.985872 0.773571 0.251146
O12   O     O_3   0.084613 0.553055 0.255799 -0.554978
C32   C     C_3   0.102206 0.532477 0.114895 0.142540
H39   H     H_    0.066956 0.601075 0.056393 0.167129
H40   H     H_    0.080427 0.442998 0.073669 0.120040
C33   C     C_3   0.196659 0.556372 0.088069 -0.378435
H41   H     H_    0.213278 0.651528 0.119935 0.228518
H42   H     H_    0.234789 0.493923 0.149930 0.217998
C34   C     C_3   0.220566 0.539987 0.937501 -0.927546
H43   H     H_    0.210453 0.443197 0.906062 0.265881
H44   H     H_    0.288299 0.564509 0.922244 0.257626
H45   H     H_    0.182838 0.600513 0.872365 0.255371
N8    N     N_3   0.102648 0.338343 0.298920 -0.585459
H46   H     H_    0.167064 0.356323 0.285364 0.222080
H47   H     H_    0.081033 0.297017 0.209141 0.178830
N9    N     N_3   0.931874 0.302938 0.309329 -0.656288
H48   H     H_    0.944479 0.278211 0.207707 0.213683
H49   H     H_    0.966927 0.243981 0.368312 0.226511
O13   O     O_3   0.930304 0.500450 0.213269 -0.609718
C35   C     C_3   0.843142 0.511232 0.182745 0.097707
H50   H     H_    0.841775 0.556673 0.081408 0.155517
H51   H     H_    0.812202 0.577462 0.251831 0.162998
C36   C     C_3   0.790895 0.390934 0.168511 -0.425522
H52   H     H_    0.825419 0.322461 0.107819 0.212936
H53   H     H_    0.776565 0.350309 0.269792 0.243749
C37   C     C_3   0.707532 0.412509 0.097407 -0.818621
H54   H     H_    0.674449 0.489710 0.145938 0.283681
H55   H     H_    0.666399 0.329214 0.103477 0.258930
H56   H     H_    0.719276 0.434739 0.988272 0.265990
O14   O     O_3   0.086141 0.710512 0.444189 -0.551397
C38   C     C_3   0.145294 0.783279 0.517786 0.070570
H57   H     H_    0.187597 0.726276 0.579794 0.140503
H58   H     H_    0.111331 0.846395 0.587859 0.111877
C39   C     C_3   0.199020 0.858442 0.416686 -0.300799
H59   H     H_    0.217302 0.800200 0.327908 0.234814
H60   H     H_    0.161396 0.935233 0.378130 0.208017
C40   C     C_3   0.279228 0.908968 0.483416 -0.941871
H61   H     H_    0.264524 0.954247 0.582373 0.260678
H62   H     H_    0.310586 0.976759 0.414650 0.259628
H63   H     H_    0.323267 0.833579 0.502353 0.256200

loop_
_geom_bond_atom_site_label_1
_geom_bond_atom_site_label_2
_ccdc_geom_bond_type
C26   H24   S    
N8    H46   S    
C2    C18   S    
C11   C13   D    
C19   C20   S    
C3    C6    S    
N9    H49   S    
C34   H43   S    
C7    C8    T    
O9    C23   S    
C35   H50   S    
C23   C24   S    
N7    H31   S    
C27   H25   S    
C28   H29   S    
C31   H37   S    
C26   C27   S    
Cu1   O7    S    
Cu1   O3    S    
H5    N2    S    
Cu2   O6    S    
N4    H17   S    
C12   O4    A    
C27   H26   S    
O14   C38   S    
N6    H22   S    
C5    C22   S    
C36   H52   S    
N4    H18   S    
C18   O11   S    
C24   H13   S    
C40   H63   S    
O13   C35   S    
C12   O3    A    
C9    C10   D    
C25   H16   S    
C20   O13   S    
C24   C25   S    
C26   H23   S    
N5    H19   S    
N8    H47   S    
C4    N4    S    
Cu2   O8    S    
C36   C37   S    
C10   N6    S    
N3    H9    S    
C29   C30   S    
N9    H48   S    
C34   H44   S    
C25   H15   S    
C1    O1    A    
C37   H54   S    
C38   H58   S    
C2    O9    S    
C23   H11   S    
N5    H20   S    
Cu2   O2    S    
C37   H56   S    
C19   C22   S    
N7    H30   S    
C29   H33   S    
C32   H39   S    
C31   H36   S    
C29   H32   S    
C11   H2    S    
C6    C21   T    
C17   C21   S    
C9    N5    S    
C17   O7    A    
C27   C28   S    
N6    H21   S    
C32   H40   S    
C30   H34   S    
C8    C12   S    
Cu1   O1    S    
Cu2   O4    S    
C3    C20   S    
C36   H53   S    
C33   H42   S    
C9    C11   S    
C28   H28   S    
C30   H35   S    
C24   H12   S    
C40   H61   S    
C1    C13   S    
N3    H8    S    
C39   H60   S    
C3    C4    S    
C7    C22   S    
C34   H45   S    
C25   H14   S    
C1    O2    A    
C5    H6    S    
C38   C39   S    
C23   H10   S    
Cu1   Cu2   S    
C18   C22   S    
C14   N1    D    
C28   H27   S    
C31   H38   S    
C37   H55   S    
C38   H57   S    
C20   N9    S    
Cu1   O5    S    
Cu2   N2    S    
C33   C34   S    
C35   C36   S    
C5    O14   S    
Cu1   N1    S    
C39   C40   S    
C18   N3    S    
C2    C3    S    
C19   O12   S    
C10   C16   S    
C32   C33   S    
C19   N8    S    
O12   C32   S    
C35   H51   S    
C15   N7    S    
C2    H1    S    
C33   H41   S    
C17   O8    A    
C4    H7    S    
C16   O6    A    
O11   C29   S    
C4    C5    S    
C30   C31   S    
O10   C26   S    
C40   H62   S    
C14   C15   S    
C13   H3    S    
C14   H4    S    
C39   H59   S    
C15   N2    D    
C16   O5    A    
N1    O10   S    
