data_mof_unit_66245.cif
_audit_creation_date              2013-03-05T16:20:57-0500
_audit_creation_method            fapswitch 2.2
_symmetry_space_group_name_H-M    P1
_symmetry_Int_Tables_number       1
_space_group_crystal_system       triclinic
_cell_length_a                    14.995558
_cell_length_b                    15.758105
_cell_length_c                    16.744194
_cell_angle_alpha                 89.874505
_cell_angle_beta                  83.166394
_cell_angle_gamma                 89.34668
_cell_volume                      3928.31399073

loop_
_atom_site_label
_atom_site_type_symbol
_atom_site_description
_atom_site_fract_x
_atom_site_fract_y
_atom_site_fract_z
_atom_type_partial_charge
O1    O     O_R   0.425740 0.622790 0.499920 -0.602906
O2    O     O_R   0.574190 0.622930 0.500090 -0.602874
C1    C     C_R   0.499452 0.662050 0.499945 0.901612
O3    O     O_R   0.417000 0.499930 0.615710 -0.578256
O4    O     O_R   0.565450 0.500080 0.615870 -0.602973
C2    C     C_R   0.485927 0.497133 0.653416 0.898951
Zn1   Zn    Zn3+2 0.400880 0.499910 0.499890 1.099291
Zn2   Zn    Zn3+2 0.599120 0.500090 0.500110 1.066275
O5    O     O_R   0.425810 0.377070 0.499910 -0.569867
O6    O     O_R   0.574260 0.377210 0.500080 -0.598010
O7    O     O_R   0.434550 0.499920 0.384130 -0.587088
O8    O     O_R   0.583000 0.500070 0.384290 -0.613022
C3    C     C_R   0.500602 0.337935 0.499323 0.923280
C4    C     C_R   0.513934 0.500569 0.346359 0.879275
C5    C     C_R   0.473198 0.474753 0.737733 -0.171610
C6    C     C_R   0.510711 0.525482 0.792505 -0.179917
C7    C     C_R   0.501529 0.502905 0.872872 -0.167684
C8    C     C_R   0.456968 0.428022 0.898903 -0.043068
C9    C     C_R   0.419529 0.375918 0.844060 0.165174
C10   C     C_R   0.427064 0.399848 0.762997 0.257306
C11   C     C_R   0.473885 0.505144 0.131057 -0.100490
C12   C     C_R   0.471223 0.530150 0.210610 0.153727
C13   C     C_R   0.585907 0.423434 0.229031 -0.195024
C14   C     C_R   0.587155 0.397935 0.149583 -0.095296
C15   C     C_R   0.528133 0.436107 0.101708 0.156347
C16   C     C_2   0.450438 0.407095 0.984486 0.284727
C17   C     C_2   0.526923 0.407877 0.019009 -0.318288
C18   C     C_R   0.525714 0.487260 0.260407 -0.095394
H1    H     H_    0.546437 0.582727 0.773084 0.180377
H2    H     H_    0.628484 0.390331 0.267136 0.184982
H3    H     H_    0.591469 0.404349 0.981777 0.170548
H4    H     H_    0.432509 0.538853 0.092377 0.169005
H5    H     H_    0.529670 0.543830 0.915165 0.171689
H6    H     H_    0.631579 0.346715 0.126371 0.172452
C19   C     C_3   0.445640 0.952574 0.432567 0.089204
C20   C     C_3   0.593526 0.950995 0.491907 0.016266
C21   C     C_3   0.592817 0.047585 0.503826 -0.450772
H7    H     H_    0.503190 0.068174 0.372621 0.235995
H8    H     H_    0.622531 0.938432 0.429119 0.215338
H9    H     H_    0.639510 0.077100 0.455126 0.217534
H10   H     H_    0.617695 0.063252 0.561978 0.231321
C22   C     C_1   0.501188 0.249243 0.499847 -0.047066
C23   C     C_3   0.494843 0.917219 0.503793 -0.022284
C24   C     C_3   0.457308 0.050143 0.426994 -0.437140
C25   C     C_3   0.496068 0.082838 0.503070 0.061151
C26   C     C_3   0.437312 0.051577 0.580462 -0.014455
C27   C     C_3   0.440193 0.951626 0.584239 0.180547
C28   C     C_1   0.499617 0.174105 0.501134 0.040369
C29   C     C_1   0.496481 0.825829 0.502318 0.062308
C30   C     C_1   0.497984 0.750679 0.501010 -0.064067
H11   H     H_    0.372498 0.941228 0.446800 0.171036
H12   H     H_    0.391315 0.080962 0.420936 0.212849
H13   H     H_    0.467265 0.077113 0.632959 0.183485
C31   C     C_3   0.944224 0.589177 0.511238 0.175644
C32   C     C_3   0.958785 0.451095 0.419440 0.258566
C33   C     C_3   0.064658 0.461619 0.416642 -0.009104
H14   H     H_    0.074849 0.620852 0.449385 0.168404
H15   H     H_    0.083443 0.513241 0.372785 0.133659
N1    N     N_1   0.268730 0.501370 0.501580 -0.053412
C34   C     C_3   0.909549 0.494875 0.499340 -0.260489
C35   C     C_3   0.049950 0.588626 0.506614 -0.092498
C36   C     C_3   0.090686 0.495574 0.500334 -0.222951
C37   C     C_3   0.044446 0.439338 0.572053 0.233507
C38   C     C_3   0.938230 0.443319 0.574568 0.019045
C39   C     C_1   0.190961 0.499407 0.501060 0.301677
C40   C     C_1   0.809120 0.497198 0.498746 0.322292
N2    N     N_1   0.731270 0.498640 0.498400 -0.058590
H16   H     H_    0.913381 0.480340 0.628416 0.156471
N3    N     N_R   0.473778 0.910505 0.355045 0.229728
O9    O     O_R   0.418902 0.859032 0.325524 -0.318870
O10   O     O_R   0.549484 0.928185 0.312195 -0.360986
I1    I     I_    0.695116 0.888249 0.553071 -0.155228
I2    I     I_    0.308893 0.891161 0.605776 -0.155410
I3    I     I_    0.495445 0.913645 0.692655 -0.187415
I4    I     I_    0.305327 0.112871 0.594529 -0.079362
I5    I     I_    0.384883 0.633250 0.250798 -0.138364
I6    I     I_    0.902878 0.684672 0.429381 -0.169011
N4    N     N_R   0.930452 0.361486 0.415663 0.274048
O11   O     O_R   0.852307 0.344197 0.393441 -0.315649
O12   O     O_R   0.979098 0.298438 0.436879 -0.266382
I7    I     I_    0.921887 0.504595 0.306956 -0.122516
N5    N     N_R   0.116657 0.388584 0.379473 0.272445
O13   O     O_R   0.193088 0.364963 0.402208 -0.340861
O14   O     O_R   0.098394 0.361942 0.309748 -0.256563
N6    N     N_R   0.895035 0.360450 0.592341 0.255252
O15   O     O_R   0.907555 0.322818 0.659464 -0.304186
O16   O     O_R   0.826404 0.336724 0.557569 -0.307194
I8    I     I_    0.078614 0.479759 0.688303 -0.097369
I9    I     I_    0.876780 0.646917 0.621578 -0.167224
I10   I     I_    0.111402 0.679285 0.580979 -0.132753
I11   I     I_    0.102540 0.311969 0.571029 0.088422
I12   I     I_    0.356397 0.259098 0.880965 -0.005607
N7    N     N_R   0.392643 0.345583 0.705747 0.205740
O17   O     O_R   0.434924 0.275354 0.683902 -0.399871
O18   O     O_R   0.313211 0.360087 0.684471 -0.318495
N8    N     N_R   0.363343 0.401168 0.031087 0.227957
O19   O     O_R   0.292843 0.434085 0.003960 -0.316643
O20   O     O_R   0.353049 0.357116 0.097338 -0.304721

loop_
_geom_bond_atom_site_label_1
_geom_bond_atom_site_label_2
_geom_bond_distance
_ccdc_geom_bond_type
C32   C33   1.593263 S    
N7    O17   1.300414 A    
C37   I8    2.169639 S    
C9    C10   1.399843 A    
C8    C16   1.461900 S    
C12   I5    2.125586 S    
C10   N7    1.431065 S    
C31   C34   1.600588 S    
N6    O15   1.301858 A    
C24   C25   1.553005 S    
Zn1   O7    1.943983 S    
C16   C17   1.344577 D    
C38   H16   1.099788 S    
C20   C21   1.535285 S    
C21   H9    1.114193 S    
O4    C2    1.281462 A    
O7    C4    1.279939 A    
N4    O12   1.299614 A    
C5    C6    1.390254 A    
C8    C9    1.403247 A    
N3    O10   1.301435 A    
O5    C3    1.272752 A    
C3    C22   1.397563 S    
C9    I12   2.135984 S    
C2    C5    1.445441 S    
C6    C7    1.382500 A    
N8    O20   1.301768 A    
C13   C14   1.388428 A    
C32   I7    2.189685 S    
C19   C23   1.572970 S    
C31   I6    2.167810 S    
C24   H12   1.112741 S    
C40   N2    1.168066 T    
C34   C40   1.507228 S    
N7    O18   1.300909 A    
C12   C18   1.402417 A    
C11   C12   1.385823 A    
N3    O9    1.301221 A    
C7    H5    1.083870 S    
O3    Zn1   1.982657 S    
Zn1   N1    1.978369 S    
C26   I4    2.179918 S    
C1    C30   1.396672 S    
N6    O16   1.300107 A    
C16   N8    1.443349 S    
C5    C10   1.413359 A    
C11   H4    1.083153 S    
C17   H3    1.088084 S    
C13   H2    1.083841 S    
C14   C15   1.393673 A    
C27   I2    2.187890 S    
C31   I9    2.192227 S    
O3    C2    1.273976 A    
C32   N4    1.482875 S    
N4    O11   1.302822 A    
C23   C29   1.440277 S    
C6    H1    1.083870 S    
C25   C26   1.560014 S    
C14   H6    1.083422 S    
O1    C1    1.272891 A    
H7    C24   1.112318 S    
C36   C37   1.587262 S    
Zn2   O8    1.982657 S    
N8    O19   1.301453 A    
C7    C8    1.405485 A    
C22   C28   1.184635 T    
C13   C18   1.403962 A    
C33   N5    1.478884 S    
C19   C24   1.550758 S    
O8    C4    1.277659 A    
N5    O13   1.300216 A    
N5    O14   1.301982 A    
C19   H11   1.110770 S    
C33   C36   1.593942 S    
C21   C25   1.549054 S    
C38   N6    1.478200 S    
C35   I10   2.179787 S    
C25   C28   1.439926 S    
Zn1   O5    1.967310 S    
C11   C15   1.404910 A    
C26   C27   1.576480 S    
C36   C39   1.507071 S    
O1    Zn1   1.976098 S    
C20   H8    1.106256 S    
O2    Zn2   1.967311 S    
C27   I3    2.163794 S    
O6    C3    1.273644 A    
O4    Zn2   1.943981 S    
H14   C35   1.110220 S    
C31   C35   1.578010 S    
C15   C17   1.457582 S    
C34   C38   1.596309 S    
O2    C1    1.273170 A    
N1    C39   1.168015 T    
C26   H13   1.111744 S    
C33   H15   1.110738 S    
C21   H10   1.112574 S    
C35   C36   1.580914 S    
C37   C38   1.588828 S    
C19   N3    1.472917 S    
Zn2   N2    1.978332 S    
Zn2   O6    1.976097 S    
C29   C30   1.184383 T    
C37   I11   2.178148 S    
C20   C23   1.568482 S    
C4    C18   1.444463 S    
C32   C34   1.602595 S    
C23   C27   1.584405 S    
C20   I1    2.163261 S    
