data_mof_unit_67056.cif
_audit_creation_date              2013-03-05T15:58:16-0500
_audit_creation_method            fapswitch 2.2
_symmetry_space_group_name_H-M    P1
_symmetry_Int_Tables_number       1
_space_group_crystal_system       triclinic
_cell_length_a                    8.228105
_cell_length_b                    12.66608
_cell_length_c                    14.482247
_cell_angle_alpha                 93.578389
_cell_angle_beta                  91.421923
_cell_angle_gamma                 98.326369
_cell_volume                      1489.61154995

loop_
_atom_site_label
_atom_site_type_symbol
_atom_site_description
_atom_site_fract_x
_atom_site_fract_y
_atom_site_fract_z
_atom_type_partial_charge
P1    P     P_3+3 0.054400 0.427280 0.286870 0.501988
O1    O     O_2   0.887370 0.460630 0.272300 -0.322457
O2    O     O_3   0.129410 0.451380 0.388510 -0.424700
O3    O     O_3   0.670210 0.653170 0.329170 -0.372972
O4    O     O_2   0.786455 0.595325 0.166517 -0.383770
O5    O     O_3   0.015629 0.288211 0.266927 -0.516848
O6    O     O_3   0.701054 0.786361 0.179921 -0.520529
H1    H     H_    0.706879 0.897548 0.290479 0.126634
C1    C     C_3   0.547200 0.933560 0.179569 -0.998153
H2    H     H_    0.466759 0.978591 0.222362 0.241079
H3    H     H_    0.645920 0.991676 0.153189 0.284925
P2    P     P_3+3 0.668300 0.742890 0.573060 0.448140
P3    P     P_3+3 0.131136 0.841121 0.369003 0.451201
O7    O     O_2   0.845380 0.761330 0.544970 -0.404795
O8    O     O_3   0.088930 0.704860 0.376040 -0.384455
O9    O     O_2   0.998308 0.888009 0.425671 -0.374764
O10   O     O_3   0.664872 0.760391 0.695185 -0.605324
O11   O     O_3   0.090413 0.866850 0.253683 -0.529692
C2    C     C_3   0.132321 0.782512 0.194836 0.397261
H4    H     H_    0.068933 0.703774 0.213260 0.130662
H5    H     H_    0.266269 0.781399 0.199952 -0.011260
C3    C     C_3   0.082541 0.793497 0.093209 -0.415833
H6    H     H_    0.956394 0.750802 0.076821 0.226597
C4    C     C_3   0.286799 0.762167 0.679461 0.397502
H7    H     H_    0.396546 0.795968 0.722532 0.141391
H8    H     H_    0.322547 0.708830 0.622132 0.124647
C5    C     C_3   0.217183 0.854813 0.638923 -1.035001
H9    H     H_    0.150140 0.897389 0.691045 0.276678
H10   H     H_    0.317322 0.913491 0.614689 0.227193
H11   H     H_    0.133412 0.824447 0.579588 0.300718
Ba1   Ba    Ba6+2 0.855630 0.555280 0.454520 1.564493
C6    C     C_3   0.963016 0.239348 0.346811 0.444896
H12   H     H_    0.849607 0.268389 0.369868 0.085121
H13   H     H_    0.058899 0.255412 0.403000 0.123125
C7    C     C_3   0.928956 0.119373 0.323032 -0.933394
H14   H     H_    0.825279 0.100908 0.271411 0.263754
H15   H     H_    0.896881 0.075824 0.385308 0.233445
H16   H     H_    0.039916 0.091178 0.293855 0.272415
C8    C     C_3   0.817132 0.763216 0.742754 0.658485
H17   H     H_    0.914451 0.747416 0.695948 0.131194
C9    C     C_3   0.869305 0.873521 0.793111 -1.022958
H18   H     H_    0.869041 0.938249 0.745540 0.251212
H19   H     H_    0.994554 0.878366 0.825025 0.240308
H20   H     H_    0.785360 0.887884 0.849193 0.305327
P4    P     P_3+3 0.135310 0.572810 0.713130 0.455025
O12   O     O_2   0.302330 0.539400 0.727760 -0.367755
O13   O     O_3   0.060300 0.548700 0.611500 -0.378596
O14   O     O_3   0.519500 0.346920 0.670840 -0.366886
O15   O     O_3   0.173898 0.711217 0.739030 -0.605452
P5    P     P_3+3 0.061578 0.155871 0.621286 0.439703
O16   O     O_3   0.614310 0.373510 0.452640 -0.403555
O17   O     O_3   0.100780 0.295230 0.623970 -0.391303
O18   O     O_2   0.196849 0.111796 0.564751 -0.377224
O19   O     O_3   0.096678 0.121084 0.734011 -0.544247
Ba2   Ba    Ba6+2 0.334200 0.444810 0.545490 1.554059
P6    P     P_3+3 0.650481 0.653670 0.208823 0.465096
C10   C     C_3   0.618186 0.853527 0.237492 0.421842
H21   H     H_    0.515295 0.810210 0.274601 0.040524
H22   H     H_    0.473908 0.890893 0.119559 0.277881
O20   O     O_3   0.575400 0.626570 0.547370 -0.365959
C11   C     C_3   0.462632 0.312037 0.266906 0.488572
H23   H     H_    0.364286 0.344193 0.306117 0.080467
H24   H     H_    0.572448 0.374389 0.268504 0.144336
C12   C     C_3   0.399499 0.285250 0.167940 -0.952758
H25   H     H_    0.270940 0.244424 0.167918 0.260873
H26   H     H_    0.403412 0.358563 0.129709 0.235039
H27   H     H_    0.477710 0.232139 0.132628 0.299277
P7    P     P_3+3 0.525119 0.240871 0.422780 0.413601
O21   O     O_2   0.344320 0.238700 0.455090 -0.375090
O22   O     O_3   0.504587 0.218900 0.302900 -0.578217
H28   H     H_    0.165382 0.753310 0.048191 0.144291
C13   C     C_3   0.040913 0.198143 0.794656 0.390300
H29   H     H_    0.116790 0.277791 0.790902 0.135052
H30   H     H_    0.911537 0.205586 0.777923 0.004538
C14   C     C_3   0.050896 0.164798 0.893048 -0.413581
H31   H     H_    0.965225 0.205258 0.935215 0.208856
H32   H     H_    0.011104 0.077098 0.893214 0.228872
P8    P     P_3+3 0.536543 0.342691 0.789278 0.478856
C15   C     C_3   0.524946 0.140916 0.748905 0.343943
H33   H     H_    0.657443 0.161010 0.736690 0.002959
O23   O     O_2   0.409599 0.408176 0.832395 -0.397710
O24   O     O_3   0.472299 0.211328 0.816704 -0.497205
H34   H     H_    0.455501 0.143505 0.682531 0.108780
C16   C     C_3   0.491340 0.026874 0.779718 -0.108999
H35   H     H_    0.540499 0.972279 0.728142 0.058660
H36   H     H_    0.356367 0.003974 0.782344 0.151062
C17   C     C_R   0.988260 0.427582 0.052742 0.358807
C18   C     C_R   0.179444 0.492286 0.193384 0.250497
C19   C     C_R   0.332634 0.547006 0.224398 -0.533450
C20   C     C_R   0.444813 0.593566 0.163459 0.276968
C21   C     C_R   0.399650 0.596046 0.070267 -0.277800
C22   C     C_R   0.245583 0.544647 0.034951 0.034140
C23   C     C_R   0.135059 0.486706 0.094947 -0.176836
H37   H     H_    0.368206 0.549827 0.297071 0.167845
C24   C     C_R   0.055694 0.496299 0.899041 -0.048684
C25   C     C_R   0.946040 0.436844 0.957845 -0.094504
C26   C     C_R   0.010583 0.497975 0.801793 0.234492
C27   C     C_R   0.855904 0.446492 0.769852 -0.433893
C28   C     C_R   0.745648 0.395906 0.829926 0.226715
C29   C     C_R   0.791926 0.387176 0.921024 -0.248769
C30   C     C_R   0.204563 0.550007 0.939678 -0.143465
H38   H     H_    0.485507 0.638326 0.025435 0.153211
H39   H     H_    0.702848 0.342111 0.962268 0.216839
H40   H     H_    0.817607 0.450358 0.698270 0.179217
H41   H     H_    0.290000 0.597266 0.897702 0.170600
C31   C     C_R   0.762759 0.176080 0.534824 -0.515651
C32   C     C_R   0.426965 0.811511 0.459344 -0.476369
C33   C     C_R   0.404534 0.993172 0.425711 -0.218666
C34   C     C_R   0.339529 0.885580 0.419847 0.207156
C35   C     C_R   0.574331 0.844910 0.510687 0.264974
C36   C     C_R   0.640902 0.955750 0.517990 -0.065080
C37   C     C_R   0.554067 0.030127 0.474776 -0.053876
C38   C     C_R   0.618008 0.140215 0.483238 0.265869
C39   C     C_R   0.854468 0.104142 0.571750 0.217686
C40   C     C_R   0.793042 0.994997 0.564966 -0.229736
H42   H     H_    0.333921 0.047004 0.393261 0.186177
H43   H     H_    0.868821 0.942600 0.594078 0.180395
H44   H     H_    0.810411 0.260564 0.540778 0.169768
H45   H     H_    0.375335 0.727756 0.454449 0.176106
N1    N     N_2   0.804549 0.682067 0.809947 -0.127985
H46   H     H_    0.910840 0.684446 0.849773 0.155095
C41   C     C_3   0.659423 0.668098 0.864918 -0.806635
H47   H     H_    0.661666 0.597119 0.905871 0.230433
H48   H     H_    0.546338 0.653978 0.820067 0.283936
H49   H     H_    0.656968 0.738952 0.913682 0.252564
N2    N     N_2   0.216347 0.196193 0.930757 -0.054328
H50   H     H_    0.241037 0.273920 0.958944 0.213181
C42   C     C_3   0.284349 0.119241 0.983244 -0.667168
H51   H     H_    0.229798 0.117131 0.051961 0.206908
H52   H     H_    0.418829 0.143149 0.992220 0.282389
H53   H     H_    0.261020 0.038685 0.946511 0.255571
N3    N     N_R   0.564317 0.015446 0.870950 0.262579
O25   O     O_R   0.515988 0.930039 0.914173 -0.447411
O26   O     O_R   0.678014 0.088016 0.909427 -0.424352
N4    N     N_R   0.886234 0.350555 0.101850 0.251813
O27   O     O_R   0.740853 0.369698 0.123949 -0.415595
O28   O     O_R   0.913535 0.251841 0.095604 -0.416023
N5    N     N_2   0.095893 0.903989 0.070391 -0.093803
H54   H     H_    0.200818 0.950897 0.097705 0.210586
C43   C     C_3   0.947775 0.952605 0.078579 -0.648176
H55   H     H_    0.965222 0.032124 0.049853 0.240745
H56   H     H_    0.918101 0.963631 0.152321 0.271518
H57   H     H_    0.843542 0.902769 0.039111 0.262063

loop_
_geom_bond_atom_site_label_1
_geom_bond_atom_site_label_2
_geom_bond_distance
_ccdc_geom_bond_type
C11   O22   1.402975 S    
O14   Ba2   2.801521 S    
O5    C6    1.394823 S    
C4    H7    1.102056 S    
N2    H50   1.031958 S    
C5    H10   1.106347 S    
C9    H19   1.110833 S    
C9    H18   1.103507 S    
O4    P6    1.546024 D    
C24   C25   1.424013 A    
C4    C5    1.521110 S    
O7    Ba1   2.859508 S    
C42   H51   1.102078 S    
P2    C35   1.866530 S    
C39   C40   1.398023 A    
C20   C21   1.394396 A    
N4    O27   1.298246 A    
C8    C9    1.533518 S    
P4    O12   1.509213 D    
P5    O19   1.745250 S    
P5    C39   1.845335 S    
P3    O11   1.754843 S    
C31   C39   1.387642 A    
C7    H15   1.104113 S    
C4    H8    1.109898 S    
O11   C2    1.412078 S    
C15   C16   1.527412 S    
C8    N1    1.453669 S    
C25   C29   1.407700 A    
P1    Ba1   3.416422 S    
C33   C34   1.386586 A    
P1    O1    1.508855 D    
O10   C8    1.409438 S    
O14   P8    1.722308 S    
C19   H37   1.082411 S    
C11   H24   1.109368 S    
C35   C36   1.427599 A    
P3    C34   1.845362 S    
O2    Ba2   2.808705 S    
C36   C37   1.426884 A    
N3    O25   1.300951 A    
C40   H43   1.071776 S    
O12   Ba2   2.864025 S    
P5    O17   1.745605 S    
C43   H57   1.111106 S    
C1    H2    1.110427 S    
O16   Ba2   2.922460 S    
O17   Ba2   2.809492 S    
P7    C38   1.834266 S    
P1    C18   1.879483 S    
P6    C20   1.839611 S    
Ba1   O13   2.808149 S    
Ba2   O20   2.811713 S    
C31   H44   1.082365 S    
C5    H11   1.101823 S    
C32   C34   1.402494 A    
O6    P6    1.751269 S    
C13   C14   1.514904 S    
C32   H45   1.081419 S    
C37   C38   1.413900 A    
N1    C41   1.447260 S    
C26   C27   1.397059 A    
P4    O13   1.576289 S    
C30   H41   1.080194 S    
P5    O18   1.545628 D    
C31   C38   1.392777 A    
P1    O5    1.748454 S    
C6    C7    1.520824 S    
C17   N4    1.428777 S    
C2    C3    1.537994 S    
C16   H35   1.109606 S    
C13   H30   1.104505 S    
C21   C22   1.407010 A    
P7    O21   1.567506 D    
C16   N3    1.461802 S    
C29   H39   1.078381 S    
C33   C37   1.409289 A    
O1    Ba1   2.863474 S    
C1    H22   1.109959 S    
C7    H14   1.109080 S    
C6    H13   1.107683 S    
Ba1   O20   2.923244 S    
P2    O10   1.770132 S    
C11   C12   1.513421 S    
C14   H31   1.104249 S    
C12   H27   1.107689 S    
H1    C10   1.110526 S    
C1    H3    1.106763 S    
P8    O24   1.744639 S    
C28   C29   1.379589 A    
P4    O15   1.750884 S    
C17   C25   1.425288 A    
C7    H16   1.111017 S    
C43   H55   1.105217 S    
O2    Ba1   2.920412 S    
C14   H32   1.111835 S    
Ba2   O21   2.859706 S    
N5    C43   1.447044 S    
C22   C30   1.420385 A    
N3    O26   1.300654 A    
P2    O7    1.511855 D    
P3    O8    1.720412 S    
P2    Ba1   3.413592 S    
C32   C35   1.403406 A    
C21   H38   1.078887 S    
C41   H48   1.107696 S    
C42   H53   1.109677 S    
C3    H28   1.109009 S    
C8    H17   1.094144 S    
N1    H46   1.031309 S    
O13   Ba2   2.921178 S    
C4    O15   1.399756 S    
N4    O28   1.300071 A    
C18   C23   1.457667 A    
N2    C42   1.438810 S    
C2    H5    1.104975 S    
Ba1   O16   2.812383 S    
C13   H29   1.112016 S    
C42   H52   1.106291 S    
C15   O24   1.403858 S    
C24   C26   1.449746 A    
O8    Ba1   2.808903 S    
C43   H56   1.106260 S    
P8    C28   1.823574 S    
C3    N5    1.447365 S    
C14   N2    1.445285 S    
Ba1   Ba2   4.557144 S    
C12   H25   1.108087 S    
C33   H42   1.079131 S    
C2    H4    1.107835 S    
C19   C20   1.387938 A    
P4    C26   1.880432 S    
C6    H12   1.103227 S    
C15   H34   1.110708 S    
P8    O23   1.545156 D    
C10   H21   1.109705 S    
C41   H49   1.109679 S    
C27   H40   1.082107 S    
C17   C23   1.427452 A    
C22   C23   1.430403 A    
C9    H20   1.102551 S    
C1    C10   1.525034 S    
O16   P7    1.756274 S    
C11   H23   1.110204 S    
O3    Ba1   2.802106 S    
N5    H54   1.029553 S    
C15   H33   1.104282 S    
P2    O20   1.576284 S    
O19   C13   1.406147 S    
C18   C19   1.396744 A    
P4    Ba2   3.416880 S    
P7    O22   1.741170 S    
C27   C28   1.389556 A    
P3    O9    1.546731 D    
C5    H9    1.104947 S    
C3    H6    1.111446 S    
C16   H36   1.108658 S    
C36   C40   1.418557 A    
P1    O2    1.576412 S    
C41   H47   1.109577 S    
O6    C10   1.411204 S    
O3    P6    1.746911 S    
C24   C30   1.407992 A    
C12   H26   1.107374 S    
