data_mof_unit_46613.cif
_audit_creation_date              2012-12-11T15:50:29-0500
_audit_creation_method            fapswitch 2.2
_symmetry_space_group_name_H-M    P1
_symmetry_Int_Tables_number       1
_space_group_crystal_system       triclinic
_cell_length_a                    19.332245
_cell_length_b                    11.145394
_cell_length_c                    18.655107
_cell_angle_alpha                 90.196126
_cell_angle_beta                  91.636961
_cell_angle_gamma                 89.486786
_cell_volume                      4017.70998094

loop_
_atom_site_label
_atom_site_type_symbol
_atom_type_description
_atom_site_fract_x
_atom_site_fract_y
_atom_site_fract_z
_atom_type_partial_charge
C1    C     C_R   0.271817 0.043079 0.852546 0.540992
C2    C     C_R   0.747718 0.594088 0.919877 -0.007358
C3    C     C_R   0.229425 0.550004 0.351787 0.533679
C4    C     C_R   0.470011 0.824335 0.647634 0.542720
C5    C     C_R   0.533204 0.822707 0.354254 0.554214
C6    C     C_R   0.970011 0.324335 0.647634 0.542720
C7    C     C_R   0.033204 0.322707 0.354254 0.554214
C8    C     C_R   0.274303 0.689689 0.637023 0.581344
C9    C     C_R   0.739965 0.641440 0.356836 0.546891
C10   C     C_R   0.774304 0.189689 0.637023 0.581344
C11   C     C_R   0.239965 0.141441 0.356836 0.546891
C12   C     C_3   0.482785 0.901255 0.031499 0.039766
C13   C     C_R   0.744265 0.086747 0.077470 0.027724
C14   C     C_3   0.525948 0.944761 0.968865 0.042661
C15   C     C_3   0.982784 0.401255 0.031499 0.039766
C16   C     C_3   0.025948 0.444761 0.968865 0.042661
C17   C     C_3   0.460319 0.790724 0.987597 -0.136071
C18   C     C_3   0.589792 0.873776 0.999492 -0.145869
C19   C     C_3   0.960319 0.290724 0.987597 -0.136071
C20   C     C_3   0.089792 0.373776 0.999492 -0.145869
C21   C     C_3   0.504226 0.833828 0.925477 0.050337
C22   C     C_3   0.544969 0.828288 0.061001 0.046286
C23   C     C_3   0.004226 0.333827 0.925477 0.050337
C24   C     C_R   0.247718 0.094088 0.919877 -0.007358
C25   C     C_3   0.044969 0.328288 0.061001 0.046286
C26   C     C_3   0.502963 0.065968 0.565961 -0.270074
C27   C     C_3   0.439677 0.138930 0.582292 -0.385547
C28   C     C_3   0.430695 0.997320 0.416291 -0.248993
C29   C     C_3   0.454043 0.118655 0.388992 -0.423528
C30   C     C_3   0.002963 0.565968 0.565961 -0.270073
C31   C     C_3   0.939679 0.638930 0.582293 -0.385548
C32   C     C_3   0.930695 0.497321 0.416291 -0.248993
C33   C     C_3   0.954043 0.618656 0.388993 -0.423531
C34   C     C_3   0.431533 0.973098 0.076357 -0.254830
C35   C     C_R   0.309450 0.578725 0.047573 -0.013719
C36   C     C_3   0.458874 0.096424 0.099563 -0.410647
C37   C     C_3   0.532066 0.070425 0.937707 -0.286659
C38   C     C_3   0.464013 0.125807 0.912163 -0.398315
C39   C     C_3   0.931533 0.473098 0.076357 -0.254830
C40   C     C_3   0.958874 0.596424 0.099563 -0.410647
C41   C     C_3   0.032067 0.570425 0.937707 -0.286658
C42   C     C_3   0.964013 0.625807 0.912163 -0.398315
C43   C     C_3   0.426278 0.514775 0.101915 -0.302361
C44   C     C_3   0.417505 0.472569 0.178772 -0.389591
C45   C     C_3   0.583439 0.427253 0.923293 -0.300401
C46   C     C_R   0.689449 0.553498 0.956167 -0.006648
C47   C     C_3   0.582810 0.435817 0.841784 -0.400475
C48   C     C_3   0.926278 0.014775 0.101915 -0.302361
C49   C     C_3   0.917505 0.972568 0.178771 -0.389591
C50   C     C_3   0.083439 0.927253 0.923293 -0.300398
C51   C     C_3   0.082811 0.935818 0.841783 -0.400472
C52   C     C_R   0.809450 0.078725 0.047573 -0.013719
C53   C     C_R   0.189449 0.053498 0.956167 -0.006648
C54   C     C_R   0.316967 0.597371 0.974645 0.001038
C55   C     C_R   0.685676 0.568502 0.030314 0.014368
C56   C     C_R   0.816967 0.097371 0.974645 0.001038
C57   C     C_R   0.727167 0.042470 0.147374 0.541180
C58   C     C_R   0.185676 0.068502 0.030314 0.014368
C59   C     C_R   0.195781 0.638267 0.961152 -0.183349
C60   C     C_R   0.793332 0.672093 0.031784 -0.170447
C61   C     C_R   0.695781 0.138267 0.961152 -0.183349
C62   C     C_R   0.293332 0.172093 0.031784 -0.170447
C63   C     C_R   0.188839 0.626881 0.033830 -0.127356
C64   C     C_R   0.794378 0.665620 0.958154 -0.184129
C65   C     C_R   0.688839 0.126881 0.033830 -0.127356
C66   C     C_R   0.294378 0.165620 0.958154 -0.184129
C67   C     C_3   0.364638 0.484498 0.051459 -0.087843
C68   C     C_R   0.771817 0.543079 0.852546 0.540992
C69   C     C_3   0.656656 0.432650 0.958346 -0.080546
C70   C     C_3   0.864639 0.984498 0.051459 -0.087842
C71   C     C_3   0.156656 0.932650 0.958346 -0.080546
C72   C     C_3   0.376775 0.511336 0.972091 -0.030433
C73   C     C_3   0.654358 0.448132 0.039860 -0.036803
C74   C     C_3   0.876775 0.011336 0.972091 -0.030433
C75   C     C_3   0.154358 0.948133 0.039860 -0.036803
C76   C     C_R   0.258532 0.614258 0.929189 0.003364
C77   C     C_R   0.740556 0.619233 0.069634 0.011625
C78   C     C_R   0.758532 0.114257 0.929189 0.003364
C79   C     C_R   0.227167 0.542470 0.147374 0.541180
C80   C     C_R   0.240556 0.119233 0.069634 0.011626
C81   C     C_R   0.517549 0.827954 0.429848 -0.003055
C82   C     C_R   0.504209 0.839949 0.579418 -0.006789
C83   C     C_R   0.017549 0.327954 0.429848 -0.003054
C84   C     C_R   0.004209 0.339949 0.579418 -0.006789
C85   C     C_R   0.471942 0.822237 0.853918 0.545706
C86   C     C_R   0.562126 0.817156 0.138339 0.559878
C87   C     C_R   0.971942 0.322238 0.853918 0.545706
C88   C     C_R   0.062126 0.317156 0.138339 0.559878
C89   C     C_R   0.549774 0.742647 0.475404 0.001045
C90   C     C_3   0.567192 0.763476 0.954043 -0.145770
C91   C     C_R   0.537908 0.744486 0.547648 -0.001516
C92   C     C_R   0.049775 0.242647 0.475404 0.001045
C93   C     C_R   0.037908 0.244486 0.547648 -0.001517
C94   C     C_R   0.489158 0.942181 0.536084 -0.001567
C95   C     C_R   0.485238 0.928635 0.460362 -0.023716
C96   C     C_R   0.989158 0.442181 0.536084 -0.001566
C97   C     C_R   0.985238 0.428636 0.460363 -0.023716
C98   C     C_3   0.547094 0.607069 0.475061 0.021227
C99   C     C_3   0.531621 0.612308 0.554719 -0.035340
C100  C     C_3   0.047094 0.107069 0.475061 0.021226
C101  C     C_3   0.523572 0.718656 0.016276 -0.140407
C102  C     C_3   0.031621 0.112308 0.554718 -0.035341
C103  C     C_R   0.254600 0.618451 0.413642 0.003088
C104  C     C_R   0.747204 0.587699 0.578407 0.044044
C105  C     C_R   0.754600 0.118451 0.413643 0.003088
C106  C     C_R   0.247204 0.087699 0.578407 0.044043
C107  C     C_R   0.209436 0.697423 0.447544 0.077565
C108  C     C_R   0.781719 0.681334 0.548255 -0.009751
C109  C     C_R   0.709436 0.197423 0.447544 0.077564
C110  C     C_R   0.281718 0.181335 0.548255 -0.009751
C111  C     C_R   0.218191 0.720631 0.519600 -0.007552
C112  C     C_3   0.067192 0.263476 0.954043 -0.145770
C113  C     C_R   0.784663 0.690694 0.475742 -0.015427
C114  C     C_R   0.718191 0.220630 0.519600 -0.007552
C115  C     C_R   0.284663 0.190695 0.475742 -0.015427
C116  C     C_R   0.326679 0.616873 0.522162 -0.154511
C117  C     C_R   0.720964 0.509186 0.458596 -0.194556
C118  C     C_R   0.826679 0.116872 0.522162 -0.154511
C119  C     C_R   0.220964 0.009186 0.458596 -0.194556
C120  C     C_R   0.317182 0.589979 0.448842 -0.189618
C121  C     C_R   0.717106 0.501293 0.532622 -0.130596
C122  C     C_R   0.817182 0.089978 0.448842 -0.189618
C123  C     C_3   0.023572 0.218656 0.016277 -0.140408
C124  C     C_R   0.217106 0.001294 0.532622 -0.130595
C125  C     C_3   0.132640 0.689907 0.454438 -0.046756
C126  C     C_3   0.779428 0.813837 0.559642 -0.042509
C127  C     C_3   0.632640 0.189907 0.454438 -0.046757
C128  C     C_3   0.279428 0.313838 0.559642 -0.042509
C129  C     C_3   0.143880 0.706842 0.534002 -0.240049
C130  C     C_3   0.783718 0.823684 0.478591 -0.187083
C131  C     C_3   0.643880 0.206842 0.534003 -0.240048
C132  C     C_3   0.283718 0.323685 0.478591 -0.187082
C133  C     C_R   0.263576 0.644388 0.854023 0.556326
C134  C     C_R   0.244265 0.586747 0.077470 0.027724
C135  C     C_R   0.736837 0.644189 0.145996 0.533783
C136  C     C_R   0.763576 0.144388 0.854023 0.556326
C137  C     C_R   0.236837 0.144189 0.145996 0.533783
C138  C     C_R   0.273655 0.675068 0.559273 0.022314
C139  C     C_R   0.751338 0.609033 0.429865 0.006067
C140  C     C_R   0.773654 0.175067 0.559273 0.022315
C141  C     C_R   0.251338 0.109034 0.429866 0.006067
C142  C     C_R   0.270042 0.047391 0.647955 0.541907
C143  C     C_R   0.729425 0.050004 0.351787 0.533680
C144  C     C_R   0.770042 0.547391 0.647955 0.541908
Cr1   Cr    Cr6+3 0.229640 0.835880 0.747370 0.964973
Cr2   Cr    Cr6+3 0.614230 0.677220 0.250660 1.009877
Cr3   Cr    Cr6+3 0.885770 0.177220 0.749340 0.984577
Cr4   Cr    Cr6+3 0.114230 0.177220 0.250660 1.009877
Cr5   Cr    Cr6+3 0.770360 0.835880 0.252630 0.963957
Cr6   Cr    Cr6+3 0.729640 0.335880 0.747370 0.964973
Cr7   Cr    Cr6+3 0.270360 0.335880 0.252630 0.963957
Cr8   Cr    Cr6+3 0.387390 0.989720 0.750850 0.963818
Cr9   Cr    Cr6+3 0.612610 0.989720 0.249150 0.975846
Cr10  Cr    Cr6+3 0.887390 0.489720 0.750850 0.963817
Cr11  Cr    Cr6+3 0.112610 0.489720 0.249150 0.975846
Cr12  Cr    Cr6+3 0.385770 0.677220 0.749340 0.984577
H1    H     H_    0.405658 0.764210 0.982058 0.106966
H2    H     H_    0.695894 0.443918 0.424130 0.174765
H3    H     H_    0.962639 0.635930 0.852957 0.178401
H4    H     H_    0.921023 0.568659 0.929024 0.195330
H5    H     H_    0.957840 0.717034 0.935229 0.130232
H6    H     H_    0.053193 0.629340 0.980177 0.123224
H7    H     H_    0.066974 0.564802 0.891612 0.145062
H8    H     H_    0.399734 0.378117 0.179892 0.158156
H9    H     H_    0.468050 0.477724 0.208409 0.140887
H10   H     H_    0.380697 0.532202 0.206686 0.179262
H11   H     H_    0.472821 0.468488 0.081330 0.129843
H12   H     H_    0.434251 0.613124 0.103340 0.180252
H13   H     H_    0.870833 0.080457 0.550952 0.120296
H14   H     H_    0.604957 0.522425 0.824815 0.164163
H15   H     H_    0.612081 0.359882 0.818567 0.187540
H16   H     H_    0.528563 0.431467 0.820740 0.117068
H17   H     H_    0.559646 0.341186 0.938374 0.139022
H18   H     H_    0.550130 0.500214 0.943654 0.145285
H19   H     H_    0.899734 0.878116 0.179892 0.158156
H20   H     H_    0.968051 0.977723 0.208409 0.140887
H21   H     H_    0.880697 0.032202 0.206686 0.179262
H22   H     H_    0.972821 0.968487 0.081330 0.129843
H23   H     H_    0.934251 0.113123 0.103340 0.180252
H24   H     H_    0.195894 0.943918 0.424130 0.174766
H25   H     H_    0.104957 0.022427 0.824814 0.164161
H26   H     H_    0.112083 0.859883 0.818566 0.187542
H27   H     H_    0.028564 0.931467 0.820739 0.117067
H28   H     H_    0.059646 0.841186 0.938374 0.139021
H29   H     H_    0.050130 0.000215 0.943654 0.145284
H30   H     H_    0.386046 0.428435 0.875000 0.247062
H31   H     H_    0.311443 0.397585 0.914569 0.243588
H32   H     H_    0.701521 0.390404 0.133653 0.247523
H33   H     H_    0.751336 0.371817 0.061284 0.231896
H34   H     H_    0.886046 0.928435 0.875000 0.247062
H35   H     H_    0.353386 0.532779 0.422086 0.122348
H36   H     H_    0.811443 0.897585 0.914569 0.243588
H37   H     H_    0.201520 0.890404 0.133653 0.247523
H38   H     H_    0.251336 0.871817 0.061284 0.231896
H39   H     H_    0.690697 0.428046 0.555153 0.167628
H40   H     H_    0.853386 0.032778 0.422086 0.122348
H41   H     H_    0.190697 0.928046 0.555153 0.167628
H42   H     H_    0.109449 0.601789 0.440222 0.162358
H43   H     H_    0.825407 0.849359 0.589658 0.152106
H44   H     H_    0.609449 0.101789 0.440222 0.162358
H45   H     H_    0.644145 0.903447 0.005616 0.117247
H46   H     H_    0.325407 0.349360 0.589658 0.152106
H47   H     H_    0.117171 0.786153 0.556455 0.136425
H48   H     H_    0.736918 0.862932 0.451496 0.166831
H49   H     H_    0.617171 0.286152 0.556456 0.136426
H50   H     H_    0.236917 0.362932 0.451496 0.166830
H51   H     H_    0.137148 0.622901 0.564727 0.146131
H52   H     H_    0.834623 0.855461 0.461434 0.112806
H53   H     H_    0.637148 0.122900 0.564727 0.146131
H54   H     H_    0.334622 0.355462 0.461433 0.112806
H55   H     H_    0.599823 0.711601 0.917210 0.125696
H56   H     H_    0.905658 0.264210 0.982058 0.106966
H57   H     H_    0.528033 0.625827 0.035611 0.101985
H58   H     H_    0.099823 0.211600 0.917210 0.125696
H59   H     H_    0.028033 0.125827 0.035611 0.101986
H60   H     H_    0.152425 0.671944 0.930056 0.133696
H61   H     H_    0.836851 0.711475 0.059397 0.140596
H62   H     H_    0.652425 0.171944 0.930056 0.133696
H63   H     H_    0.336851 0.211475 0.059397 0.140596
H64   H     H_    0.138644 0.645294 0.055441 0.159201
H65   H     H_    0.837951 0.702113 0.932597 0.174453
H66   H     H_    0.638644 0.145294 0.055441 0.159201
H67   H     H_    0.144145 0.403447 0.005616 0.117247
H68   H     H_    0.337951 0.202113 0.932597 0.174452
H69   H     H_    0.842243 0.896416 0.061096 0.174793
H70   H     H_    0.192933 0.862956 0.939888 0.186954
H71   H     H_    0.342243 0.396417 0.061096 0.174793
H72   H     H_    0.692933 0.362956 0.939888 0.186954
H73   H     H_    0.426583 0.555707 0.961712 0.151318
H74   H     H_    0.601785 0.452529 0.062430 0.138952
H75   H     H_    0.926583 0.055707 0.961712 0.151318
H76   H     H_    0.101784 0.952529 0.062430 0.138952
H77   H     H_    0.439764 0.160627 0.640367 0.178178
H78   H     H_    0.096611 0.064976 0.462153 0.207423
H79   H     H_    0.394747 0.085915 0.564926 0.200397
H80   H     H_    0.438655 0.225705 0.553104 0.091175
H81   H     H_    0.538037 0.061176 0.614184 0.146466
H82   H     H_    0.528330 0.116088 0.524298 0.142990
H83   H     H_    0.451652 0.186885 0.431942 0.130159
H84   H     H_    0.506802 0.113223 0.367876 0.173922
H85   H     H_    0.418586 0.148680 0.344690 0.162529
H86   H     H_    0.413429 0.942603 0.369256 0.139654
H87   H     H_    0.383826 0.009602 0.448368 0.150428
H88   H     H_    0.939765 0.660624 0.640368 0.178180
H89   H     H_    0.979870 0.080582 0.568689 0.144002
H90   H     H_    0.894748 0.585918 0.564926 0.200396
H91   H     H_    0.938657 0.725707 0.553107 0.091174
H92   H     H_    0.038039 0.561175 0.614184 0.146466
H93   H     H_    0.028331 0.616088 0.524298 0.142990
H94   H     H_    0.951654 0.686884 0.431944 0.130159
H95   H     H_    0.006801 0.613224 0.367875 0.173922
H96   H     H_    0.918585 0.648683 0.344693 0.162530
H97   H     H_    0.913429 0.442604 0.369256 0.139655
H98   H     H_    0.883826 0.509602 0.448368 0.150428
H99   H     H_    0.449849 0.621078 0.429368 0.237546
H100  H     H_    0.596611 0.564976 0.462153 0.207424
H101  H     H_    0.473365 0.479609 0.453212 0.202758
H102  H     H_    0.581001 0.597329 0.652375 0.249510
H103  H     H_    0.577693 0.470452 0.604769 0.212161
H104  H     H_    0.949848 0.121078 0.429370 0.237545
H105  H     H_    0.973366 0.979609 0.453211 0.202758
H106  H     H_    0.081001 0.097328 0.652375 0.249510
H107  H     H_    0.077692 0.970452 0.604769 0.212160
H108  H     H_    0.091557 0.774891 0.365905 0.249933
H109  H     H_    0.048692 0.801645 0.441647 0.222223
H110  H     H_    0.672387 0.817812 0.558823 0.249202
H111  H     H_    0.479870 0.580582 0.568689 0.144002
H112  H     H_    0.710814 0.831924 0.640371 0.242468
H113  H     H_    0.591558 0.274892 0.365905 0.249934
H114  H     H_    0.548691 0.301643 0.441646 0.222224
H115  H     H_    0.172386 0.317813 0.558823 0.249202
H116  H     H_    0.210814 0.331924 0.640371 0.242468
H117  H     H_    0.514931 0.094750 0.113243 0.185825
H118  H     H_    0.450897 0.162611 0.056128 0.127873
H119  H     H_    0.430493 0.128797 0.146892 0.142690
H120  H     H_    0.382577 0.984611 0.044703 0.130828
H121  H     H_    0.419434 0.919945 0.124599 0.160041
H122  H     H_    0.370833 0.580458 0.550952 0.120296
H123  H     H_    0.462639 0.135930 0.852957 0.178401
H124  H     H_    0.421023 0.068659 0.929024 0.195330
H125  H     H_    0.457840 0.217034 0.935229 0.130232
H126  H     H_    0.553193 0.129341 0.980177 0.123224
H127  H     H_    0.566974 0.064802 0.891612 0.145062
H128  H     H_    0.014931 0.594750 0.113243 0.185825
H129  H     H_    0.950898 0.662612 0.056128 0.127873
H130  H     H_    0.930493 0.628797 0.146892 0.142690
H131  H     H_    0.882577 0.484611 0.044703 0.130828
H132  H     H_    0.919434 0.419946 0.124599 0.160041
N1    N     N_3   0.490499 0.559189 0.430404 -0.624129
N2    N     N_3   0.700734 0.365933 0.079511 -0.645621
N3    N     N_3   0.864487 0.909330 0.924386 -0.676807
N4    N     N_3   0.200734 0.865933 0.079511 -0.645621
N5    N     N_3   0.586620 0.562442 0.600741 -0.645241
N6    N     N_3   0.990499 0.059190 0.430404 -0.624129
N7    N     N_3   0.086620 0.062441 0.600741 -0.645240
N8    N     N_3   0.097939 0.792970 0.420684 -0.651650
N9    N     N_3   0.713604 0.858248 0.586805 -0.624655
N10   N     N_3   0.597939 0.292970 0.420684 -0.651650
N11   N     N_3   0.213604 0.358248 0.586805 -0.624655
N12   N     N_3   0.364487 0.409330 0.924386 -0.676807
O1    O     O_R   0.214300 0.709080 0.827500 -0.546929
O2    O     O_R   0.543340 0.717710 0.330180 -0.482351
O3    O     O_R   0.956660 0.217710 0.669820 -0.545599
O4    O     O_R   0.043340 0.217710 0.330180 -0.482350
O5    O     O_R   0.320590 0.625770 0.672930 -0.503975
O6    O     O_R   0.679410 0.625770 0.327070 -0.498233
O7    O     O_R   0.820590 0.125770 0.672930 -0.503975
O8    O     O_R   0.179410 0.125770 0.327070 -0.498233
O9    O     O_3   0.334270 0.834280 0.749190 -0.270795
O10   O     O_3   0.665730 0.834280 0.250810 -0.276390
O11   O     O_3   0.834270 0.334280 0.749190 -0.270795
O12   O     O_R   0.785700 0.709080 0.172500 -0.543113
O13   O     O_3   0.165730 0.334280 0.250810 -0.276390
O14   O     O_R   0.236190 0.958390 0.823150 -0.516154
O15   O     O_R   0.763810 0.958390 0.176850 -0.518824
O16   O     O_R   0.736190 0.458390 0.823150 -0.516153
O17   O     O_R   0.263810 0.458390 0.176850 -0.518824
O18   O     O_R   0.332090 0.075280 0.831290 -0.540917
O19   O     O_R   0.667910 0.075280 0.168710 -0.535978
O20   O     O_R   0.832090 0.575280 0.831290 -0.540917
O21   O     O_R   0.167910 0.575280 0.168710 -0.535978
O22   O     O_R   0.446280 0.918040 0.826620 -0.510327
O23   O     O_R   0.714300 0.209080 0.827500 -0.546928
O24   O     O_R   0.553720 0.918040 0.173380 -0.513928
O25   O     O_R   0.946280 0.418040 0.826620 -0.510327
O26   O     O_R   0.053720 0.418040 0.173380 -0.513928
O27   O     O_R   0.457080 0.716270 0.831760 -0.529241
O28   O     O_R   0.542920 0.716270 0.168240 -0.533767
O29   O     O_R   0.957080 0.216270 0.831760 -0.529241
O30   O     O_R   0.042920 0.216270 0.168240 -0.533767
O31   O     O_R   0.320980 0.624440 0.823040 -0.497132
O32   O     O_R   0.679020 0.624440 0.176960 -0.517721
O33   O     O_R   0.820980 0.124440 0.823040 -0.497132
O34   O     O_R   0.285700 0.209080 0.172500 -0.543113
O35   O     O_R   0.179020 0.124440 0.176960 -0.517721
O36   O     O_R   0.213880 0.710510 0.665560 -0.526085
O37   O     O_R   0.786120 0.710510 0.334440 -0.530118
O38   O     O_R   0.713880 0.210510 0.665560 -0.526085
O39   O     O_R   0.286120 0.210510 0.334440 -0.530118
O40   O     O_R   0.235800 0.959720 0.673040 -0.524687
O41   O     O_R   0.764200 0.959720 0.326960 -0.513655
O42   O     O_R   0.735800 0.459720 0.673040 -0.524687
O43   O     O_R   0.264200 0.459720 0.326960 -0.513655
O44   O     O_R   0.331670 0.076720 0.669350 -0.543957
O45   O     O_R   0.445900 0.919370 0.676500 -0.501939
O46   O     O_R   0.668330 0.076720 0.330650 -0.532280
O47   O     O_R   0.831670 0.576720 0.669350 -0.543957
O48   O     O_R   0.168330 0.576720 0.330650 -0.532280
O49   O     O_R   0.554100 0.919370 0.323500 -0.511165
O50   O     O_R   0.945900 0.419370 0.676500 -0.501939
O51   O     O_R   0.054100 0.419370 0.323500 -0.511166
O52   O     O_R   0.456660 0.717710 0.669820 -0.545599

loop_
_geom_bond_atom_site_label_1
_geom_bond_atom_site_label_2
_ccdc_geom_bond_type
C115  C141  A    
C82   C94   A    
C100  H78   S    
C42   H3    S    
Cr12  O52   S    
C127  H44   S    
C87   O29   A    
C42   H5    S    
C43   H12   S    
C143  O46   A    
C23   C112  S    
C30   H92   S    
C14   C21   S    
C51   H27   S    
C81   C95   A    
Cr2   O10   S    
C80   C137  S    
C128  C132  S    
C68   O16   A    
C8    C138  S    
C79   O17   A    
C30   C96   S    
C88   O30   A    
Cr12  O31   S    
C109  C127  S    
C101  H57   S    
C32   H97   S    
C70   C74   S    
Cr9   O49   S    
C73   N2    S    
H114  N10   S    
Cr8   O9    S    
C41   H6    S    
C117  C139  A    
C28   H86   S    
C118  C140  A    
Cr6   O38   S    
C35   C134  A    
C36   H118  S    
C65   H66   S    
C106  C142  S    
C49   H21   S    
C21   C90   S    
C45   C47   S    
Cr6   O16   S    
Cr3   O3    S    
C45   C69   S    
C19   H56   S    
C31   H88   S    
C98   N1    S    
C48   C70   S    
C68   O20   A    
C39   H131  S    
C124  H41   S    
C25   C88   S    
C17   C21   S    
C82   C91   A    
C108  C113  A    
C19   C23   S    
C43   C44   S    
C37   C38   S    
C45   H17   S    
H34   N3    S    
C143  O41   A    
H116  N11   S    
C15   C39   S    
C119  C141  A    
C53   C71   S    
C49   H19   S    
C3    C103  S    
C50   H28   S    
C86   O28   A    
C74   H75   S    
C51   H25   S    
C47   H15   S    
C53   C58   A    
Cr12  O5    S    
C59   C63   A    
C60   C64   A    
C62   H63   S    
C116  H122  S    
C127  N10   S    
C26   H81   S    
C18   H45   S    
C6    O50   A    
C84   C93   A    
C33   H94   S    
C127  C131  S    
C130  H52   S    
C3    O43   A    
C125  C129  S    
C38   H123  S    
C98   C99   S    
C106  C124  A    
C58   C80   A    
C103  C107  A    
C108  C126  S    
C110  C128  S    
C7    C83   S    
Cr8   O44   S    
C79   O21   A    
C48   H22   S    
C142  O44   A    
C19   C123  S    
C62   C80   A    
C2    C68   S    
C90   H55   S    
Cr6   O23   S    
C15   C25   S    
C13   C57   S    
C12   C22   S    
C56   C78   A    
C144  O47   A    
C67   C72   S    
C118  C122  A    
Cr10  O25   S    
C38   H125  S    
C9    O6    A    
C113  C139  A    
C112  H58   S    
C89   C91   A    
C17   H1    S    
H109  N8    S    
C1    O14   A    
Cr9   O46   S    
C74   N3    S    
H113  N10   S    
Cr1   O1    S    
C115  C132  S    
Cr5   O10   S    
C113  C130  S    
C62   C66   A    
C107  C125  S    
C100  N6    S    
C137  O35   A    
C120  H35   S    
C88   O26   A    
C39   C40   S    
C8    O36   A    
C44   H10   S    
C118  H13   S    
C116  C120  A    
C9    O37   A    
C46   C55   A    
C33   H96   S    
C114  C131  S    
Cr10  O50   S    
C61   C65   A    
C11   C141  S    
C67   H71   S    
Cr1   O14   S    
C133  O1    A    
C128  H46   S    
C25   C123  S    
Cr2   O6    S    
C27   H80   S    
C109  C114  A    
H104  N6    S    
C125  H42   S    
C16   C23   S    
Cr5   O41   S    
H101  N1    S    
C131  H49   S    
C69   H72   S    
C79   C134  S    
C105  C109  A    
C40   H128  S    
C117  H2    S    
C18   C22   S    
C107  C111  A    
Cr1   O36   S    
C42   H4    S    
C75   N4    S    
C133  O31   A    
Cr11  O21   S    
C43   H11   S    
C44   H8    S    
C30   H93   S    
C89   C98   S    
Cr4   O30   S    
H99   N1    S    
H102  N5    S    
Cr4   O4    S    
H36   N3    S    
C10   O7    A    
C105  C122  A    
C34   C36   S    
C44   H9    S    
C136  O33   A    
C35   C67   S    
C87   O25   A    
C129  H47   S    
C24   C66   A    
C1    C24   S    
C43   C67   S    
Cr3   O11   S    
Cr7   O13   S    
H107  N7    S    
Cr8   O18   S    
Cr4   O35   S    
C86   O24   A    
C16   C41   S    
C10   O38   A    
C3    O48   A    
H110  N9    S    
C26   C94   S    
Cr5   O12   S    
Cr12  O9    S    
C135  O32   A    
C123  H59   S    
C41   C42   S    
C103  C120  A    
Cr1   O40   S    
C126  N9    S    
C15   C19   S    
C26   C27   S    
C22   C101  S    
C10   C140  S    
C28   C29   S    
C106  C110  A    
C30   C31   S    
C20   C25   S    
C126  C130  S    
C40   H129  S    
C136  O23   A    
C20   C112  S    
C111  C129  S    
C12   C17   S    
C131  H53   S    
C5    O49   A    
C31   H90   S    
C69   C73   S    
C7    O51   A    
C37   H127  S    
C29   H84   S    
C142  O40   A    
C81   C89   A    
C35   C54   A    
C102  H89   S    
Cr7   O39   S    
C21   C85   S    
C56   C74   S    
H38   N4    S    
C18   C90   S    
C63   C134  A    
C6    C84   S    
C61   H62   S    
C112  C123  S    
Cr3   O33   S    
C59   H60   S    
C24   C53   A    
C34   H120  S    
C63   H64   S    
C7    O4    A    
C50   C71   S    
C13   C52   A    
C5    C81   S    
C26   H82   S    
Cr8   O22   S    
C1    O18   A    
C50   C51   S    
C132  H54   S    
C144  O42   A    
Cr9   O24   S    
C135  O12   A    
Cr2   O2    S    
C38   H124  S    
C48   C49   S    
C34   H121  S    
C41   H7    S    
Cr2   O28   S    
C71   H70   S    
C57   O15   A    
C119  H24   S    
C12   C34   S    
C36   H117  S    
C104  C108  A    
C125  N8    S    
Cr9   O10   S    
C128  N11   S    
Cr10  O47   S    
C4    O52   A    
C99   N5    S    
C93   C102  S    
C39   H132  S    
C32   C33   S    
H115  N11   S    
Cr11  O48   S    
C45   H18   S    
C14   C37   S    
C9    C139  S    
Cr11  O26   S    
C129  H51   S    
C8    O5    A    
C92   C93   A    
C20   H67   S    
Cr5   O37   S    
C22   C86   S    
C94   C95   A    
C85   O22   A    
Cr1   O9    S    
H103  N5    S    
C83   C97   A    
Cr2   O32   S    
H108  N8    S    
C110  C115  A    
C121  H39   S    
C49   H20   S    
C111  C138  A    
C126  H43   S    
C132  H50   S    
Cr6   O11   S    
C14   C18   S    
C70   H69   S    
C51   H26   S    
C98   H100  S    
C47   H16   S    
Cr4   O8    S    
C13   C65   A    
C119  C124  A    
C2    C46   A    
C83   C92   A    
C99   H111  S    
C76   C133  S    
C28   C95   S    
C137  O34   A    
Cr6   O42   S    
Cr7   O34   S    
C55   C77   A    
C15   C16   S    
Cr3   O7    S    
Cr7   O17   S    
C32   C97   S    
C4    O45   A    
C84   C96   A    
C33   H95   S    
C117  C121  A    
C46   C69   S    
C17   C101  S    
Cr4   O13   S    
C104  C144  S    
C28   H87   S    
C5    O2    A    
C36   H119  S    
Cr11  O51   S    
C16   C20   S    
Cr10  O11   S    
C23   C87   S    
H105  N6    S    
C31   H91   S    
C75   H76   S    
C72   N12   S    
H37   N4    S    
C73   H74   S    
C2    C64   A    
C58   C75   S    
Cr5   O15   S    
C116  C138  A    
C60   C77   A    
C72   H73   S    
C66   H68   S    
Cr9   O19   S    
Cr10  O20   S    
C104  C121  A    
C55   C73   S    
H30   N12   S    
C90   C101  S    
H112  N9    S    
C61   C78   A    
C96   C97   A    
C100  C102  S    
C4    C82   S    
Cr7   O43   S    
C54   C76   A    
C12   C14   S    
C114  C140  A    
C32   H98   S    
H31   N12   S    
Cr3   O29   S    
C47   H14   S    
C130  H48   S    
C92   C100  S    
Cr11  O13   S    
C11   O8    A    
C122  H40   S    
C105  C143  S    
H32   N2    S    
C102  N7    S    
C27   H79   S    
C91   C99   S    
C60   H61   S    
Cr8   O45   S    
C71   C75   S    
C59   C76   A    
C40   H130  S    
C85   O27   A    
C64   H65   S    
C57   O19   A    
Cr12  O27   S    
C52   C70   S    
C6    O3    A    
C27   H77   S    
H33   N2    S    
C54   C72   S    
C29   H85   S    
H106  N7    S    
C77   C135  S    
C11   O39   A    
C50   H29   S    
C78   C136  S    
C37   H126  S    
C29   H83   S    
C48   H23   S    
C52   C56   A    
