data_mof_unit_47874.cif
_audit_creation_date              2012-12-10T19:59:21-0500
_audit_creation_method            fapswitch 2.2
_symmetry_space_group_name_H-M    P1
_symmetry_Int_Tables_number       1
_space_group_crystal_system       triclinic
_cell_length_a                    15.074969
_cell_length_b                    14.298336
_cell_length_c                    10.641915
_cell_angle_alpha                 90.392563
_cell_angle_beta                  92.3963
_cell_angle_gamma                 90.032768
_cell_volume                      2291.77203283

loop_
_atom_site_label
_atom_site_type_symbol
_atom_type_description
_atom_site_fract_x
_atom_site_fract_y
_atom_site_fract_z
_atom_type_partial_charge
C1    C     C_R   0.327848 0.499786 0.503575 1.048543
C2    C     C_R   0.672172 0.499821 0.496877 1.009935
C3    C     C_R   0.190705 0.419483 0.565146 0.276039
C4    C     C_R   0.810084 0.419359 0.438444 0.258266
C5    C     C_R   0.097760 0.416003 0.566548 0.450976
C6    C     C_R   0.903119 0.415476 0.440688 0.457559
C7    C     C_R   0.047834 0.484226 0.501678 -0.175878
C8    C     C_R   0.952194 0.483513 0.508760 -0.170333
C9    C     C_R   0.478990 0.105186 0.388738 0.357822
C10   C     C_R   0.522038 0.106238 0.610760 0.360693
C11   C     C_R   0.469393 0.203042 0.395938 0.440228
C12   C     C_R   0.531041 0.204140 0.603945 0.459083
C13   C     C_R   0.500591 0.053596 0.499665 -0.300304
C14   C     C_R   0.572941 0.895106 0.552433 0.338555
C15   C     C_R   0.427906 0.894770 0.446517 0.339823
C16   C     C_R   0.566340 0.797214 0.563299 0.391591
C17   C     C_R   0.434029 0.796728 0.435905 0.409513
C18   C     C_R   0.500502 0.947010 0.499527 -0.270311
C19   C     C_R   0.497770 0.499730 0.260545 0.972837
C20   C     C_R   0.500443 0.500220 0.739380 0.987631
C21   C     C_R   0.566808 0.537803 0.069129 -0.105737
C22   C     C_R   0.569100 0.536667 0.941584 -0.046030
C23   C     C_R   0.496091 0.498139 0.128497 -0.099641
C24   C     C_R   0.498188 0.498896 0.871082 -0.198201
C25   C     C_R   0.430297 0.447100 0.060401 0.328401
C26   C     C_R   0.429597 0.450169 0.928018 0.358134
C27   C     C_3   0.612792 0.630739 0.938210 0.284869
C28   C     C_3   0.609007 0.632098 0.081812 0.295535
C29   C     C_R   0.088915 0.559646 0.442510 0.305432
C30   C     C_R   0.910286 0.558771 0.568237 0.297611
C31   C     C_R   0.179975 0.571009 0.459249 0.389676
C32   C     C_R   0.819604 0.570674 0.547700 0.409981
C33   C     C_R   0.231612 0.497595 0.510749 -0.363709
C34   C     C_R   0.768539 0.497628 0.492543 -0.364289
H1    H     H_    0.570828 0.683742 0.887511 0.126908
H2    H     H_    0.674088 0.628097 0.135532 0.085014
N1    N     N_R   0.500000 0.252470 0.500000 -0.267929
N2    N     N_R   0.500000 0.747550 0.500000 -0.270297
O1    O     O_R   0.369060 0.579480 0.500010 -0.622545
O2    O     O_R   0.630940 0.579480 0.499990 -0.612319
O3    O     O_R   0.369050 0.420520 0.500010 -0.574843
O4    O     O_R   0.630950 0.420520 0.499990 -0.595820
O5    O     O_R   0.499990 0.579490 0.316780 -0.631109
O6    O     O_R   0.500010 0.579490 0.683220 -0.683313
O7    O     O_R   0.499980 0.420540 0.316780 -0.584528
O8    O     O_R   0.500020 0.420540 0.683220 -0.562807
Zn1   Zn    Zn3+2 0.500000 0.606140 0.500000 0.959189
Zn2   Zn    Zn3+2 0.500000 0.393860 0.500000 1.038608
O9    O     O_3   0.366360 0.400238 0.124679 -0.761188
H3    H     H_    0.345550 0.345890 0.073319 0.370556
O10   O     O_3   0.361228 0.412982 0.852625 -0.714654
H4    H     H_    0.306335 0.411629 0.900450 0.339292
O11   O     O_3   0.650379 0.936893 0.598546 -0.688309
H5    H     H_    0.657790 0.997531 0.555942 0.352530
O12   O     O_3   0.350712 0.936328 0.400126 -0.666945
H6    H     H_    0.343279 0.997249 0.443091 0.354191
O13   O     O_3   0.629479 0.753924 0.638757 -0.702839
H7    H     H_    0.607728 0.691379 0.658645 0.395031
O14   O     O_3   0.370918 0.753049 0.359489 -0.654823
H8    H     H_    0.391967 0.689983 0.340131 0.401942
O15   O     O_3   0.699798 0.621555 0.895167 -0.599597
C35   C     C_3   0.743977 0.708474 0.904647 -0.170445
H9    H     H_    0.764098 0.724388 0.004095 0.113594
H10   H     H_    0.703329 0.766772 0.864352 0.198890
H11   H     H_    0.805377 0.704063 0.850993 0.245268
O16   O     O_3   0.547791 0.699077 0.124036 -0.580304
C36   C     C_3   0.593832 0.779451 0.167621 -0.261576
H12   H     H_    0.633415 0.810492 0.092490 0.150398
H13   H     H_    0.636882 0.763481 0.252165 0.141207
H14   H     H_    0.544655 0.832491 0.195711 0.202091
O17   O     O_3   0.042312 0.626061 0.372587 -0.708425
H15   H     H_    0.983609 0.600660 0.344701 0.320470
O18   O     O_3   0.955978 0.625089 0.640861 -0.721341
H16   H     H_    0.014545 0.599876 0.669103 0.325238
O19   O     O_3   0.218373 0.652311 0.417855 -0.521221
C37   C     C_3   0.206721 0.722602 0.509915 -0.066937
H17   H     H_    0.135934 0.731600 0.533454 0.162938
H18   H     H_    0.228676 0.790610 0.472718 0.232485
H19   H     H_    0.247789 0.707516 0.596712 0.120344
O20   O     O_3   0.780999 0.652708 0.587288 -0.523266
C38   C     C_3   0.795703 0.721925 0.496055 -0.110451
H20   H     H_    0.867332 0.730686 0.477325 0.169661
H21   H     H_    0.772592 0.790381 0.531385 0.233035
H22   H     H_    0.757547 0.705721 0.406819 0.106300
O21   O     O_3   0.242845 0.350242 0.620688 -0.685919
H23   H     H_    0.205453 0.296555 0.643550 0.377046
O22   O     O_3   0.758561 0.350608 0.379148 -0.721254
H24   H     H_    0.796040 0.296476 0.357577 0.377706
O23   O     O_3   0.055309 0.344150 0.626704 -0.557208
C39   C     C_3   0.047339 0.369527 0.754077 -0.293599
H25   H     H_    0.004785 0.432492 0.763671 0.165544
H26   H     H_    0.113404 0.381519 0.802202 0.165266
H27   H     H_    0.014921 0.311232 0.802896 0.210580
O24   O     O_3   0.946418 0.343724 0.380336 -0.557038
C40   C     C_3   0.956299 0.369189 0.253828 -0.295136
H28   H     H_    0.998880 0.432325 0.246688 0.164723
H29   H     H_    0.890920 0.380947 0.203952 0.170657
H30   H     H_    0.989610 0.311042 0.204965 0.211035
O25   O     O_3   0.463255 0.063146 0.272725 -0.641594
H31   H     H_    0.494424 0.002275 0.271651 0.344297
O26   O     O_3   0.538090 0.065248 0.726608 -0.644439
H32   H     H_    0.507235 0.004168 0.727576 0.354219
O27   O     O_3   0.428457 0.247324 0.295508 -0.647239
H33   H     H_    0.393919 0.299230 0.330962 0.380483
O28   O     O_3   0.571588 0.249521 0.704848 -0.656244
H34   H     H_    0.606677 0.300973 0.670060 0.356462

loop_
_geom_bond_atom_site_label_1
_geom_bond_atom_site_label_2
_ccdc_geom_bond_type
O2    Zn1   S    
O22   H24   S    
O26   H32   S    
C7    C29   A    
C3    O21   S    
O18   H16   S    
C14   C18   A    
C15   C18   A    
C19   C23   S    
C40   H28   S    
C37   H19   S    
O12   H6    S    
C38   H20   S    
C39   H25   S    
C40   H30   S    
C1    C33   S    
C7    C8    S    
C4    O22   S    
O11   H5    S    
C13   C18   S    
C37   H18   S    
C12   O28   S    
C3    C33   A    
C20   O8    A    
C12   N1    A    
C11   N1    A    
C9    C13   A    
C35   H10   S    
C27   O15   S    
C38   H21   S    
C31   O19   S    
C20   C24   S    
C6    O24   S    
C31   C33   A    
O6    Zn1   S    
C17   N2    A    
C2    C34   S    
O16   C36   S    
O14   H8    S    
C9    O25   S    
C21   C22   A    
O24   C40   S    
C20   O6    A    
C19   O5    A    
O8    Zn2   S    
C4    C34   A    
C36   H12   S    
C37   H17   S    
C4    C6    A    
C5    C7    A    
C30   O18   S    
C6    C8    A    
C27   H1    S    
C25   C26   A    
O21   H23   S    
O10   H4    S    
C36   H13   S    
C15   O12   S    
C28   O16   S    
O19   C37   S    
C35   H9    S    
C32   O20   S    
C39   H26   S    
O25   H31   S    
C19   O7    A    
O4    Zn2   S    
N1    Zn2   S    
C9    C11   A    
N2    Zn1   S    
C10   C12   A    
C17   O14   S    
C1    O3    A    
C21   C28   S    
C22   C27   S    
C21   C23   A    
C14   C16   A    
O27   H33   S    
C38   H22   S    
C39   H27   S    
O1    Zn1   S    
O7    Zn2   S    
C15   C17   A    
C35   H11   S    
C10   O26   S    
C24   C26   A    
O20   C38   S    
C3    C5    A    
C10   C13   A    
C40   H29   S    
O28   H34   S    
C36   H14   S    
C8    C30   A    
O17   H15   S    
C29   C31   A    
C26   O10   S    
C30   C32   A    
O13   H7    S    
C2    O4    A    
O3    Zn2   S    
C22   C24   A    
C16   O13   S    
C23   C25   A    
O15   C35   S    
C25   O9    S    
C1    O1    A    
C2    O2    A    
C14   O11   S    
C28   H2    S    
O9    H3    S    
C16   N2    A    
C27   C28   S    
C11   O27   S    
O23   C39   S    
O5    Zn1   S    
C5    O23   S    
C32   C34   A    
C29   O17   S    
