data_mof_unit_26049.cif
_audit_creation_date              2012-12-10T20:05:32-0500
_audit_creation_method            fapswitch 2.2
_symmetry_space_group_name_H-M    P1
_symmetry_Int_Tables_number       1
_space_group_crystal_system       triclinic
_cell_length_a                    12.915082
_cell_length_b                    18.822676
_cell_length_c                    18.419199
_cell_angle_alpha                 90.066365
_cell_angle_beta                  96.506166
_cell_angle_gamma                 89.865677
_cell_volume                      4448.78952253

loop_
_atom_site_label
_atom_site_type_symbol
_atom_type_description
_atom_site_fract_x
_atom_site_fract_y
_atom_site_fract_z
_atom_type_partial_charge
C1    C     C_R   0.500019 0.365066 0.500087 0.839195
C2    C     C_R   0.501505 0.635187 0.500185 0.852868
C3    C     C_R   0.595292 0.850644 0.512951 0.211884
C4    C     C_R   0.584915 0.149204 0.522722 0.154051
C5    C     C_R   0.648711 0.799309 0.558665 0.034379
C6    C     C_R   0.661891 0.202609 0.531605 0.030242
C7    C     C_R   0.613348 0.729542 0.553681 -0.293151
C8    C     C_R   0.630276 0.272987 0.521834 -0.320395
C9    C     C_R   0.528558 0.710059 0.503231 -0.104752
C10   C     C_R   0.525349 0.290423 0.503144 -0.096446
C11   C     C_R   0.571094 0.960108 0.582559 0.379871
C12   C     C_R   0.655716 0.039683 0.473965 0.386541
C13   C     C_R   0.572582 0.034472 0.587079 0.309507
C14   C     C_R   0.661293 0.965475 0.472656 0.294548
C15   C     C_R   0.610386 0.073770 0.530510 -0.190804
C16   C     C_R   0.613346 0.926465 0.524333 -0.179851
C17   C     C_R   0.450407 0.553150 0.721722 -0.064582
C18   C     C_R   0.417428 0.528036 0.267584 -0.096488
C19   C     C_R   0.445207 0.553291 0.797617 0.341947
C20   C     C_R   0.415183 0.528673 0.191055 0.351129
C21   C     C_R   0.494526 0.498693 0.841183 0.051497
C22   C     C_R   0.498523 0.498640 0.158014 0.051201
C23   C     C_R   0.297740 0.500241 0.486290 0.916461
C24   C     C_R   0.701872 0.499445 0.513848 0.937129
C25   C     C_R   0.546427 0.443749 0.806359 -0.119134
C26   C     C_R   0.583326 0.468742 0.203978 -0.102785
C27   C     C_R   0.547240 0.446147 0.729902 -0.148175
C28   C     C_R   0.581693 0.471029 0.280326 -0.081018
C29   C     C_R   0.417768 0.460077 0.955291 0.506675
C30   C     C_R   0.566459 0.543353 0.042794 0.507923
C31   C     C_R   0.422752 0.459561 0.032759 -0.306845
C32   C     C_R   0.562339 0.543361 0.965572 -0.329099
C33   C     C_R   0.495966 0.500770 0.076419 0.083259
C34   C     C_R   0.491232 0.500526 0.922122 0.103657
C35   C     C_R   0.813135 0.505377 0.521507 -0.180780
C36   C     C_R   0.185503 0.504505 0.478464 -0.181589
C37   C     C_R   0.022901 0.500780 0.400065 0.013282
C38   C     C_R   0.971030 0.547122 0.590064 0.010688
C39   C     C_R   0.130780 0.500956 0.408659 -0.392982
C40   C     C_R   0.864240 0.537067 0.583998 -0.404336
C41   C     C_R   0.132926 0.514238 0.540574 0.488545
C42   C     C_R   0.866607 0.486228 0.462559 0.488431
C43   C     C_R   0.025654 0.525233 0.531359 -0.057449
C44   C     C_R   0.970416 0.506011 0.463233 -0.054467
C45   C     C_R   0.478312 0.760622 0.455032 -0.044107
C46   C     C_R   0.448533 0.237620 0.493431 -0.053607
C47   C     C_R   0.512578 0.831017 0.460877 -0.094009
C48   C     C_R   0.479707 0.166882 0.503336 -0.126816
H1    H     H_    0.413770 0.595480 0.688342 0.173641
H2    H     H_    0.352775 0.550155 0.292714 0.146770
H3    H     H_    0.586093 0.404783 0.702277 0.145230
H4    H     H_    0.645203 0.448119 0.315934 0.200909
H5    H     H_    0.370940 0.426301 0.059967 0.158473
H6    H     H_    0.614560 0.576625 0.938684 0.149653
H7    H     H_    0.820568 0.555044 0.627548 0.177352
H8    H     H_    0.172056 0.496726 0.360723 0.183755
H9    H     H_    0.472248 0.871706 0.426832 0.177344
H10   H     H_    0.422157 0.124866 0.495950 0.191283
H11   H     H_    0.653554 0.689413 0.588640 0.147372
H12   H     H_    0.687405 0.315146 0.530523 0.129823
N1    N     N_R   0.500010 0.499980 0.689440 -0.110778
N2    N     N_R   0.499990 0.500020 0.310560 -0.111269
O1    O     O_R   0.500000 0.398180 0.560840 -0.621526
O2    O     O_R   0.500000 0.601820 0.439160 -0.617587
O3    O     O_R   0.499960 0.398180 0.439210 -0.611756
O4    O     O_R   0.500040 0.601820 0.560790 -0.610545
O5    O     O_R   0.346380 0.499990 0.550760 -0.560475
O6    O     O_R   0.653620 0.500010 0.449240 -0.561353
O7    O     O_R   0.346330 0.499980 0.429130 -0.641767
O8    O     O_R   0.653670 0.500020 0.570870 -0.634237
Zn1   Zn    Zn3+2 0.500030 0.500000 0.581210 0.952572
Zn2   Zn    Zn3+2 0.499970 0.500000 0.418790 0.968804
O9    O     O_3   0.818792 0.443152 0.407610 -0.585669
C49   C     C_3   0.847851 0.371868 0.423322 0.061778
H13   H     H_    0.838212 0.357472 0.480852 0.106745
H14   H     H_    0.930460 0.362829 0.413896 0.151232
C50   C     C_3   0.779303 0.322667 0.373151 -0.825612
H15   H     H_    0.789933 0.333608 0.315258 0.248075
H16   H     H_    0.800868 0.266527 0.385850 0.231039
H17   H     H_    0.696143 0.330730 0.381142 0.257383
O10   O     O_3   0.185008 0.505617 0.610130 -0.572317
C51   C     C_3   0.168121 0.435677 0.634549 0.059169
H18   H     H_    0.165358 0.395376 0.589781 0.123356
H19   H     H_    0.093675 0.433663 0.659432 0.134988
C52   C     C_3   0.256547 0.414632 0.692171 -0.750493
H20   H     H_    0.266587 0.455230 0.736074 0.245933
H21   H     H_    0.239121 0.362623 0.716351 0.209757
H22   H     H_    0.330124 0.409540 0.666822 0.267180
O11   O     O_3   0.397153 0.608968 0.829663 -0.612583
C53   C     C_3   0.288310 0.598567 0.818549 0.082648
H23   H     H_    0.266545 0.548841 0.845665 0.151421
H24   H     H_    0.259458 0.596079 0.759283 0.198425
C54   C     C_3   0.234377 0.660474 0.851812 -0.767870
H25   H     H_    0.252118 0.710756 0.824295 0.268778
H26   H     H_    0.148744 0.652046 0.844824 0.206435
H27   H     H_    0.261741 0.664752 0.910986 0.245454
O12   O     O_3   0.328661 0.555042 0.148557 -0.627690
C55   C     C_3   0.339054 0.629364 0.143018 0.107262
H28   H     H_    0.411334 0.643420 0.118462 0.165974
H29   H     H_    0.340515 0.655131 0.197624 0.157771
C56   C     C_3   0.246253 0.658460 0.093761 -0.801507
H30   H     H_    0.173045 0.647598 0.118094 0.257006
H31   H     H_    0.254613 0.716735 0.087245 0.218554
H32   H     H_    0.241914 0.632809 0.039192 0.246577
C57   C     C_2   0.601449 0.383493 0.846206 0.440481
H33   H     H_    0.634959 0.341615 0.815604 0.041730
O13   O     O_2   0.611324 0.379598 0.912757 -0.532291
C58   C     C_2   0.673286 0.432884 0.175909 0.425701
H34   H     H_    0.743313 0.422391 0.212764 0.082130
O14   O     O_2   0.669942 0.412759 0.112682 -0.549900
O15   O     O_3   0.347553 0.418887 0.910163 -0.614746
C59   C     C_3   0.249574 0.413216 0.937074 0.085518
H35   H     H_    0.224679 0.464469 0.960254 0.140395
H36   H     H_    0.252535 0.370781 0.979191 0.167380
C60   C     C_3   0.167457 0.392401 0.874966 -0.839912
H37   H     H_    0.190759 0.342555 0.848818 0.270361
H38   H     H_    0.091604 0.383801 0.896550 0.218650
H39   H     H_    0.157714 0.435379 0.833562 0.236313
O16   O     O_3   0.633192 0.587402 0.086989 -0.622783
C61   C     C_3   0.734842 0.587647 0.065450 0.081853
H40   H     H_    0.739601 0.627045 0.021051 0.144842
H41   H     H_    0.758852 0.534183 0.047055 0.176215
C62   C     C_3   0.811569 0.609571 0.130273 -0.749807
H42   H     H_    0.808585 0.571057 0.175534 0.285212
H43   H     H_    0.891854 0.610437 0.114159 0.198483
H44   H     H_    0.791679 0.663347 0.149433 0.261768
C63   C     C_2   0.969624 0.500213 0.324301 0.476604
H45   H     H_    0.008388 0.477247 0.280486 0.033634
O17   O     O_2   0.884988 0.528817 0.309290 -0.560325
C64   C     C_2   0.019534 0.586007 0.655346 0.467813
H46   H     H_    0.984246 0.583829 0.706060 0.017352
O18   O     O_2   0.095391 0.623978 0.652112 -0.544685
C65   C     C_2   0.387622 0.741703 0.401515 0.409100
H47   H     H_    0.352872 0.689335 0.401737 0.065925
O19   O     O_2   0.349913 0.784763 0.356437 -0.567277
C66   C     C_2   0.336761 0.255781 0.474337 0.398344
H48   H     H_    0.312303 0.310729 0.466794 0.037057
O20   O     O_2   0.270302 0.209490 0.466779 -0.555319
C67   C     C_2   0.740828 0.815323 0.612121 0.351960
H49   H     H_    0.771918 0.774584 0.650265 0.072662
O21   O     O_2   0.784299 0.872897 0.613822 -0.594919
C68   C     C_2   0.774538 0.188532 0.553120 0.419663
H50   H     H_    0.830174 0.231572 0.552083 0.045984
O22   O     O_2   0.806826 0.130043 0.573446 -0.564745
O23   O     O_3   0.512798 0.920238 0.626457 -0.572807
C69   C     C_3   0.561516 0.918271 0.699106 0.142982
H51   H     H_    0.530947 0.962118 0.730950 0.181960
H52   H     H_    0.648141 0.922303 0.703096 0.146541
C70   C     C_3   0.534493 0.848553 0.734141 -0.805283
H53   H     H_    0.563539 0.803026 0.703799 0.249518
H54   H     H_    0.571145 0.846662 0.791631 0.208609
H55   H     H_    0.448684 0.843869 0.733527 0.273434
O24   O     O_3   0.692543 0.079535 0.419261 -0.583626
C71   C     C_3   0.616362 0.081377 0.357817 0.127882
H56   H     H_    0.535404 0.086302 0.373069 0.122424
H57   H     H_    0.621813 0.032446 0.324589 0.191479
C72   C     C_3   0.636294 0.145411 0.311153 -0.812309
H58   H     H_    0.716178 0.142673 0.294436 0.264813
H59   H     H_    0.578966 0.146408 0.261451 0.217488
H60   H     H_    0.628033 0.195022 0.342732 0.256718
O25   O     O_3   0.520625 0.067947 0.639376 -0.580238
C73   C     C_3   0.594294 0.100088 0.691881 0.111214
H61   H     H_    0.636361 0.143889 0.667663 0.165273
H62   H     H_    0.652391 0.060649 0.716530 0.127655
C74   C     C_3   0.537795 0.131625 0.752494 -0.804211
H63   H     H_    0.495868 0.089254 0.779135 0.255107
H64   H     H_    0.594854 0.157081 0.794122 0.211615
H65   H     H_    0.480834 0.172335 0.729593 0.265553
O26   O     O_3   0.699092 0.931010 0.414746 -0.613035
C75   C     C_3   0.808581 0.926734 0.428682 0.166863
H66   H     H_    0.832231 0.895981 0.479467 0.186362
H67   H     H_    0.844254 0.980599 0.433735 0.190443
C76   C     C_3   0.850827 0.888516 0.365463 -0.798225
H68   H     H_    0.829540 0.918300 0.313884 0.260102
H69   H     H_    0.937048 0.884634 0.375795 0.222354
H70   H     H_    0.817784 0.834103 0.359652 0.264791

loop_
_geom_bond_atom_site_label_1
_geom_bond_atom_site_label_2
_ccdc_geom_bond_type
C38   C40   A    
C9    C45   A    
C74   H63   S    
C28   H4    S    
O26   C75   S    
C23   O7    A    
O15   C59   S    
C12   O24   S    
C59   H36   S    
O23   C69   S    
C25   C57   S    
C62   H42   S    
C76   H68   S    
C57   O13   D    
C54   H25   S    
C49   H14   S    
C38   C64   S    
C19   C21   A    
C73   H61   S    
C70   H54   S    
C52   H20   S    
C61   H41   S    
C55   H28   S    
C50   H17   S    
C45   C65   S    
C30   O16   S    
C23   O5    A    
C60   H37   S    
C69   C70   S    
O12   C55   S    
C11   C13   A    
C58   H34   S    
C18   C20   A    
O9    C49   S    
C7    H11   S    
C35   C42   A    
C27   N1    A    
C17   N1    A    
C72   H58   S    
C20   O12   S    
C39   H8    S    
C2    O2    A    
C60   H38   S    
C49   C50   S    
C10   C46   A    
C1    O3    A    
C31   C33   A    
O8    Zn1   S    
C14   C16   A    
C6    C68   S    
C69   H52   S    
C61   C62   S    
C60   H39   S    
N1    Zn1   S    
C45   C47   A    
C72   H59   S    
C29   C31   A    
C41   C43   A    
C36   C41   A    
C74   H64   S    
C42   C44   A    
C14   O26   S    
C1    O1    A    
C32   H6    S    
C59   H35   S    
C27   H3    S    
C5    C67   S    
C73   H62   S    
C52   H21   S    
C67   H49   S    
C46   C48   A    
C24   C35   S    
C49   H13   S    
C24   O8    A    
C56   H30   S    
C71   C72   S    
C66   O20   D    
C70   H55   S    
C26   C58   S    
C5    C7    A    
C11   O23   S    
C62   H44   S    
C6    C8    A    
C21   C34   S    
C3    C5    A    
C50   H15   S    
C29   C34   A    
O10   C51   S    
C32   C34   A    
O7    Zn2   S    
C64   O18   D    
C43   C44   A    
C63   O17   D    
O3    Zn2   S    
C19   O11   S    
C47   H9    S    
C73   C74   S    
C11   C16   A    
C53   H24   S    
O4    Zn1   S    
C12   C15   A    
O6    Zn2   S    
C40   H7    S    
C41   O10   S    
C50   H16   S    
N2    Zn2   S    
C31   H5    S    
C13   O25   S    
C71   H56   S    
C76   H69   S    
C4    C6    A    
O1    Zn1   S    
C23   C36   S    
C54   H27   S    
C51   H19   S    
C13   C15   A    
C22   C26   A    
C65   H47   S    
C68   O22   D    
C25   C27   A    
C17   H1    S    
C63   H45   S    
C55   C56   S    
C61   H40   S    
C18   H2    S    
C53   C54   S    
C69   H51   S    
C4    C48   A    
C52   H22   S    
C7    C9    A    
C22   C33   S    
C21   C25   A    
C42   O9    S    
C30   C33   A    
C71   H57   S    
C29   O15   S    
C36   C39   A    
C18   N2    A    
C1    C10   S    
C20   C22   A    
C66   H48   S    
C2    O4    A    
O16   C61   S    
C48   H10   S    
C72   H60   S    
C74   H65   S    
C51   C52   S    
C57   H33   S    
C26   C28   A    
C56   H31   S    
C37   C44   A    
C64   H46   S    
C12   C14   A    
C38   C43   A    
C37   C39   A    
O25   C73   S    
C70   H53   S    
C8    H12   S    
C30   C32   A    
C67   O21   D    
C53   H23   S    
C54   H26   S    
C75   H67   S    
C4    C15   S    
C3    C47   A    
C76   H70   S    
C58   O14   D    
C35   C40   A    
O5    Zn1   S    
O2    Zn2   S    
C55   H29   S    
C62   H43   S    
C24   O6    A    
C46   C66   S    
C17   C19   A    
C8    C10   A    
C51   H18   S    
C75   H66   S    
C65   O19   D    
C68   H50   S    
C56   H32   S    
O24   C71   S    
O11   C53   S    
C2    C9    S    
C59   C60   S    
C3    C16   S    
C37   C63   S    
C75   C76   S    
C28   N2    A    
