data_mof_unit_37604.cif
_audit_creation_date              2013-03-05T16:33:33-0500
_audit_creation_method            fapswitch 2.2
_symmetry_space_group_name_H-M    P1
_symmetry_Int_Tables_number       1
_space_group_crystal_system       triclinic
_cell_length_a                    10.936096
_cell_length_b                    10.945754
_cell_length_c                    9.60036
_cell_angle_alpha                 91.693181
_cell_angle_beta                  88.386845
_cell_angle_gamma                 93.240074
_cell_volume                      1146.45792173

loop_
_atom_site_label
_atom_site_type_symbol
_atom_site_description
_atom_site_fract_x
_atom_site_fract_y
_atom_site_fract_z
_atom_type_partial_charge
O1    O     O_R   0.500000 0.319640 0.618810 -0.544805
O2    O     O_R   0.500010 0.319680 0.381230 -0.587885
C1    C     C_R   0.499592 0.262840 0.497829 0.842672
O3    O     O_R   0.319650 0.499970 0.618810 -0.536811
O4    O     O_R   0.319660 0.500010 0.381230 -0.595735
C2    C     C_R   0.262849 0.501042 0.501579 0.853232
Cu1   Cu    Cu3+1 0.499990 0.499980 0.640670 1.021290
Cu2   Cu    Cu3+1 0.500010 0.500020 0.359330 1.008247
O5    O     O_R   0.499990 0.680320 0.618770 -0.592945
O6    O     O_R   0.500000 0.680360 0.381190 -0.590048
O7    O     O_R   0.680340 0.499990 0.618770 -0.589485
O8    O     O_R   0.680350 0.500030 0.381190 -0.563205
C3    C     C_R   0.504033 0.738311 0.501737 0.804342
C4    C     C_R   0.736942 0.495503 0.497326 0.797265
C5    C     C_R   0.055699 0.489958 0.620135 0.081383
C6    C     C_R   0.130223 0.501874 0.501135 -0.114509
C7    C     C_R   0.071153 0.508535 0.373021 -0.203982
C8    C     C_R   0.942666 0.500364 0.365796 -0.016995
C9    C     C_R   0.869667 0.489463 0.490903 -0.158831
C10   C     C_R   0.932008 0.479598 0.613301 0.076511
C11   C     C_3   0.911080 0.458382 0.764387 -0.277742
C12   C     C_3   0.052015 0.471287 0.774299 -0.273361
H1    H     H_    0.093221 0.385831 0.802747 0.197425
C13   C     C_R   0.530929 0.072717 0.614842 0.093086
C14   C     C_R   0.508287 0.130995 0.493444 -0.078908
C15   C     C_R   0.500155 0.060330 0.369746 -0.162505
H2    H     H_    0.486022 0.102498 0.271262 0.201636
C16   C     C_R   0.500873 0.932577 0.374485 -0.158327
H3    H     H_    0.484244 0.880605 0.278864 0.194012
C17   C     C_R   0.514683 0.873248 0.501939 -0.071608
C18   C     C_R   0.543374 0.948161 0.620738 0.054087
C19   C     C_3   0.498407 0.954196 0.772642 -0.137796
C20   C     C_3   0.473325 0.087556 0.754831 -0.461900
C21   C     C_R   0.595489 0.554109 0.071813 0.320324
N1    N     N_R   0.500790 0.500930 0.147930 -0.211462
C22   C     C_R   0.415004 0.432880 0.078410 -0.038225
C23   C     C_R   0.414493 0.428229 0.930129 0.108383
N2    N     N_R   0.500790 0.500890 0.852020 -0.214894
C24   C     C_R   0.597585 0.550403 0.924674 0.230102
C25   C     C_3   0.643800 0.678618 0.917600 -0.434606
C26   C     C_3   0.635415 0.686305 0.075449 -0.491098
H4    H     H_    0.738747 0.689159 0.874214 0.221575
H5    H     H_    0.124723 0.516687 0.276598 0.207799
C27   C     C_2   0.599389 0.951167 0.877663 0.844609
O9    O     O_2   0.705094 0.935886 0.838612 -0.590119
O10   O     O_R   0.572326 0.974154 0.018846 -0.751622
H6    H     H_    0.647339 0.973602 0.078481 0.339898
H7    H     H_    0.374284 0.103540 0.748725 0.236441
H8    H     H_    0.526032 0.155719 0.821378 0.221073
H9    H     H_    0.347137 0.381631 0.140428 0.194763
C28   C     C_2   0.319317 0.336784 0.873523 0.800730
O11   O     O_2   0.307168 0.316211 0.749928 -0.576117
O12   O     O_R   0.242432 0.269068 0.965906 -0.787529
H10   H     H_    0.183718 0.208154 0.916814 0.352365
H11   H     H_    0.575655 0.728649 0.864420 0.231475
H12   H     H_    0.724959 0.705482 0.125195 0.220735
H13   H     H_    0.561450 0.744269 0.115104 0.242625
C29   C     C_2   0.892499 0.500673 0.224968 0.863362
O13   O     O_2   0.824760 0.415382 0.183383 -0.548753
O14   O     O_R   0.929910 0.595343 0.136553 -0.757402
H14   H     H_    0.889471 0.586103 0.043227 0.323714
H15   H     H_    0.860332 0.532435 0.816065 0.155535
C30   C     C_2   0.856288 0.331657 0.791909 0.905028
O15   O     O_2   0.768482 0.318758 0.872765 -0.574195
O16   O     O_R   0.904910 0.229426 0.724639 -0.742883
H16   H     H_    0.859295 0.149957 0.751287 0.362801
C31   C     C_2   0.096106 0.583610 0.856830 0.892500
O17   O     O_2   0.178824 0.577004 0.938675 -0.562649
O18   O     O_R   0.039714 0.694093 0.843360 -0.765519
H17   H     H_    0.072590 0.760577 0.910333 0.362543
C32   C     C_2   0.383074 0.874821 0.801859 0.857766
O19   O     O_2   0.368897 0.820175 0.910953 -0.560610
O20   O     O_R   0.291741 0.865418 0.702390 -0.751701
H18   H     H_    0.221969 0.805234 0.728160 0.355433

loop_
_geom_bond_atom_site_label_1
_geom_bond_atom_site_label_2
_geom_bond_distance
_ccdc_geom_bond_type
C30   O16   1.398999 S    
O20   H18   1.009742 S    
C9    C10   1.384972 A    
Cu1   Cu2   2.700972 S    
O12   H10   1.014418 S    
Cu1   O7    1.977599 S    
C15   H2    1.083029 S    
C22   C23   1.423116 A    
C8    C9    1.427532 A    
O1    C1    1.301096 A    
C17   C18   1.416822 A    
C23   C28   1.504163 S    
O7    C4    1.305503 A    
C29   O14   1.395049 S    
C5    C6    1.389525 A    
C21   N1    1.363730 A    
O5    C3    1.305158 A    
C21   C24   1.411547 A    
C8    C29   1.473479 S    
C5    C12   1.499156 S    
N1    C22   1.344354 A    
C6    C7    1.410934 A    
C25   H4    1.109015 S    
C11   C12   1.545122 S    
C21   C26   1.487307 S    
O3    Cu1   1.989210 S    
C27   O10   1.397752 S    
C19   C32   1.514923 S    
C5    C10   1.354309 A    
C31   O17   1.221361 D    
C3    C17   1.474940 S    
C1    C14   1.450920 S    
N2    C24   1.362047 A    
C13   C14   1.380065 A    
O3    C2    1.301392 A    
C24   C25   1.467355 S    
C32   O20   1.398724 S    
C29   O13   1.223181 D    
C28   O11   1.210773 D    
O14   H14   1.010180 S    
C31   O18   1.399118 S    
Cu2   N1    2.029609 S    
C7    H5    1.084681 S    
C26   H12   1.108273 S    
C23   N2    1.412822 A    
C18   C19   1.526602 S    
Cu2   O8    1.989210 S    
C25   H11   1.095454 S    
C7    C8    1.406482 A    
C19   C27   1.518563 S    
C11   H15   1.105788 S    
C25   C26   1.515738 S    
O8    C4    1.293901 A    
C22   H9    1.080661 S    
C27   O9    1.224180 D    
Cu1   O5    1.991291 S    
O10   H6    1.013897 S    
C16   H3    1.079938 S    
O1    Cu1   1.978912 S    
C4    C9    1.456217 S    
O2    Cu2   1.991289 S    
O6    C3    1.303823 A    
O4    Cu2   1.977599 S    
C15   C16   1.400901 A    
C13   C20   1.476625 S    
C19   C20   1.515888 S    
C16   C17   1.417813 A    
O2    C1    1.296408 A    
C14   C15   1.400123 A    
C13   C18   1.380749 A    
C26   H13   1.108230 S    
C32   O19   1.223164 D    
O4    C2    1.296407 A    
Cu1   N2    2.029029 S    
O18   H17   1.013922 S    
C12   C31   1.506248 S    
C11   C30   1.507218 S    
C2    C6    1.451080 S    
C30   O15   1.222200 D    
C10   C11   1.485071 S    
Cu2   O6    1.978912 S    
O16   H16   1.013832 S    
C20   H7    1.110319 S    
C12   H1    1.105564 S    
C28   O12   1.403354 S    
C20   H8    1.114007 S    
