data_mof_unit_52905.cif
_audit_creation_date              2012-12-11T15:38:18-0500
_audit_creation_method            fapswitch 2.2
_symmetry_space_group_name_H-M    P1
_symmetry_Int_Tables_number       1
_space_group_crystal_system       triclinic
_cell_length_a                    20.593975
_cell_length_b                    7.257724
_cell_length_c                    18.837645
_cell_angle_alpha                 90.000043
_cell_angle_beta                  107.338121
_cell_angle_gamma                 89.999898
_cell_volume                      2687.64382116

loop_
_atom_site_label
_atom_site_type_symbol
_atom_type_description
_atom_site_fract_x
_atom_site_fract_y
_atom_site_fract_z
_atom_type_partial_charge
O1    O     O_R   0.422200 0.494350 0.423850 -0.529896
O2    O     O_R   0.577800 0.994350 0.576150 -0.529895
O3    O     O_R   0.555980 0.819730 0.435060 -0.534977
O4    O     O_R   0.444020 0.319730 0.564940 -0.534978
C1    C     C_R   0.575711 0.655474 0.420742 0.726607
C2    C     C_R   0.424289 0.155475 0.579258 0.726605
O5    O     O_R   0.421370 0.823790 0.415230 -0.534054
O6    O     O_R   0.578630 0.323790 0.584770 -0.534054
O7    O     O_R   0.442220 0.998380 0.556180 -0.535054
O8    O     O_R   0.557780 0.498380 0.443820 -0.535054
C3    C     C_R   0.396310 0.655338 0.394205 0.709383
C4    C     C_R   0.603690 0.155338 0.605795 0.709385
O9    O     O_3   0.507000 0.662200 0.546270 -0.375486
O10   O     O_3   0.493000 0.162200 0.453730 -0.375486
V1    V     V_3+5 0.498700 0.935390 0.491420 1.424533
V2    V     V_3+5 0.501300 0.435390 0.508580 1.424533
C5    C     C_1   0.666381 0.145293 0.668108 -0.185494
C6    C     C_1   0.333619 0.645293 0.331891 -0.185495
C7    C     C_1   0.718967 0.134449 0.719731 0.004931
C8    C     C_1   0.281033 0.634449 0.280269 0.004929
C9    C     C_1   0.780986 0.120708 0.780350 0.003843
C10   C     C_1   0.219014 0.620708 0.219650 0.003843
C11   C     C_1   0.833583 0.109861 0.831956 -0.187183
C12   C     C_1   0.166417 0.609861 0.168044 -0.187183
C13   C     C_3   0.251324 0.284259 0.807711 -0.403899
C14   C     C_3   0.748680 0.784267 0.192295 -0.403900
C15   C     C_3   0.249775 0.935945 0.801252 -0.019063
C16   C     C_3   0.750223 0.435950 0.198745 -0.019067
C17   C     C_3   0.294268 0.935829 0.745827 0.014644
C18   C     C_3   0.705724 0.435835 0.254164 0.014652
H1    H     H_    0.356546 0.260442 0.806506 0.149046
H2    H     H_    0.643459 0.760487 0.193502 0.149047
H3    H     H_    0.277078 0.289648 0.868630 0.160654
H4    H     H_    0.722925 0.789662 0.131376 0.160655
H5    H     H_    0.214707 0.815621 0.787193 0.086917
H6    H     H_    0.785290 0.315623 0.212807 0.086914
H7    H     H_    0.271982 0.827056 0.704664 0.095161
H8    H     H_    0.728000 0.327045 0.295322 0.095160
C19   C     C_1   0.377997 0.147089 0.623969 -0.188544
C20   C     C_1   0.622003 0.647087 0.376031 -0.188545
C21   C     C_3   0.203855 0.113358 0.787397 0.129246
C22   C     C_3   0.796146 0.613358 0.212604 0.129249
C23   C     C_3   0.305717 0.281286 0.765780 -0.376293
C24   C     C_3   0.694290 0.781301 0.234228 -0.376295
C25   C     C_3   0.289227 0.128197 0.704745 0.179290
C26   C     C_3   0.710773 0.628193 0.295255 0.179289
C27   C     C_3   0.213294 0.159118 0.653148 0.387631
C28   C     C_3   0.786707 0.659084 0.346855 0.387632
C29   C     C_3   0.162583 0.127561 0.702047 -0.108986
C30   C     C_3   0.837418 0.627547 0.297954 -0.108992
C31   C     C_1   0.338446 0.139371 0.660523 -0.034752
C32   C     C_1   0.661553 0.639367 0.339477 -0.034748
C33   C     C_1   0.156614 0.113738 0.834303 -0.084586
C34   C     C_1   0.843387 0.613740 0.165698 -0.084586
C35   C     C_1   0.119054 0.111015 0.873270 -0.187787
C36   C     C_1   0.880946 0.611017 0.126731 -0.187790
H9    H     H_    0.130041 0.252478 0.697131 0.125587
H10   H     H_    0.869957 0.752470 0.302873 0.125586
H11   H     H_    0.220567 0.412447 0.793586 0.142019
H12   H     H_    0.779440 0.912450 0.206422 0.142019
H13   H     H_    0.308994 0.419152 0.741365 0.172189
H14   H     H_    0.691020 0.919164 0.258650 0.172176
O11   O     O_R   0.942270 0.764870 0.056240 -0.530947
O12   O     O_R   0.057730 0.264870 0.943760 -0.530947
O13   O     O_R   0.078640 0.431230 0.084780 -0.533272
O14   O     O_R   0.921360 0.931230 0.915220 -0.533271
C37   C     C_R   0.103706 0.599819 0.105760 0.707926
C38   C     C_R   0.896294 0.099819 0.894240 0.707927
O15   O     O_R   0.944030 0.435400 0.064960 -0.537198
O16   O     O_R   0.055970 0.935400 0.935040 -0.537198
O17   O     O_R   0.922190 0.260960 0.923840 -0.530285
O18   O     O_R   0.077810 0.760960 0.076160 -0.530285
C39   C     C_R   0.925195 0.603670 0.079643 0.716787
C40   C     C_R   0.074805 0.103669 0.920358 0.716786
O19   O     O_3   0.993030 0.592980 0.953770 -0.374178
O20   O     O_3   0.006970 0.092980 0.046230 -0.374178
V3    V     V_3+5 0.001290 0.319740 0.008580 1.419031
V4    V     V_3+5 0.998710 0.819740 0.991420 1.419033
N1    N     N_3   0.197198 0.036342 0.587402 -0.678755
H15   H     H_    0.222899 0.080967 0.550287 0.248359
H16   H     H_    0.211322 0.899904 0.599955 0.205669
N2    N     N_3   0.802799 0.536277 0.412591 -0.678758
H17   H     H_    0.777087 0.580857 0.449702 0.248359
H18   H     H_    0.788690 0.399835 0.400026 0.205667
C41   C     C_3   0.291931 0.911730 0.884718 -0.271705
C42   C     C_3   0.308769 0.708642 0.905337 -0.315780
C43   C     C_3   0.355744 0.689529 0.984674 -0.777847
H19   H     H_    0.404839 0.760506 0.990434 0.232354
H20   H     H_    0.331513 0.749736 0.024742 0.229218
H21   H     H_    0.366073 0.541387 0.998119 0.216216
H22   H     H_    0.260826 0.632883 0.900918 0.179380
H23   H     H_    0.333539 0.643362 0.866851 0.234596
H24   H     H_    0.339211 0.995264 0.898079 0.189348
H25   H     H_    0.262894 0.963208 0.921725 0.161153
C44   C     C_3   0.708072 0.411735 0.115277 -0.271704
C45   C     C_3   0.691231 0.208648 0.094659 -0.315776
C46   C     C_3   0.644263 0.189535 0.015319 -0.777849
H26   H     H_    0.595170 0.260536 0.009550 0.232356
H27   H     H_    0.668503 0.249718 0.975254 0.229218
H28   H     H_    0.633927 0.041394 0.001877 0.216216
H29   H     H_    0.739173 0.132878 0.099085 0.179378
H30   H     H_    0.666454 0.143379 0.133141 0.234594
H31   H     H_    0.660795 0.495279 0.101911 0.189346
H32   H     H_    0.737114 0.463202 0.078273 0.161155
N3    N     N_3   0.364930 0.876063 0.781131 -0.678572
H33   H     H_    0.395825 0.984998 0.807306 0.234600
H34   H     H_    0.385234 0.825919 0.740186 0.232167
N4    N     N_3   0.635060 0.376103 0.218850 -0.678569
H35   H     H_    0.604172 0.485051 0.192674 0.234599
H36   H     H_    0.614746 0.325968 0.259791 0.232166
C47   C     C_3   0.111428 0.964824 0.675374 -0.340590
C48   C     C_3   0.052060 0.015314 0.606351 -0.283126
C49   C     C_3   0.007291 0.848148 0.576374 -0.775021
H37   H     H_    0.037267 0.739274 0.558915 0.230028
H38   H     H_    0.986011 0.791840 0.619571 0.230848
H39   H     H_    0.964537 0.889395 0.527334 0.210482
H40   H     H_    0.020425 0.123868 0.621425 0.181774
H41   H     H_    0.070903 0.070936 0.561321 0.231455
H42   H     H_    0.137903 0.839575 0.664593 0.174459
H43   H     H_    0.088615 0.926176 0.719756 0.173781
C50   C     C_3   0.888578 0.464817 0.324622 -0.340586
C51   C     C_3   0.947943 0.515302 0.393649 -0.283144
C52   C     C_3   0.992731 0.348153 0.423604 -0.774999
H44   H     H_    0.962769 0.239211 0.441043 0.230020
H45   H     H_    0.014022 0.291930 0.380401 0.230846
H46   H     H_    0.035478 0.389397 0.472651 0.210481
H47   H     H_    0.979565 0.623912 0.378588 0.181771
H48   H     H_    0.929096 0.570854 0.438688 0.231461
H49   H     H_    0.862108 0.339552 0.335395 0.174444
H50   H     H_    0.911395 0.426198 0.280240 0.173796
N5    N     N_3   0.205478 0.349856 0.624127 -0.669618
H51   H     H_    0.202762 0.445127 0.664680 0.199441
H52   H     H_    0.158912 0.360799 0.582345 0.232195
N6    N     N_3   0.794529 0.849808 0.375891 -0.669600
H53   H     H_    0.797245 0.945098 0.335344 0.199434
H54   H     H_    0.841096 0.860730 0.417671 0.232203

loop_
_geom_bond_atom_site_label_1
_geom_bond_atom_site_label_2
_ccdc_geom_bond_type
O14   C38   A    
C43   H19   S    
C3    C6    S    
C45   H30   S    
O16   V4    S    
O12   V3    S    
O15   V3    S    
C47   C48   S    
O1    C3    A    
C27   N1    S    
C50   H50   S    
O2    C4    A    
C13   C23   S    
C2    O7    A    
C46   H26   S    
C14   C24   S    
C52   H44   S    
C27   C29   S    
C41   C42   S    
O5    C3    A    
N3    H34   S    
C14   C22   S    
H1    C23   S    
C16   C44   S    
C28   N6    S    
C7    C9    S    
C42   H22   S    
C48   H40   S    
C52   H45   S    
C15   C17   S    
C25   C31   S    
C26   C32   S    
C29   H9    S    
N4    H35   S    
C18   H8    S    
C47   H42   S    
C37   O18   A    
C25   C27   S    
C16   C22   S    
C51   H47   S    
C15   C41   S    
O18   V4    S    
C12   C37   S    
C19   C31   T    
C35   C40   S    
C41   H24   S    
C14   H4    S    
C44   C45   S    
C24   C26   S    
O13   C37   A    
C4    C5    S    
O16   C40   A    
O15   C39   A    
C29   C47   S    
C49   H39   S    
C28   C30   S    
O6    V2    S    
C45   H29   S    
C17   N3    S    
C30   C50   S    
C21   C29   S    
C48   C49   S    
C46   H27   S    
C44   H31   S    
C26   C28   S    
C33   C35   T    
O14   V4    S    
C34   C36   T    
O13   V3    S    
C30   H10   S    
O20   V3    S    
O4    C2    A    
C13   C21   S    
N1    H16   S    
C42   C43   S    
C52   H46   S    
N6    H54   S    
O11   C39   A    
C15   H5    S    
C20   C32   T    
C17   C25   S    
C47   H43   S    
C11   C38   S    
O4    V2    S    
C41   H25   S    
C15   C21   S    
O6    C4    A    
C45   C46   S    
H2    C24   S    
O1    V2    S    
O2    V1    S    
C23   C25   S    
C21   C33   S    
C50   C51   S    
C22   C30   S    
C8    C10   S    
N2    H18   S    
C9    C11   T    
C10   C12   T    
O9    V2    S    
C17   H7    S    
N5    H51   S    
O3    C1    A    
O17   V3    S    
C46   H28   S    
O3    V1    S    
C44   H32   S    
C23   H13   S    
C49   H37   S    
C36   C39   S    
C18   N4    S    
C2    C19   S    
C18   C26   S    
C50   H49   S    
N5    H52   S    
N4    H36   S    
N6    H53   S    
N3    H33   S    
C24   H14   S    
C16   C18   S    
O7    V1    S    
C1    O8    A    
O8    V2    S    
C22   C34   S    
C48   H41   S    
C38   O17   A    
O5    V1    S    
C5    C7    T    
C28   N2    S    
C6    C8    T    
C51   H48   S    
O19   V4    S    
N1    H15   S    
C16   H6    S    
N2    H17   S    
C43   H21   S    
C27   N5    S    
C43   H20   S    
O12   C40   A    
O10   V1    S    
C42   H23   S    
C13   H11   S    
C51   C52   S    
C1    C20   S    
C14   H12   S    
C13   H3    S    
C49   H38   S    
O11   V4    S    
