data_mof_unit_24405.cif
_audit_creation_date              2012-12-11T17:08:29-0500
_audit_creation_method            fapswitch 2.2
_symmetry_space_group_name_H-M    P1
_symmetry_Int_Tables_number       1
_space_group_crystal_system       triclinic
_cell_length_a                    7.028311
_cell_length_b                    14.468652
_cell_length_c                    16.116997
_cell_angle_alpha                 89.943362
_cell_angle_beta                  89.966747
_cell_angle_gamma                 89.7472
_cell_volume                      1638.92339719

loop_
_atom_site_label
_atom_site_type_symbol
_atom_type_description
_atom_site_fract_x
_atom_site_fract_y
_atom_site_fract_z
_atom_type_partial_charge
O1    O     O_R   0.505700 0.583890 0.413310 -0.534230
O2    O     O_R   0.175960 0.594920 0.586080 -0.534575
O3    O     O_R   0.005660 0.416110 0.586690 -0.523688
C1    C     C_R   0.344589 0.617539 0.614121 0.719410
O4    O     O_R   0.175980 0.594920 0.413930 -0.514765
O5    O     O_R   0.005680 0.416110 0.413310 -0.536725
C2    C     C_R   0.345183 0.619835 0.387745 0.698438
O6    O     O_R   0.505680 0.583890 0.586690 -0.523583
O7    O     O_3   0.339200 0.441330 0.500000 -0.365122
V1    V     V_3+5 0.064350 0.510880 0.500000 1.524023
O8    O     O_R   0.675960 0.405080 0.413920 -0.525177
C3    C     C_R   0.845056 0.383342 0.385339 0.722354
O9    O     O_R   0.675940 0.405080 0.586070 -0.537921
C4    C     C_R   0.844844 0.383196 0.614619 0.688133
V2    V     V_3+5 0.564340 0.489120 0.500000 1.499546
O10   O     O_3   0.839360 0.558670 0.500000 -0.344563
C5    C     C_R   0.001352 0.248521 0.687116 -0.080978
C6    C     C_R   0.853596 0.313706 0.682211 -0.117515
C7    C     C_R   0.714611 0.311735 0.745138 -0.161148
H1    H     H_    0.603231 0.363289 0.746009 0.185788
C8    C     C_R   0.727255 0.248314 0.811442 -0.180363
H2    H     H_    0.625219 0.252352 0.861401 0.189507
C9    C     C_R   0.878395 0.184594 0.816749 -0.149612
C10   C     C_R   0.013733 0.185524 0.753019 0.003619
C11   C     C_3   0.225919 0.195529 0.758663 0.590830
C12   C     C_3   0.213032 0.262708 0.684685 0.370775
C13   C     C_R   0.747234 0.177766 0.244564 -0.044501
C14   C     C_R   0.881327 0.188005 0.180853 -0.178289
C15   C     C_R   0.014546 0.261816 0.188564 0.341967
C16   C     C_R   0.003659 0.322524 0.256992 -0.126774
H3    H     H_    0.100737 0.380335 0.259665 0.177081
C17   C     C_R   0.859085 0.315048 0.317066 -0.203645
C18   C     C_R   0.735948 0.239712 0.310623 0.019938
C19   C     C_3   0.522913 0.235521 0.310954 0.496652
C20   C     C_3   0.536083 0.166527 0.239312 -0.395636
H4    H     H_    0.476888 0.192456 0.179685 0.201592
H5    H     H_    0.491757 0.095047 0.255489 0.143007
C21   C     C_R   0.511114 0.688784 0.736214 0.008870
C22   C     C_R   0.354388 0.686290 0.682436 -0.203103
C23   C     C_R   0.217716 0.757265 0.690239 -0.202155
H6    H     H_    0.105562 0.763074 0.644629 0.188486
C24   C     C_R   0.233716 0.826297 0.751759 0.340221
C25   C     C_R   0.380984 0.821534 0.811569 -0.168512
C26   C     C_R   0.527630 0.758146 0.796960 -0.061545
C27   C     C_3   0.725712 0.781958 0.768614 -0.054926
C28   C     C_3   0.716877 0.697026 0.712409 0.472234
H7    H     H_    0.833270 0.776835 0.819025 0.151023
C29   C     C_R   0.520343 0.695992 0.272347 -0.116231
C30   C     C_R   0.358077 0.692749 0.322468 -0.182403
C31   C     C_R   0.239578 0.772352 0.320084 0.397640
C32   C     C_R   0.250526 0.833583 0.251764 -0.209880
H8    H     H_    0.164529 0.895301 0.250385 0.140311
C33   C     C_R   0.385086 0.821039 0.188503 -0.168433
C34   C     C_R   0.533216 0.758382 0.205001 0.004136
C35   C     C_3   0.735342 0.784153 0.225957 0.252517
C36   C     C_3   0.714075 0.723877 0.304341 0.508540
O11   O     O_R   0.229000 0.916070 0.913330 -0.534452
O12   O     O_R   0.558770 0.905070 0.086080 -0.540523
O13   O     O_R   0.729000 0.083900 0.086690 -0.537924
C37   C     C_R   0.391248 0.885249 0.116379 0.722719
O14   O     O_R   0.558720 0.905070 0.913930 -0.537285
O15   O     O_R   0.728960 0.083900 0.913310 -0.534677
C38   C     C_R   0.390742 0.885928 0.883328 0.717499
O16   O     O_R   0.229050 0.916070 0.086710 -0.545277
O17   O     O_3   0.395460 0.058650 0.000020 -0.356381
V3    V     V_3+5 0.670340 0.989120 0.000000 1.417430
O18   O     O_R   0.058670 0.094960 0.913900 -0.516534
C39   C     C_R   0.889774 0.117354 0.885895 0.722618
O19   O     O_R   0.058720 0.094960 0.086050 -0.540366
C40   C     C_R   0.889662 0.118863 0.112874 0.678107
V4    V     V_3+5 0.170330 0.010930 0.999970 1.457814
O20   O     O_3   0.895340 0.941350 0.999980 -0.383541
C41   C     C_3   0.442238 0.195736 0.391343 -0.691257
H9    H     H_    0.509193 0.128076 0.406578 0.167229
H10   H     H_    0.470986 0.244448 0.442792 0.203575
H11   H     H_    0.286118 0.186316 0.385257 0.205338
O21   O     O_3   0.117147 0.902448 0.745384 -0.657494
H12   H     H_    0.179428 0.956372 0.770987 0.324555
C42   C     C_3   0.726837 0.875852 0.721943 -0.645717
H13   H     H_    0.752623 0.933019 0.766373 0.225335
H14   H     H_    0.836269 0.876731 0.672599 0.252988
H15   H     H_    0.590315 0.890065 0.689576 0.183018
C43   C     C_3   0.829993 0.613143 0.744032 -0.701679
H16   H     H_    0.984540 0.625033 0.738332 0.204424
H17   H     H_    0.797728 0.598622 0.810307 0.152962
H18   H     H_    0.792847 0.551217 0.707016 0.200042
O22   O     O_3   0.753815 0.714506 0.627660 -0.627194
H19   H     H_    0.652660 0.755136 0.604704 0.276842
O23   O     O_3   0.136254 0.800744 0.387810 -0.657428
H20   H     H_    0.174950 0.765009 0.437428 0.278193
C44   C     C_3   0.767278 0.888840 0.242699 -0.719760
H21   H     H_    0.876028 0.899709 0.290766 0.206944
H22   H     H_    0.816921 0.925487 0.186368 0.221214
H23   H     H_    0.636565 0.923570 0.265835 0.180337
C45   C     C_3   0.868248 0.744171 0.158279 -0.707951
H24   H     H_    0.812886 0.677928 0.133244 0.171507
H25   H     H_    0.881903 0.792868 0.105442 0.220856
H26   H     H_    0.010801 0.728823 0.183167 0.224500
C46   C     C_3   0.697362 0.775454 0.389081 -0.660538
H27   H     H_    0.682927 0.725802 0.440950 0.220281
H28   H     H_    0.819940 0.818619 0.403638 0.239655
H29   H     H_    0.573779 0.823387 0.390440 0.149740
O24   O     O_3   0.845436 0.650039 0.309343 -0.615522
H30   H     H_    0.805988 0.600124 0.270859 0.270095
O25   O     O_3   0.319621 0.111994 0.741389 -0.659391
H31   H     H_    0.457618 0.125931 0.740705 0.303103
O26   O     O_3   0.288586 0.234783 0.833892 -0.647737
H32   H     H_    0.196279 0.282637 0.852295 0.259354
C47   C     C_3   0.299911 0.228275 0.603194 -0.663619
H33   H     H_    0.457566 0.230112 0.607015 0.200594
H34   H     H_    0.254250 0.156605 0.588836 0.187590
H35   H     H_    0.252303 0.273614 0.551711 0.211616
O27   O     O_3   0.270536 0.353836 0.702639 -0.635393
H36   H     H_    0.182873 0.381483 0.744120 0.269799
O28   O     O_3   0.148734 0.281564 0.128678 -0.649389
H37   H     H_    0.103088 0.258547 0.074483 0.284067
O29   O     O_3   0.435939 0.320044 0.289402 -0.626131
H38   H     H_    0.495295 0.343419 0.237547 0.290579

loop_
_geom_bond_atom_site_label_1
_geom_bond_atom_site_label_2
_ccdc_geom_bond_type
C35   C36   S    
C41   H9    S    
C4    C6    S    
C45   H24   S    
C1    O6    A    
C45   H26   S    
C25   C38   S    
O21   H12   S    
C13   C18   A    
C29   C34   A    
C5    C12   S    
C14   C15   A    
C20   H5    S    
C19   C20   S    
C47   H34   S    
O13   V3    S    
O5    C3    A    
C21   C22   A    
O12   C37   A    
V2    O10   S    
C5    C6    A    
C6    C7    A    
O16   V4    S    
O19   V4    S    
C35   C44   S    
O24   H30   S    
O27   H36   S    
O8    V2    S    
O14   V3    S    
O12   V3    S    
V3    O20   S    
C7    H1    S    
C9    C10   A    
O1    V2    S    
O7    V1    S    
C19   O29   S    
C23   C24   A    
C15   O28   S    
O9    C4    A    
C3    C17   S    
C41   H10   S    
C33   C37   S    
O11   C38   A    
C27   H7    S    
C5    C10   A    
O15   V3    S    
C11   O25   S    
C32   H8    S    
C10   C11   S    
C2    C30   S    
C35   C45   S    
C47   H35   S    
C44   H21   S    
C42   H14   S    
O13   C40   A    
C13   C20   S    
C11   C12   S    
O17   V4    S    
O18   C39   A    
C32   C33   A    
C20   H4    S    
C9    C39   S    
O2    C1    A    
C25   C26   A    
C21   C26   A    
C15   C16   A    
C44   H22   S    
C31   O23   S    
C43   H16   S    
C1    C22   S    
O26   H32   S    
C46   H29   S    
O14   C38   A    
C31   C32   A    
C27   C42   S    
O11   V4    S    
C12   C47   S    
O3    C4    A    
C24   O21   S    
C23   H6    S    
C43   H17   S    
O17   V3    S    
O6    V2    S    
C8    C9    A    
C41   H11   S    
C42   H13   S    
C24   C25   A    
O2    V1    S    
C22   C23   A    
C26   C27   S    
C11   O26   S    
O4    C2    A    
C28   O22   S    
C29   C36   S    
C34   C35   S    
C29   C30   A    
C46   H28   S    
O1    C2    A    
C14   C40   S    
C36   O24   S    
O5    V1    S    
C42   H15   S    
O8    C3    A    
C45   H25   S    
C33   C34   A    
O25   H31   S    
C46   H27   S    
O15   C39   A    
C37   O16   A    
C17   C18   A    
O9    V2    S    
O7    V2    S    
C12   O27   S    
O4    V1    S    
O3    V1    S    
V1    O10   S    
O29   H38   S    
C44   H23   S    
C16   C17   A    
C16   H3    S    
C18   C19   S    
O18   V4    S    
O19   C40   A    
C21   C28   S    
C19   C41   S    
C28   C43   S    
C27   C28   S    
V4    O20   S    
C43   H18   S    
O22   H19   S    
C30   C31   A    
C47   H33   S    
C13   C14   A    
C36   C46   S    
O23   H20   S    
C8    H2    S    
O28   H37   S    
C7    C8    A    
