data_mof_unit_24955.cif
_audit_creation_date              2012-12-11T14:42:19-0500
_audit_creation_method            fapswitch 2.2
_symmetry_space_group_name_H-M    P1
_symmetry_Int_Tables_number       1
_space_group_crystal_system       triclinic
_cell_length_a                    19.050275
_cell_length_b                    10.912135
_cell_length_c                    18.823959
_cell_angle_alpha                 89.809696
_cell_angle_beta                  89.985437
_cell_angle_gamma                 90.308619
_cell_volume                      3913.03052637

loop_
_atom_site_label
_atom_site_type_symbol
_atom_type_description
_atom_site_fract_x
_atom_site_fract_y
_atom_site_fract_z
_atom_type_partial_charge
C1    C     C_R   0.726097 0.957800 0.854700 0.555523
C2    C     C_R   0.239808 0.430525 0.929081 0.039096
C3    C     C_R   0.259924 0.929081 0.071199 0.056689
C4    C     C_R   0.740118 0.929716 0.928944 0.039490
C5    C     C_R   0.817050 0.392044 0.029880 -0.158100
C6    C     C_R   0.180818 0.411112 0.972437 -0.143116
C7    C     C_R   0.318201 0.900669 0.028890 -0.152895
C8    C     C_R   0.681334 0.906002 0.971862 -0.148704
C9    C     C_R   0.812098 0.387200 0.957269 -0.138882
C10   C     C_R   0.187450 0.404674 0.045012 -0.135437
C11   C     C_R   0.312346 0.895214 0.956334 -0.138877
C12   C     C_R   0.274056 0.958234 0.145265 0.558713
C13   C     C_R   0.687565 0.900378 0.044446 -0.142426
C14   C     C_R   0.748103 0.411104 0.923882 0.011263
C15   C     C_R   0.253822 0.411426 0.075904 -0.000599
C16   C     C_R   0.247000 0.910441 0.924227 0.010367
C17   C     C_R   0.753555 0.911180 0.075871 0.001085
C18   C     C_R   0.497377 0.281715 0.535363 0.099321
C19   C     C_R   0.511828 0.274139 0.463685 0.074973
C20   C     C_R   0.038583 0.779657 0.522213 0.076857
C21   C     C_R   0.040363 0.765877 0.448846 0.069419
C22   C     C_R   0.496943 0.164042 0.428282 0.013231
C23   C     C_R   0.226029 0.457934 0.854739 0.560180
C24   C     C_R   0.494999 0.172727 0.575916 0.042693
C25   C     C_R   0.011019 0.660249 0.419230 0.020296
C26   C     C_R   0.019697 0.676354 0.565723 0.018251
C27   C     C_R   0.483897 0.054990 0.467950 0.042621
C28   C     C_R   0.483930 0.059765 0.542501 0.049513
C29   C     C_R   0.997589 0.555048 0.461180 0.057096
C30   C     C_R   0.999390 0.564789 0.534941 0.048232
C31   C     C_R   0.787204 0.316156 0.529918 -0.169357
C32   C     C_R   0.182590 0.384910 0.455759 -0.145746
C33   C     C_R   0.227288 0.805795 0.524266 -0.120448
C34   C     C_R   0.774113 0.458629 0.145118 0.570350
C35   C     C_R   0.678878 0.912959 0.450601 -0.144270
C36   C     C_R   0.788317 0.329266 0.457499 -0.155432
C37   C     C_R   0.172373 0.410706 0.526408 -0.126737
C38   C     C_R   0.237427 0.823830 0.452251 -0.113036
C39   C     C_R   0.667271 0.940921 0.521325 -0.125411
C40   C     C_R   0.529426 0.177340 0.850674 0.554432
C41   C     C_R   0.470181 0.177877 0.149069 0.550041
C42   C     C_R   0.029336 0.677406 0.850601 0.552149
C43   C     C_R   0.970023 0.677831 0.148964 0.545240
C44   C     C_R   0.756088 0.429512 0.426411 0.016045
C45   C     C_R   0.695948 0.460986 0.037625 0.081507
C46   C     C_R   0.223131 0.475830 0.564421 0.004275
C47   C     C_R   0.260713 0.937514 0.428367 0.036312
C48   C     C_R   0.722773 0.979555 0.564333 0.010491
C49   C     C_R   0.720954 0.515953 0.468677 -0.083249
C50   C     C_R   0.281860 0.524134 0.528821 -0.104269
C51   C     C_R   0.276253 0.031949 0.476634 -0.093466
C52   C     C_R   0.788818 0.000793 0.534207 -0.116021
C53   C     C_R   0.715876 0.499071 0.541779 0.087850
C54   C     C_R   0.291660 0.501680 0.456514 0.078376
C55   C     C_R   0.269791 0.011557 0.549508 0.061596
C56   C     C_R   0.307016 0.443073 0.960199 0.077718
C57   C     C_R   0.800318 0.979485 0.462390 0.067645
C58   C     C_R   0.749528 0.398062 0.572672 0.032989
C59   C     C_R   0.243888 0.423985 0.420736 0.021797
C60   C     C_R   0.246105 0.896811 0.573013 0.059231
C61   C     C_R   0.746139 0.926182 0.420992 0.026713
C62   C     C_R   0.738193 0.364327 0.852535 0.553020
C63   C     C_R   0.262153 0.364580 0.147388 0.539681
C64   C     C_R   0.237965 0.864011 0.852695 0.555339
C65   C     C_R   0.762108 0.864579 0.147391 0.539759
C66   C     C_R   0.710151 0.000842 0.639803 0.560042
C67   C     C_R   0.193982 0.949967 0.039374 0.086774
C68   C     C_R   0.273543 0.958709 0.353828 0.556089
C69   C     C_R   0.210582 0.499533 0.639647 0.556170
C70   C     C_R   0.772993 0.458436 0.353538 0.555538
C71   C     C_R   0.527182 0.176780 0.646054 0.583906
C72   C     C_R   0.470668 0.175290 0.355701 0.578319
C73   C     C_R   0.034871 0.678358 0.641340 0.581945
C74   C     C_R   0.973409 0.674775 0.352844 0.586454
C75   C     C_R   0.739542 0.361874 0.646138 0.558743
C76   C     C_R   0.259737 0.365513 0.352675 0.549751
C77   C     C_R   0.239827 0.864233 0.647100 0.565839
C78   C     C_R   0.806880 0.946154 0.960579 0.079112
C79   C     C_R   0.760281 0.864958 0.353168 0.550679
C80   C     C_2   0.497024 0.168726 0.920956 -0.109015
C81   C     C_2   0.501637 0.169737 0.078356 -0.104189
C82   C     C_2   0.996472 0.669251 0.920658 -0.112089
C83   C     C_2   0.001134 0.669170 0.078105 -0.111771
C84   C     C_2   0.492733 0.068826 0.038538 -0.164802
C85   C     C_2   0.505415 0.068339 0.961441 -0.167622
C86   C     C_2   0.989978 0.569266 0.037871 -0.162601
C87   C     C_2   0.003198 0.568316 0.960900 -0.168657
C88   C     C_R   0.690379 0.450415 0.963890 -0.127992
C89   C     C_R   0.759803 0.429857 0.071013 0.070386
C90   C     C_R   0.313407 0.432786 0.033618 -0.079683
C91   C     C_R   0.188063 0.940210 0.965464 -0.113518
C92   C     C_R   0.812986 0.935996 0.034032 -0.079513
Cr1   Cr    Cr6+3 0.769270 0.163730 0.750710 1.023133
Cr2   Cr    Cr6+3 0.385840 0.322500 0.252290 1.079956
Cr3   Cr    Cr6+3 0.114160 0.822500 0.747710 1.061767
Cr4   Cr    Cr6+3 0.885840 0.822500 0.252290 1.078893
Cr5   Cr    Cr6+3 0.230730 0.163730 0.249290 1.076852
Cr6   Cr    Cr6+3 0.269270 0.663730 0.750710 1.043170
Cr7   Cr    Cr6+3 0.730730 0.663730 0.249290 1.066406
Cr8   Cr    Cr6+3 0.612620 0.009790 0.748780 1.056407
Cr9   Cr    Cr6+3 0.387380 0.009790 0.251220 1.054551
Cr10  Cr    Cr6+3 0.112620 0.509790 0.748780 1.045707
Cr11  Cr    Cr6+3 0.887380 0.509790 0.251220 1.050168
Cr12  Cr    Cr6+3 0.614160 0.322500 0.747710 1.076757
H1    H     H_    0.475299 0.983701 0.062742 0.142110
H2    H     H_    0.318901 0.582317 0.556596 0.175038
H3    H     H_    0.295190 0.119994 0.457617 0.135080
H4    H     H_    0.832057 0.033152 0.566515 0.159011
H5    H     H_    0.522718 0.253234 0.055004 0.102987
H6    H     H_    0.475819 0.252124 0.943628 0.127420
H7    H     H_    0.024043 0.751628 0.055158 0.102432
H8    H     H_    0.976183 0.753248 0.943486 0.127061
H9    H     H_    0.640210 0.467435 0.938694 0.135473
H10   H     H_    0.365400 0.434915 0.056976 0.154680
H11   H     H_    0.136956 0.949252 0.940808 0.133621
H12   H     H_    0.522617 0.983173 0.937850 0.141107
H13   H     H_    0.864741 0.941216 0.057776 0.154735
H14   H     H_    0.867009 0.368650 0.053451 0.135003
H15   H     H_    0.128697 0.402563 0.950418 0.135460
H16   H     H_    0.369441 0.884777 0.051610 0.135458
H17   H     H_    0.629571 0.893632 0.949549 0.133406
H18   H     H_    0.857611 0.356920 0.927689 0.142333
H19   H     H_    0.140893 0.387309 0.076693 0.144569
H20   H     H_    0.358519 0.871753 0.925687 0.142444
H21   H     H_    0.641088 0.880181 0.075697 0.139533
H22   H     H_    0.815173 0.239650 0.552311 0.152313
H23   H     H_    0.969985 0.485377 0.061554 0.146438
H24   H     H_    0.143531 0.328226 0.429788 0.164239
H25   H     H_    0.204266 0.720772 0.542485 0.095945
H26   H     H_    0.635752 0.875535 0.419978 0.153389
H27   H     H_    0.622692 0.588199 0.059835 0.233435
H28   H     H_    0.594760 0.441569 0.067972 0.221045
H29   H     H_    0.369096 0.548592 0.896924 0.262124
H30   H     H_    0.370316 0.395916 0.878108 0.245648
H31   H     H_    0.121874 0.899998 0.112427 0.228985
H32   H     H_    0.089812 0.994004 0.049848 0.220178
H33   H     H_    0.867545 0.055994 0.898348 0.261734
H34   H     H_    0.019235 0.482487 0.937230 0.140870
H35   H     H_    0.871603 0.903721 0.878714 0.241492
H36   H     H_    0.509087 0.877532 0.448426 0.233975
H37   H     H_    0.421762 0.907200 0.448175 0.260255
H38   H     H_    0.417525 0.923215 0.572618 0.249667
H39   H     H_    0.503106 0.882852 0.571977 0.244350
H40   H     H_    0.016155 0.374163 0.444569 0.229887
H41   H     H_    0.929951 0.412717 0.445902 0.252147
H42   H     H_    0.922704 0.447597 0.567809 0.239591
H43   H     H_    0.004426 0.386505 0.567625 0.236085
H44   H     H_    0.817342 0.264467 0.425876 0.169812
H45   H     H_    0.125387 0.375882 0.551752 0.155852
H46   H     H_    0.224935 0.751148 0.415200 0.141065
H47   H     H_    0.615544 0.927479 0.543293 0.147180
H48   H     H_    0.698694 0.597812 0.445257 0.169978
I1    I     I_    0.661498 0.632627 0.601545 -0.292890
I2    I     I_    0.375303 0.597398 0.405667 -0.301479
I3    I     I_    0.296417 0.154108 0.620823 -0.324483
I4    I     I_    0.900658 0.034579 0.424440 -0.315628
I5    I     I_    0.470445 0.457958 0.578445 -0.229924
I6    I     I_    0.559158 0.428793 0.411033 -0.272616
I7    I     I_    0.056139 0.965164 0.559862 -0.257211
I8    I     I_    0.084067 0.906031 0.379855 -0.281801
N1    N     N_3   0.636721 0.501093 0.078123 -0.593431
N2    N     N_3   0.369539 0.460624 0.918947 -0.643875
N3    N     N_3   0.133556 0.977834 0.082021 -0.589839
N4    N     N_3   0.869346 0.967718 0.919861 -0.645159
N5    N     N_3   0.470987 0.940527 0.432706 -0.570602
N6    N     N_3   0.468343 0.953009 0.584707 -0.582925
N7    N     N_3   0.979745 0.440033 0.428682 -0.575843
N8    N     N_3   0.975538 0.465028 0.579043 -0.597059
O1    O     O_R   0.784320 0.290430 0.830510 -0.522945
O2    O     O_R   0.456080 0.282180 0.333210 -0.469995
O3    O     O_R   0.043920 0.782180 0.666790 -0.489846
O4    O     O_R   0.956080 0.782180 0.333210 -0.462798
O5    O     O_R   0.679040 0.374160 0.674430 -0.463728
O6    O     O_R   0.320960 0.374160 0.325570 -0.464675
O7    O     O_R   0.179040 0.874160 0.674430 -0.472073
O8    O     O_R   0.820960 0.874160 0.325570 -0.464345
O9    O     O_3   0.665350 0.165340 0.749070 -0.289045
O10   O     O_3   0.334650 0.165340 0.250930 -0.279033
O11   O     O_3   0.165350 0.665340 0.749070 -0.294202
O12   O     O_R   0.215680 0.290430 0.169490 -0.503818
O13   O     O_3   0.834650 0.665340 0.250930 -0.273054
O14   O     O_R   0.762640 0.040960 0.825200 -0.501533
O15   O     O_R   0.237360 0.040960 0.174800 -0.458220
O16   O     O_R   0.262640 0.540960 0.825200 -0.499329
O17   O     O_R   0.737360 0.540960 0.174800 -0.457123
O18   O     O_R   0.667400 0.923970 0.829950 -0.516084
O19   O     O_R   0.332600 0.923970 0.170050 -0.532539
O20   O     O_R   0.167400 0.423970 0.829950 -0.515358
O21   O     O_R   0.832600 0.423970 0.170050 -0.536406
O22   O     O_R   0.553960 0.081340 0.821780 -0.498502
O23   O     O_R   0.284320 0.790430 0.830510 -0.519200
O24   O     O_R   0.446040 0.081340 0.178220 -0.502864
O25   O     O_R   0.053960 0.581340 0.821780 -0.498241
O26   O     O_R   0.946040 0.581340 0.178220 -0.503196
O27   O     O_R   0.543180 0.283240 0.826740 -0.508128
O28   O     O_R   0.456820 0.283240 0.173260 -0.510069
O29   O     O_R   0.043180 0.783240 0.826740 -0.511484
O30   O     O_R   0.956820 0.783240 0.173260 -0.512119
O31   O     O_R   0.678360 0.375140 0.822710 -0.498943
O32   O     O_R   0.321640 0.375140 0.177290 -0.509147
O33   O     O_R   0.178360 0.875140 0.822710 -0.500214
O34   O     O_R   0.715680 0.790430 0.169490 -0.511823
O35   O     O_R   0.821640 0.875140 0.177290 -0.508979
O36   O     O_R   0.785050 0.289380 0.670560 -0.534532
O37   O     O_R   0.214950 0.289380 0.329440 -0.520741
O38   O     O_R   0.285050 0.789380 0.670560 -0.519745
O39   O     O_R   0.714950 0.789380 0.329440 -0.524674
O40   O     O_R   0.763320 0.039990 0.676930 -0.502932
O41   O     O_R   0.236680 0.039990 0.323070 -0.476816
O42   O     O_R   0.263320 0.539990 0.676930 -0.480052
O43   O     O_R   0.736680 0.539990 0.323070 -0.492359
O44   O     O_R   0.668130 0.922920 0.670000 -0.473490
O45   O     O_R   0.554640 0.080370 0.673500 -0.492113
O46   O     O_R   0.331870 0.922920 0.330000 -0.492490
O47   O     O_R   0.168130 0.422920 0.670000 -0.483823
O48   O     O_R   0.831870 0.422920 0.330000 -0.505555
O49   O     O_R   0.445360 0.080370 0.326500 -0.468004
O50   O     O_R   0.054640 0.580370 0.673500 -0.487665
O51   O     O_R   0.945360 0.580370 0.326500 -0.468773
O52   O     O_R   0.543920 0.282180 0.666790 -0.482099

loop_
_geom_bond_atom_site_label_1
_geom_bond_atom_site_label_2
_ccdc_geom_bond_type
C44   C49   A    
C64   O33   A    
C78   N4    S    
C8    C13   A    
Cr10  O11   S    
C53   C58   A    
C56   N2    S    
C75   O5    A    
C43   C83   S    
C47   C68   S    
Cr8   O18   S    
C11   H20   S    
C69   O47   A    
C54   I2    S    
Cr4   O13   S    
C4    C8    A    
Cr9   O24   S    
H29   N2    S    
C64   O23   A    
C83   C86   D    
Cr7   O43   S    
C1    O18   A    
Cr4   O30   S    
C72   O49   A    
Cr6   O42   S    
Cr1   O1    S    
C21   C25   A    
C29   C30   A    
Cr5   O41   S    
C43   O26   A    
C18   C24   A    
C31   C58   A    
H35   N4    S    
C62   O31   A    
C18   C19   A    
C41   O28   A    
C3    C7    A    
C10   C15   A    
C23   O20   A    
C79   O39   A    
C8    H17   S    
C30   N8    S    
C12   O15   A    
C68   O41   A    
C82   C87   D    
C14   C62   S    
C39   H47   S    
C26   C73   S    
C63   O32   A    
C25   C74   S    
Cr2   O10   S    
C88   H9    S    
Cr1   O36   S    
C45   N1    S    
H28   N1    S    
Cr12  O52   S    
C46   C69   S    
Cr3   O7    S    
Cr9   O10   S    
C36   H44   S    
C65   O34   A    
C83   H7    S    
C20   I7    S    
C42   C82   S    
C74   O51   A    
C40   C80   S    
C44   C70   S    
Cr11  O21   S    
Cr11  O26   S    
C73   O3    A    
C68   O46   A    
C74   O4    A    
C49   H48   S    
C28   N6    S    
C13   H21   S    
C56   C90   A    
C3    C12   S    
C77   O7    A    
C55   C60   A    
C70   O43   A    
C2    C6    A    
C17   C92   A    
Cr8   O9    S    
C7    H16   S    
C22   C72   S    
C58   C75   S    
Cr5   O15   S    
C54   C59   A    
C34   O21   A    
C25   C29   A    
C60   C77   S    
C57   I4    S    
Cr8   O22   S    
Cr8   O45   S    
H40   N7    S    
C19   C22   A    
C84   C85   S    
C10   H19   S    
C55   I3    S    
C85   H12   S    
Cr1   O9    S    
C86   C87   S    
Cr5   O12   S    
C47   C51   A    
C51   C55   A    
C78   C92   A    
C71   O45   A    
C12   O19   A    
Cr8   O44   S    
Cr10  O20   S    
C63   O12   A    
H30   N2    S    
Cr7   O39   S    
C72   O2    A    
C34   O17   A    
C35   C39   A    
C9    C14   A    
H39   N6    S    
C5    C9    A    
C80   C85   D    
C67   N3    S    
H38   N6    S    
C66   O40   A    
C11   C16   A    
C7    C11   A    
Cr12  O9    S    
C65   O35   A    
Cr9   O46   S    
Cr3   O29   S    
Cr1   O14   S    
C41   C81   S    
C45   C88   A    
C67   C91   A    
C9    H18   S    
C35   C61   A    
C50   C54   A    
C32   C37   A    
C35   H26   S    
C38   C47   A    
C27   N5    S    
C92   H13   S    
Cr3   O11   S    
C81   H5    S    
C26   C30   A    
C33   C60   A    
C22   C27   A    
Cr7   O34   S    
Cr12  O31   S    
Cr2   O28   S    
C36   C44   A    
Cr3   O33   S    
C87   H34   S    
C66   O44   A    
C52   C57   A    
Cr10  O25   S    
C6    H15   S    
Cr7   O17   S    
C81   C84   D    
C45   C89   A    
C76   O37   A    
Cr4   O35   S    
H41   N7    S    
C33   H25   S    
H36   N5    S    
C62   O1    A    
H42   N8    S    
C53   I1    S    
C15   C63   S    
Cr4   O8    S    
C41   O24   A    
C86   H23   S    
Cr11  O13   S    
C19   I6    S    
H31   N3    S    
C79   O8    A    
Cr2   O6    S    
C42   O29   A    
C3    C67   A    
C24   C28   A    
C75   O36   A    
C37   H45   S    
Cr6   O23   S    
C6    C10   A    
H33   N4    S    
C1    O14   A    
C57   C61   A    
Cr12  O5    S    
C4    C78   A    
C82   H8    S    
C46   C50   A    
C17   C65   S    
C33   C38   A    
C31   H22   S    
C13   C17   A    
C5    H14   S    
C1    C4    S    
C70   O48   A    
H37   N5    S    
C32   H24   S    
C40   O27   A    
C76   O6    A    
Cr6   O11   S    
C34   C89   S    
C14   C88   A    
C23   O16   A    
C18   I5    S    
C2    C56   A    
C77   O38   A    
Cr2   O2    S    
C15   C90   A    
C29   N7    S    
Cr5   O10   S    
C20   C26   A    
C61   C79   S    
C49   C53   A    
C84   H1    S    
Cr11  O48   S    
C21   I8    S    
Cr12  O27   S    
C91   H11   S    
C73   O50   A    
C43   O30   A    
Cr2   O32   S    
C90   H10   S    
Cr6   O16   S    
Cr7   O13   S    
H43   N8    S    
Cr10  O50   S    
C42   O25   A    
Cr9   O49   S    
Cr10  O47   S    
C48   C52   A    
C71   O52   A    
C40   O22   A    
C20   C21   A    
C52   H4    S    
C16   C91   A    
C51   H3    S    
Cr4   O4    S    
C80   H6    S    
C2    C23   S    
C50   H2    S    
C48   C66   S    
H27   N1    S    
C31   C36   A    
Cr6   O38   S    
C69   O42   A    
C16   C64   S    
C32   C59   A    
Cr5   O37   S    
C37   C46   A    
Cr9   O19   S    
Cr1   O40   S    
Cr3   O3    S    
C59   C76   S    
C38   H46   S    
C5    C89   A    
C24   C71   S    
Cr11  O51   S    
C39   C48   A    
C27   C28   A    
H32   N3    S    
