data_mof_unit_44638.cif
_audit_creation_date              2013-03-05T16:43:02-0500
_audit_creation_method            fapswitch 2.2
_symmetry_space_group_name_H-M    P1
_symmetry_Int_Tables_number       1
_space_group_crystal_system       triclinic
_cell_length_a                    10.667049
_cell_length_b                    10.706409
_cell_length_c                    9.861174
_cell_angle_alpha                 90.186747
_cell_angle_beta                  89.88323
_cell_angle_gamma                 90.724619
_cell_volume                      1126.10486949

loop_
_atom_site_label
_atom_site_type_symbol
_atom_site_description
_atom_site_fract_x
_atom_site_fract_y
_atom_site_fract_z
_atom_type_partial_charge
O1    O     O_R   0.500020 0.316790 0.614690 -0.618022
O2    O     O_R   0.500000 0.316760 0.385350 -0.585961
C1    C     C_R   0.500391 0.260037 0.499779 0.914737
O3    O     O_R   0.314800 0.500000 0.614670 -0.596859
O4    O     O_R   0.314790 0.499960 0.385330 -0.626455
C2    C     C_R   0.257997 0.508282 0.500626 0.916752
Zn1   Zn    Zn3+2 0.500010 0.500020 0.653130 1.020398
Zn2   Zn    Zn3+2 0.499990 0.499980 0.346870 0.982885
O5    O     O_R   0.500000 0.683240 0.614650 -0.598668
O6    O     O_R   0.499980 0.683210 0.385310 -0.641989
O7    O     O_R   0.685210 0.500040 0.614670 -0.597280
O8    O     O_R   0.685200 0.500000 0.385330 -0.622902
C3    C     C_R   0.498754 0.739895 0.499982 0.898904
C4    C     C_R   0.742320 0.501082 0.500464 0.842729
C5    C     C_3   0.071097 0.537277 0.651284 0.235533
H1    H     H_    0.111174 0.465184 0.718291 0.128188
C6    C     C_3   0.927880 0.520992 0.652507 0.104449
H2    H     H_    0.884518 0.607667 0.692964 0.171391
H3    H     H_    0.111175 0.709023 0.434382 0.233929
H4    H     H_    0.895362 0.706331 0.462200 0.213617
C7    C     C_3   0.071355 0.615738 0.407906 -0.337716
C8    C     C_3   0.072228 0.384380 0.451325 -0.406592
C9    C     C_3   0.121344 0.513352 0.503448 -0.070134
H5    H     H_    0.111109 0.364879 0.349180 0.252523
H6    H     H_    0.102404 0.308478 0.520388 0.217121
C10   C     C_3   0.878641 0.504414 0.503095 -0.037169
C11   C     C_3   0.927039 0.616961 0.416670 -0.428961
C12   C     C_3   0.929237 0.383549 0.439233 -0.356679
H7    H     H_    0.888090 0.298730 0.487253 0.214178
H8    H     H_    0.902629 0.378727 0.330118 0.213464
H9    H     H_    0.099992 0.595833 0.301446 0.193488
H10   H     H_    0.888180 0.612566 0.312037 0.210067
C13   C     C_R   0.469108 0.063979 0.619090 0.106721
C14   C     C_R   0.490349 0.128025 0.498480 -0.110516
C15   C     C_R   0.494447 0.063471 0.374844 -0.116310
H11   H     H_    0.506941 0.111374 0.279165 0.219404
C16   C     C_R   0.490824 0.935007 0.374715 -0.234750
H12   H     H_    0.499730 0.886507 0.278629 0.178768
C17   C     C_R   0.486580 0.871388 0.498667 -0.108895
C18   C     C_R   0.467312 0.936312 0.619327 0.218494
C19   C     C_3   0.536938 0.929841 0.750521 -0.471405
C20   C     C_3   0.539601 0.071388 0.749744 -0.438043
H13   H     H_    0.478163 0.889876 0.833333 0.234852
H14   H     H_    0.631345 0.887996 0.739397 0.204137
H15   H     H_    0.482873 0.113684 0.831973 0.258604
H16   H     H_    0.635472 0.111977 0.737560 0.231610
C21   C     C_R   0.436993 0.407925 0.071144 0.174474
N1    N     N_R   0.499150 0.499140 0.142800 -0.145311
C22   C     C_R   0.571149 0.583274 0.072119 -0.108292
H17   H     H_    0.626742 0.652054 0.126599 0.149510
C23   C     C_R   0.571293 0.583141 0.928156 -0.012503
H18   H     H_    0.627237 0.651635 0.873899 0.141939
N2    N     N_R   0.499150 0.499180 0.857150 -0.098099
C24   C     C_R   0.435304 0.410204 0.928254 0.152541
C25   C     C_3   0.297551 0.389424 0.922586 -0.522711
C26   C     C_3   0.298735 0.381201 0.076088 0.269156
H19   H     H_    0.248868 0.473967 0.887031 0.218401
H20   H     H_    0.272043 0.301649 0.868134 0.249242
H21   H     H_    0.243857 0.455506 0.127022 0.099939
S1    S     S_3+6 0.113648 0.688000 0.725690 -0.021621
O9    O     O_2   0.090740 0.680967 0.875936 -0.299179
O10   O     O_2   0.248856 0.721581 0.701735 -0.307607
O11   O     O_3   0.024471 0.801880 0.661420 -0.597182
H22   H     H_    0.052634 0.879127 0.708532 0.404477
S2    S     S_3+6 0.260731 0.226335 0.132772 0.009369
O12   O     O_2   0.274998 0.218058 0.283717 -0.335217
O13   O     O_2   0.127097 0.196456 0.095550 -0.254710
O14   O     O_3   0.355754 0.122595 0.057916 -0.598804
H23   H     H_    0.326465 0.039978 0.091045 0.386074
N3    N     N_R   0.890363 0.417975 0.743702 0.211182
O15   O     O_R   0.825078 0.442337 0.851989 -0.366088
O16   O     O_R   0.935079 0.306232 0.728607 -0.410616

loop_
_geom_bond_atom_site_label_1
_geom_bond_atom_site_label_2
_geom_bond_distance
_ccdc_geom_bond_type
O4    Zn2   2.010852 S    
C23   N2    1.367901 A    
C25   C26   1.516646 S    
Zn2   N1    2.012398 S    
C5    C6    1.535447 S    
C16   H12   1.083575 S    
C23   H18   1.081823 S    
H4    C11   1.111774 S    
C19   H13   1.111953 S    
C19   C20   1.515407 S    
C24   C25   1.484525 S    
C10   C12   1.540577 S    
C21   N1    1.368816 A    
C26   H21   1.111667 S    
Zn2   O8    2.012473 S    
S2    O14   1.681069 S    
C5    C9    1.573541 S    
C6    H2    1.114431 S    
C7    C11   1.541898 S    
C6    N3    1.476207 S    
C16   C17   1.401594 A    
O14   H23   0.990560 S    
C8    C12   1.530105 S    
N2    C24   1.359757 A    
C4    C10   1.454415 S    
S1    O10   1.500419 D    
Zn1   O7    2.010850 S    
C7    H9    1.113428 S    
C10   C11   1.560122 S    
N3    O15   1.301168 A    
S1    O11   1.682249 S    
C6    C10   1.573949 S    
C12   H8    1.114235 S    
N1    C22   1.368015 A    
H3    C7    1.110899 S    
C21   C26   1.499471 S    
C13   C14   1.391538 A    
O6    C3    1.281748 A    
O2    C1    1.283232 A    
C21   C24   1.409511 A    
C25   H19   1.107521 S    
C7    C9    1.548289 S    
C20   H16   1.112524 S    
O4    C2    1.290553 A    
C14   C15   1.400388 A    
C19   H14   1.112444 S    
C8    H5    1.108734 S    
C3    C17   1.415535 S    
C13   C18   1.366758 A    
S2    O13   1.502958 D    
S2    O12   1.499585 D    
C13   C20   1.494480 S    
O11   H22   0.990893 S    
O3    C2    1.282391 A    
C5    H1    1.108133 S    
C17   C18   1.392254 A    
O5    C3    1.285090 A    
C15   C16   1.375440 A    
Zn2   O6    1.996811 S    
C22   H17   1.081772 S    
C5    S1    1.823063 S    
C25   H20   1.111903 S    
O7    C4    1.279330 A    
Zn1   O5    1.999207 S    
C18   C19   1.495302 S    
Zn1   N2    2.011928 S    
O3    Zn1   2.012475 S    
C12   H7    1.110588 S    
O1    Zn1   1.996810 S    
N3    O16   1.301516 A    
C15   H11   1.082547 S    
C1    C14   1.416088 S    
O1    C1    1.284064 A    
C11   H10   1.113367 S    
C2    C9    1.459581 S    
C20   H15   1.109633 S    
C8    C9    1.556775 S    
O2    Zn2   1.999207 S    
C26   S2    1.792783 S    
O8    C4    1.289564 A    
S1    O9    1.503101 D    
C22   C23   1.419631 A    
C8    H6    1.113071 S    
