data_mof_unit_37155.cif
_audit_creation_date              2012-12-10T20:03:11-0500
_audit_creation_method            fapswitch 2.2
_symmetry_space_group_name_H-M    P1
_symmetry_Int_Tables_number       1
_space_group_crystal_system       triclinic
_cell_length_a                    8.646385
_cell_length_b                    18.968529
_cell_length_c                    18.416391
_cell_angle_alpha                 90.330256
_cell_angle_beta                  98.56432
_cell_angle_gamma                 90.030734
_cell_volume                      2986.72486508

loop_
_atom_site_label
_atom_site_type_symbol
_atom_type_description
_atom_site_fract_x
_atom_site_fract_y
_atom_site_fract_z
_atom_type_partial_charge
C1    C     C_R   0.503641 0.365052 0.500045 0.918928
C2    C     C_R   0.504953 0.634752 0.500509 0.928780
C3    C     C_R   0.719860 0.963902 0.571639 -0.375126
C4    C     C_R   0.586855 0.033973 0.444107 -0.406356
C5    C     C_R   0.719124 0.037295 0.570538 0.513528
C6    C     C_R   0.594654 0.960509 0.443773 0.519026
C7    C     C_R   0.643895 0.071847 0.507771 -0.035888
C8    C     C_R   0.654218 0.926001 0.509222 -0.017445
C9    C     C_R   0.572610 0.552899 0.731888 0.008407
C10   C     C_R   0.379658 0.469810 0.264679 -0.012360
C11   C     C_R   0.574050 0.553432 0.808235 -0.320690
C12   C     C_R   0.378349 0.469778 0.188336 -0.273860
C13   C     C_R   0.501731 0.498709 0.841704 0.205357
C14   C     C_R   0.502551 0.500383 0.158440 0.164341
C15   C     C_R   0.427103 0.444522 0.796870 0.042308
C16   C     C_R   0.625997 0.531521 0.207125 0.015390
C17   C     C_R   0.427504 0.446569 0.720387 -0.046586
C18   C     C_R   0.621092 0.530890 0.283081 0.029788
C19   C     C_R   0.601460 0.452697 0.968523 0.520509
C20   C     C_R   0.398308 0.543709 0.030890 0.499649
C21   C     C_R   0.602199 0.454912 0.045472 -0.429753
C22   C     C_R   0.404191 0.544447 0.954577 -0.397572
C23   C     C_R   0.201450 0.500199 0.481163 0.940831
C24   C     C_R   0.798581 0.500158 0.518790 0.947976
C25   C     C_R   0.501094 0.499881 0.077050 -0.038916
C26   C     C_R   0.503506 0.498836 0.922961 -0.003540
C27   C     C_2   0.038535 0.490922 0.472016 -0.109499
C28   C     C_2   0.961393 0.510024 0.527648 -0.111158
C29   C     C_R   0.675694 0.732084 0.472484 -0.004053
C30   C     C_R   0.461140 0.245180 0.547220 -0.019172
C31   C     C_R   0.718671 0.803587 0.477634 0.111725
C32   C     C_R   0.499574 0.173057 0.551021 0.132959
C33   C     C_R   0.631011 0.850484 0.514068 0.145155
C34   C     C_R   0.611043 0.146915 0.509478 0.146085
C35   C     C_R   0.505571 0.826881 0.547323 -0.245716
C36   C     C_R   0.683013 0.191090 0.464509 -0.320862
C37   C     C_R   0.462171 0.756167 0.542670 0.039664
C38   C     C_R   0.646685 0.262361 0.460547 0.063442
C39   C     C_R   0.545138 0.709108 0.503871 -0.053762
C40   C     C_R   0.534588 0.289554 0.501565 -0.063367
H1    H     H_    0.369501 0.405362 0.685639 0.141704
H2    H     H_    0.714541 0.555374 0.320343 0.148521
H3    H     H_    0.682439 0.421931 0.081029 0.159224
H4    H     H_    0.331205 0.580761 0.919597 0.167197
H5    H     H_    0.437859 0.864005 0.574642 0.153291
H6    H     H_    0.768325 0.170048 0.432575 0.145946
H7    H     H_    0.766767 0.936574 0.621596 0.177645
H8    H     H_    0.527605 0.061422 0.396513 0.167226
H9    H     H_    0.629837 0.594871 0.706506 0.132392
H10   H     H_    0.284160 0.445627 0.287297 0.128545
H11   H     H_    0.632226 0.595964 0.841072 0.150893
H12   H     H_    0.281547 0.445540 0.152820 0.136792
N1    N     N_R   0.500020 0.499980 0.689440 -0.093417
N2    N     N_R   0.499980 0.500020 0.310560 -0.104680
O1    O     O_R   0.500010 0.398180 0.560840 -0.612008
O2    O     O_R   0.499990 0.601820 0.439160 -0.603716
O3    O     O_R   0.499930 0.398180 0.439210 -0.605906
O4    O     O_R   0.500070 0.601820 0.560790 -0.617763
O5    O     O_R   0.271780 0.500000 0.546590 -0.587024
O6    O     O_R   0.728220 0.500000 0.453410 -0.591794
O7    O     O_R   0.271710 0.499990 0.424960 -0.647941
O8    O     O_R   0.728290 0.500010 0.575040 -0.642708
Zn1   Zn    Zn3+2 0.500050 0.500000 0.581210 0.954951
Zn2   Zn    Zn3+2 0.499950 0.500000 0.418790 0.956780
N3    N     N_3   0.965163 0.454423 0.406929 -0.433897
H13   H     H_    0.021280 0.405957 0.403448 0.165053
H14   H     H_    0.981545 0.484221 0.361077 0.193204
N4    N     N_3   0.034706 0.547258 0.592261 -0.428529
H15   H     H_    0.978626 0.595837 0.595055 0.172035
H16   H     H_    0.018606 0.518008 0.638517 0.199687
N5    N     N_3   0.349419 0.388345 0.828508 -0.473475
H17   H     H_    0.232041 0.388404 0.804389 0.180368
H18   H     H_    0.398716 0.340796 0.814437 0.179335
N6    N     N_3   0.755204 0.565047 0.181012 -0.486935
H19   H     H_    0.711261 0.604046 0.143666 0.207961
H20   H     H_    0.812863 0.527385 0.153291 0.189141
O9    O     O_3   0.705521 0.410790 0.937211 -0.609589
C41   C     C_3   0.688097 0.339278 0.955503 0.098120
H21   H     H_    0.562732 0.324053 0.953139 0.140955
H22   H     H_    0.752041 0.328567 0.011280 0.136473
C42   C     C_3   0.758152 0.293219 0.900885 -0.824605
H23   H     H_    0.884271 0.305669 0.902906 0.257456
H24   H     H_    0.745739 0.236768 0.914611 0.203708
H25   H     H_    0.696632 0.302620 0.844410 0.254682
O10   O     O_3   0.303326 0.590302 0.061966 -0.604399
C43   C     C_3   0.144751 0.574683 0.036307 0.105814
H26   H     H_    0.118480 0.517888 0.044113 0.135195
H27   H     H_    0.113599 0.588392 0.977320 0.143723
C44   C     C_3   0.042081 0.618423 0.079376 -0.814775
H28   H     H_    0.066132 0.675424 0.073194 0.260480
H29   H     H_    0.917094 0.608000 0.058175 0.204021
H30   H     H_    0.065872 0.604452 0.138475 0.262016
N7    N     N_3   0.765322 0.682172 0.437171 -0.453782
H31   H     H_    0.764736 0.697426 0.382696 0.189728
H32   H     H_    0.880560 0.682466 0.464163 0.172101
N8    N     N_3   0.345972 0.273530 0.587945 -0.468441
H33   H     H_    0.239904 0.247374 0.571798 0.172641
H34   H     H_    0.382218 0.264478 0.643812 0.181113
N9    N     N_3   0.849832 0.829338 0.446127 -0.471256
H35   H     H_    0.832109 0.817787 0.389966 0.188367
H36   H     H_    0.950467 0.803190 0.470558 0.173335
N10   N     N_3   0.423772 0.125628 0.595002 -0.442414
H37   H     H_    0.303379 0.126708 0.576851 0.159467
H38   H     H_    0.444601 0.142895 0.649574 0.196013
N11   N     N_3   0.330937 0.732505 0.575247 -0.455158
H39   H     H_    0.352895 0.744232 0.631384 0.190375
H40   H     H_    0.232742 0.761306 0.552367 0.177802
N12   N     N_3   0.727992 0.307521 0.416718 -0.423796
H41   H     H_    0.708186 0.288865 0.362590 0.183733
H42   H     H_    0.847777 0.303539 0.435722 0.174441
O11   O     O_3   0.778323 0.074767 0.633078 -0.600174
C45   C     C_3   0.933354 0.094795 0.627366 0.088135
H43   H     H_    0.939353 0.125136 0.576174 0.129368
H44   H     H_    0.009763 0.047436 0.628185 0.141375
C46   C     C_3   0.996136 0.141783 0.692284 -0.822444
H45   H     H_    0.994882 0.112910 0.744485 0.258817
H46   H     H_    0.118166 0.157794 0.688293 0.193552
H47   H     H_    0.922765 0.189836 0.692342 0.258557
O12   O     O_3   0.523748 0.921384 0.384105 -0.600824
C47   C     C_3   0.593947 0.936569 0.321433 0.087252
H48   H     H_    0.724117 0.938651 0.334495 0.137060
H49   H     H_    0.549785 0.987522 0.297046 0.138391
C48   C     C_3   0.550943 0.878770 0.264398 -0.805138
H50   H     H_    0.421982 0.876398 0.248502 0.260573
H51   H     H_    0.605670 0.889841 0.214802 0.202243
H52   H     H_    0.593266 0.826972 0.287122 0.253451

loop_
_geom_bond_atom_site_label_1
_geom_bond_atom_site_label_2
_ccdc_geom_bond_type
C30   C32   A    
N7    H31   S    
N1    Zn1   S    
O11   C45   S    
C45   H44   S    
C42   H23   S    
C48   H50   S    
O9    C41   S    
C23   O5    A    
N11   H40   S    
N6    H20   S    
C16   N6    S    
C28   N4    S    
C18   H2    S    
C41   H22   S    
C48   H51   S    
C20   C25   A    
C46   H45   S    
N12   H41   S    
C19   O9    S    
C19   C26   A    
C30   N8    S    
C1    C40   S    
C12   H12   S    
C21   H3    S    
C2    C39   S    
C22   H4    S    
N4    H15   S    
C46   H46   S    
N8    H34   S    
O2    Zn2   S    
C36   H6    S    
C14   C16   A    
C23   C27   S    
C44   H29   S    
C47   C48   S    
N7    H32   S    
C38   C40   A    
N8    H33   S    
C29   C31   A    
C4    C7    A    
C45   H43   S    
C42   H24   S    
C47   H49   S    
N6    H19   S    
C43   H27   S    
C9    H9    S    
C4    C6    A    
C3    C8    A    
C5    C7    A    
C41   H21   S    
C48   H52   S    
C6    C8    A    
C5    O11   S    
N3    H14   S    
O10   C43   S    
O1    Zn1   S    
C32   C34   A    
O7    Zn2   S    
C37   N11   S    
O8    Zn1   S    
C27   N3    S    
C1    O3    A    
N9    H35   S    
C24   O6    A    
C46   H47   S    
C20   O10   S    
C29   C39   A    
C31   C33   A    
C30   C40   A    
C44   H30   S    
N10   H38   S    
C9    C11   A    
C10   C12   A    
C16   C18   A    
N9    H36   S    
C12   C14   A    
C31   N9    S    
C13   C15   A    
C7    C34   S    
C32   N10   S    
C13   C26   S    
C9    N1    A    
C35   H5    S    
C17   N1    A    
C6    O12   S    
C42   H25   S    
C47   H48   S    
O3    Zn2   S    
N5    H18   S    
C4    H8    S    
O4    Zn1   S    
C15   C17   A    
C21   C25   A    
C24   O8    A    
C35   C37   A    
C43   H26   S    
C24   C28   S    
C20   C22   A    
C3    C5    A    
C43   C44   S    
O12   C47   S    
C2    O4    A    
C15   N5    S    
N11   H39   S    
O5    Zn1   S    
O6    Zn2   S    
C36   C38   A    
C1    O1    A    
N5    H17   S    
C37   C39   A    
C2    O2    A    
C29   N7    S    
C11   C13   A    
C41   C42   S    
N2    Zn2   S    
C3    H7    S    
C33   C35   A    
N12   H42   S    
C34   C36   A    
C8    C33   S    
C14   C25   S    
C38   N12   S    
N10   H37   S    
C10   N2    A    
C17   H1    S    
C11   H11   S    
C18   N2    A    
C23   O7    A    
N4    H16   S    
N3    H13   S    
C22   C26   A    
C27   C28   D    
C44   H28   S    
C45   C46   S    
C19   C21   A    
C10   H10   S    
