data_mof_unit_44091.cif
_audit_creation_date              2013-03-05T16:06:01-0500
_audit_creation_method            fapswitch 2.2
_symmetry_space_group_name_H-M    P1
_symmetry_Int_Tables_number       1
_space_group_crystal_system       triclinic
_cell_length_a                    10.825324
_cell_length_b                    9.51241
_cell_length_c                    23.493119
_cell_angle_alpha                 90.012619
_cell_angle_beta                  90.170802
_cell_angle_gamma                 90.015757
_cell_volume                      2419.19115599

loop_
_atom_site_label
_atom_site_type_symbol
_atom_site_description
_atom_site_fract_x
_atom_site_fract_y
_atom_site_fract_z
_atom_type_partial_charge
O1    O     O_R   0.319640 0.618740 0.500000 -0.592604
O2    O     O_R   0.680360 0.381260 0.500000 -0.592604
O3    O     O_R   0.680360 0.618740 0.500000 -0.586993
O4    O     O_R   0.319640 0.381260 0.500000 -0.586993
C1    C     C_R   0.262041 0.499978 0.499950 0.762537
C2    C     C_R   0.737959 0.500022 0.500050 0.762537
O5    O     O_R   0.499960 0.618810 0.417880 -0.571534
O6    O     O_R   0.500040 0.381190 0.582120 -0.571534
O7    O     O_R   0.500040 0.618810 0.582120 -0.572598
O8    O     O_R   0.499960 0.381190 0.417880 -0.572596
C3    C     C_R   0.499907 0.499992 0.391218 0.837769
C4    C     C_R   0.500092 0.500007 0.608782 0.837766
Cu1   Cu    Cu3+1 0.500000 0.640660 0.500000 0.947008
Cu2   Cu    Cu3+1 0.500000 0.359340 0.500000 0.947009
C5    C     C_R   0.518106 0.624017 0.880354 0.537425
C6    C     C_R   0.481897 0.375978 0.119646 0.537422
N1    N     N_R   0.500559 0.499900 0.851919 -0.459892
N2    N     N_R   0.499440 0.500096 0.148081 -0.459893
C7    C     C_R   0.482877 0.375806 0.880282 0.537492
C8    C     C_R   0.517119 0.624190 0.119717 0.537491
C9    C     C_R   0.482514 0.373178 0.939971 -0.022945
C10   C     C_R   0.517483 0.626818 0.060029 -0.022945
C11   C     C_R   0.500139 0.499973 0.969967 -0.017946
C12   C     C_R   0.499861 0.500023 0.030033 -0.017946
C13   C     C_R   0.518032 0.626721 0.940043 -0.022836
C14   C     C_R   0.481969 0.373274 0.059957 -0.022837
C15   C     C_R   0.465025 0.247385 0.970235 -0.164857
C16   C     C_R   0.534974 0.752611 0.029765 -0.164856
C17   C     C_R   0.464754 0.247433 0.029622 -0.164838
C18   C     C_R   0.535247 0.752563 0.970378 -0.164839
O9    O     O_2   0.535392 0.744081 0.850850 -0.520851
O10   O     O_2   0.464615 0.255914 0.149150 -0.520847
O11   O     O_2   0.465788 0.255707 0.850709 -0.520423
O12   O     O_2   0.534204 0.744290 0.149291 -0.520420
H1    H     H_    0.451500 0.148540 0.948167 0.186634
H2    H     H_    0.548498 0.851456 0.051833 0.186634
C19   C     C_R   0.611130 0.476091 0.239024 0.166866
C20   C     C_R   0.388873 0.523932 0.760976 0.166866
C21   C     C_R   0.611545 0.475976 0.299169 0.084075
C22   C     C_R   0.388459 0.524050 0.700831 0.084075
C23   C     C_R   0.499784 0.500004 0.328849 -0.099406
C24   C     C_R   0.500215 0.499996 0.671151 -0.099410
C25   C     C_R   0.387918 0.524177 0.298971 0.083345
C26   C     C_R   0.612078 0.475795 0.701029 0.083348
C27   C     C_R   0.388077 0.524086 0.238823 0.168175
C28   C     C_R   0.611918 0.475886 0.761177 0.168174
C29   C     C_R   0.499539 0.500077 0.209241 0.285530
C30   C     C_R   0.500460 0.499920 0.790758 0.285526
C31   C     C_R   0.063829 0.372226 0.499973 -0.179303
C32   C     C_R   0.936171 0.627774 0.500027 -0.179304
C33   C     C_R   0.936079 0.372248 0.500045 -0.185149
C34   C     C_R   0.063921 0.627752 0.499956 -0.185149
C35   C     C_R   0.871778 0.500023 0.500056 -0.017008
C36   C     C_R   0.128222 0.499977 0.499944 -0.017008
C37   C     C_R   0.421221 0.074391 0.465509 -0.014523
C38   C     C_R   0.578778 0.925609 0.534491 -0.014524
C39   C     C_R   0.578779 0.074494 0.534492 -0.014639
C40   C     C_R   0.421221 0.925506 0.465508 -0.014640
H3    H     H_    0.358148 0.130521 0.437882 0.123940
H4    H     H_    0.641852 0.869479 0.562118 0.123940
H5    H     H_    0.641843 0.130710 0.562126 0.123793
H6    H     H_    0.358157 0.869290 0.437874 0.123794
N3    N     N_R   0.500000 0.852070 0.500000 -0.159102
N4    N     N_R   0.500000 0.147930 0.500000 -0.159102
H7    H     H_    0.451041 0.148621 0.051635 0.186614
H8    H     H_    0.548960 0.851374 0.948365 0.186613
C41   C     C_3   0.730483 0.450919 0.206853 -0.774561
H9    H     H_    0.768436 0.346088 0.218011 0.233611
H10   H     H_    0.719469 0.453302 0.159994 0.227745
H11   H     H_    0.798973 0.533341 0.218007 0.228052
C42   C     C_3   0.269524 0.549127 0.793147 -0.774557
H12   H     H_    0.231590 0.653969 0.781991 0.233618
H13   H     H_    0.201019 0.466723 0.781991 0.228044
H14   H     H_    0.280537 0.546734 0.840006 0.227744
C43   C     C_3   0.732458 0.451435 0.330759 -0.813066
H15   H     H_    0.724194 0.455158 0.377634 0.218850
H16   H     H_    0.769876 0.346311 0.319753 0.236569
H17   H     H_    0.800564 0.533425 0.318816 0.231225
C44   C     C_3   0.267550 0.548621 0.669242 -0.813067
H18   H     H_    0.275813 0.544897 0.622366 0.218857
H19   H     H_    0.199429 0.466648 0.681184 0.231220
H20   H     H_    0.230153 0.653753 0.680248 0.236573
C45   C     C_3   0.267189 0.548974 0.330356 -0.832239
H21   H     H_    0.275649 0.545227 0.377251 0.215160
H22   H     H_    0.229919 0.654198 0.319313 0.235821
H23   H     H_    0.198882 0.467148 0.318271 0.233454
C46   C     C_3   0.732802 0.450969 0.669644 -0.832239
H24   H     H_    0.801126 0.532776 0.681730 0.233450
H25   H     H_    0.770050 0.345735 0.680685 0.235823
H26   H     H_    0.724343 0.454724 0.622749 0.215164
C47   C     C_3   0.268608 0.549327 0.206436 -0.773884
H27   H     H_    0.279448 0.546939 0.159597 0.227600
H28   H     H_    0.200131 0.466940 0.217446 0.227856
H29   H     H_    0.230744 0.654177 0.217544 0.233403
C48   C     C_3   0.731383 0.450618 0.793564 -0.773879
H30   H     H_    0.799874 0.532989 0.782554 0.227848
H31   H     H_    0.720544 0.453011 0.840403 0.227599
H32   H     H_    0.769229 0.345760 0.782456 0.233410
H33   H     H_    0.111869 0.272343 0.499947 0.150131
H34   H     H_    0.888131 0.727657 0.500053 0.150131
H35   H     H_    0.887967 0.272379 0.500084 0.150516
H36   H     H_    0.112033 0.727621 0.499916 0.150516

loop_
_geom_bond_atom_site_label_1
_geom_bond_atom_site_label_2
_geom_bond_distance
_ccdc_geom_bond_type
C40   H6    1.081882 S    
C46   H24   1.109762 S    
C37   H3    1.081785 S    
C15   C17   1.395209 A    
C25   C45   1.520920 S    
C48   H30   1.109730 S    
N1    C30   1.436853 S    
O3    C2    1.290145 A    
N2    C29   1.436846 S    
C48   H32   1.109782 S    
C21   C23   1.416772 A    
O5    C3    1.292078 A    
C34   H36   1.083286 S    
O1    C1    1.290212 A    
C7    C9    1.402507 A    
C12   C14   1.409411 A    
C5    C13   1.402509 A    
C47   H28   1.109728 S    
C31   C36   1.400791 A    
C13   C18   1.405086 A    
C38   C39   1.416256 A    
O7    Cu1   1.940463 S    
C4    C24   1.465253 S    
C42   H14   1.107198 S    
C28   C48   1.517753 S    
C34   C36   1.400819 A    
C31   C33   1.382934 A    
C32   C34   1.382934 A    
C11   C12   1.411169 A    
C21   C43   1.520856 S    
C19   C29   1.412823 A    
C26   C46   1.520921 S    
C20   C30   1.412819 A    
O3    Cu1   1.963614 S    
C8    O12   1.349395 S    
C22   C24   1.416773 A    
C9    C15   1.405086 A    
C10   C16   1.405086 A    
Cu1   Cu2   2.676031 S    
C23   C25   1.416768 A    
O2    C2    1.290211 A    
C24   C26   1.416769 A    
O2    Cu2   1.963500 S    
C43   H17   1.109762 S    
C26   C28   1.413077 A    
C27   C29   1.412840 A    
C6    C14   1.402507 A    
C28   C30   1.412836 A    
C22   C44   1.520858 S    
C32   C35   1.400791 A    
C41   H9    1.109781 S    
C1    C36   1.448639 S    
C7    O11   1.349389 S    
C47   H27   1.107205 S    
C44   H19   1.109763 S    
C15   H1    1.083305 S    
C38   H4    1.081784 S    
C33   C35   1.400819 A    
C43   H15   1.105708 S    
C31   H33   1.083272 S    
C43   H16   1.109783 S    
C45   H21   1.105812 S    
Cu1   N3    2.011019 S    
O6    C4    1.292079 A    
Cu2   N4    2.011020 S    
C37   N4    1.366934 A    
C38   N3    1.366932 A    
C5    O9    1.349385 S    
C25   C27   1.413080 A    
C18   H8    1.083302 S    
C17   H7    1.083304 S    
C45   H22   1.109798 S    
C8    C10   1.402505 A    
C9    C11   1.409411 A    
O8    Cu2   1.940463 S    
C10   C12   1.409411 A    
C37   C40   1.416256 A    
C6    O10   1.349391 S    
C2    C35   1.448639 S    
C39   N4    1.366880 A    
C42   H13   1.109731 S    
C40   N3    1.366883 A    
C5    N1    1.369330 A    
C20   C42   1.517830 S    
O6    Cu2   1.940372 S    
O4    C1    1.290144 A    
C44   H20   1.109785 S    
C48   H31   1.107207 S    
C39   H5    1.081883 S    
C33   H35   1.083286 S    
C32   H34   1.083272 S    
C41   H11   1.109731 S    
C16   C18   1.395210 A    
C42   H12   1.109782 S    
C19   C21   1.412997 A    
C47   H29   1.109782 S    
C20   C22   1.412997 A    
C19   C41   1.517831 S    
N1    C7    1.369331 A    
C3    C23   1.465253 S    
N2    C8    1.369330 A    
C11   C13   1.409412 A    
O4    Cu2   1.963615 S    
C27   C47   1.517753 S    
O7    C4    1.292195 A    
O8    C3    1.292194 A    
C44   H18   1.105707 S    
O5    Cu1   1.940372 S    
C45   H23   1.109760 S    
O1    Cu1   1.963501 S    
C16   H2    1.083304 S    
C14   C17   1.405085 A    
C6    N2    1.369330 A    
C46   H26   1.105813 S    
C46   H25   1.109799 S    
C41   H10   1.107196 S    
