data_mof_unit_17398.cif
_audit_creation_date              2013-03-05T15:53:41-0500
_audit_creation_method            fapswitch 2.2
_symmetry_space_group_name_H-M    P1
_symmetry_Int_Tables_number       1
_space_group_crystal_system       triclinic
_cell_length_a                    14.878882
_cell_length_b                    14.784163
_cell_length_c                    16.950098
_cell_angle_alpha                 108.97438
_cell_angle_beta                  106.340834
_cell_angle_gamma                 107.908531
_cell_volume                      3038.95149403

loop_
_atom_site_label
_atom_site_type_symbol
_atom_site_description
_atom_site_fract_x
_atom_site_fract_y
_atom_site_fract_z
_atom_type_partial_charge
C1    C     C_R   0.094053 0.276755 0.027432 -0.082933
H1    H     H_    0.175838 0.295654 0.054807 0.100644
N1    N     N_R   0.055640 0.348550 0.045600 -0.053746
C2    C     C_R   0.936548 0.451294 0.735002 -0.082487
H2    H     H_    0.857954 0.401923 0.682385 0.095930
N2    N     N_R   0.960830 0.507850 0.823710 -0.038062
C3    C     C_R   0.719280 0.215905 0.823273 -0.130024
H3    H     H_    0.688373 0.162424 0.850000 0.092529
N3    N     N_R   0.811290 0.303400 0.871650 -0.041825
C4    C     C_R   0.300904 0.595215 0.003879 -0.062802
H4    H     H_    0.328898 0.660664 0.988025 0.093958
N4    N     N_R   0.205180 0.552990 0.997660 -0.046427
C5    C     C_R   0.727121 0.313156 0.747726 -0.120851
H5    H     H_    0.704316 0.352930 0.708015 0.132448
N5    N     N_R   0.814810 0.361830 0.823710 -0.035946
C6    C     C_R   0.296166 0.497721 0.079099 -0.057219
H6    H     H_    0.320083 0.469421 0.128900 0.065597
N6    N     N_R   0.201660 0.494570 0.045600 -0.047132
C7    C     C_R   0.110481 0.536071 0.812307 -0.122868
H7    H     H_    0.193060 0.564825 0.831030 0.142648
N7    N     N_R   0.068420 0.560530 0.871650 -0.049691
C8    C     C_R   0.920517 0.191993 0.948963 -0.118795
H8    H     H_    0.841532 0.132742 0.902935 0.100313
N8    N     N_R   0.948050 0.295860 0.997660 -0.046480
C9    C     C_R   0.011079 0.177087 0.964535 0.068311
C10   C     C_R   0.029287 0.465415 0.725607 0.082401
C11   C     C_R   0.664284 0.220474 0.744851 0.049112
C12   C     C_R   0.360229 0.560943 0.053639 0.095867
C13   C     C_R   0.224538 0.704814 0.265982 0.641486
N9    N     N_R   0.185190 0.638170 0.176290 -0.122893
C14   C     C_R   0.756716 0.571058 0.981331 -0.090072
H9    H     H_    0.758169 0.633949 0.963003 0.141181
N10   N     N_R   0.798340 0.505430 0.954400 -0.033447
C15   C     C_R   0.892261 0.396797 0.176687 -0.131283
H10   H     H_    0.812492 0.338367 0.148826 0.086817
N11   N     N_R   0.931580 0.439470 0.128350 -0.044642
C16   C     C_R   0.083366 0.801849 0.006307 -0.214771
H11   H     H_    0.163592 0.856082 0.029042 0.121993
N12   N     N_R   0.051950 0.704140 0.002340 -0.053230
C17   C     C_R   0.913619 0.717615 0.927782 0.294574
N13   N     N_R   0.944360 0.651450 0.954400 -0.087342
C18   C     C_R   0.064454 0.480137 0.253158 -0.008073
H12   H     H_    0.142303 0.496763 0.295009 0.132047
N14   N     N_R   0.039170 0.492150 0.176290 -0.057370
C19   C     C_R   0.220816 0.798070 0.186778 -0.248104
H13   H     H_    0.227747 0.861272 0.167302 0.141229
N15   N     N_R   0.188710 0.696600 0.128350 -0.073221
C20   C     C_R   0.744719 0.470713 0.054540 -0.114595
H14   H     H_    0.728893 0.434826 0.098270 0.099270
N16   N     N_R   0.794820 0.447010 0.002340 -0.047984
Ni1   Ni    Ni4+2 0.119330 0.493420 0.109950 0.211011
Ni2   Ni    Ni4+2 0.880670 0.506580 0.890050 0.295643
Ni3   Ni    Ni4+2 0.872590 0.372590 0.000000 0.214241
Ni4   Ni    Ni4+2 0.127410 0.627410 0.000000 0.206419
C21   C     C_R   0.240892 0.806056 0.274502 -0.030586
C22   C     C_R   0.720423 0.550189 0.042864 0.026261
C23   C     C_R   0.973996 0.420684 0.255812 0.040762
C24   C     C_R   0.998247 0.814461 0.960904 -0.002046
C25   C     C_R   0.522908 0.651284 0.042078 -0.068549
C26   C     C_R   0.471883 0.596692 0.082106 0.043385
C27   C     C_R   0.528744 0.565465 0.140682 -0.164874
H15   H     H_    0.496043 0.529604 0.178579 0.119706
C28   C     C_R   0.622557 0.565495 0.139745 -0.166616
H16   H     H_    0.658161 0.528818 0.176349 0.126154
C29   C     C_R   0.658859 0.596284 0.079919 0.099253
C30   C     C_R   0.616165 0.653253 0.042372 0.042317
C31   C     C_3   0.592687 0.656979 0.951338 -0.583171
C32   C     C_3   0.489513 0.654095 0.950696 0.498417
H17   H     H_    0.645842 0.734449 0.959411 0.200354
H18   H     H_    0.586050 0.587034 0.895388 0.219589
H19   H     H_    0.486083 0.730479 0.958685 0.049622
C33   C     C_R   0.967423 0.379533 0.323285 0.096650
C34   C     C_R   0.038921 0.419976 0.639047 0.086432
C35   C     C_R   0.145930 0.431471 0.554106 0.330701
C36   C     C_R   0.137153 0.448827 0.637224 -0.279336
C37   C     C_R   0.949000 0.357876 0.556047 -0.244594
C38   C     C_R   0.955608 0.347270 0.473726 0.155414
C39   C     C_R   0.054390 0.390564 0.473338 0.002081
C40   C     C_R   0.058929 0.405153 0.396907 -0.155747
C41   C     C_R   0.870091 0.323883 0.320044 -0.152836
C42   C     C_R   0.864287 0.306703 0.394594 -0.174144
H20   H     H_    0.133998 0.446973 0.399645 0.163815
H21   H     H_    0.797969 0.300167 0.263324 0.112095
H22   H     H_    0.788278 0.270923 0.393640 0.121173
H23   H     H_    0.207419 0.488621 0.700396 0.191188
H24   H     H_    0.872604 0.328642 0.555515 0.121799
C43   C     C_R   0.556117 0.150943 0.676813 0.123070
C44   C     C_R   0.285292 0.905739 0.359212 0.011631
C45   C     C_R   0.409891 0.090360 0.438457 -0.190483
C46   C     C_R   0.339012 0.001032 0.357676 -0.203486
C47   C     C_R   0.287955 0.906349 0.443715 0.310661
C48   C     C_R   0.368122 0.994396 0.526424 -0.029746
C49   C     C_R   0.431609 0.083855 0.521203 0.158132
C50   C     C_R   0.522578 0.161894 0.596368 -0.209778
C51   C     C_R   0.488428 0.070101 0.687010 -0.182502
C52   C     C_R   0.393020 0.994005 0.612993 -0.108156
H25   H     H_    0.572024 0.224844 0.587247 0.112368
H26   H     H_    0.510315 0.063272 0.750570 0.123175
H27   H     H_    0.456055 0.160599 0.435024 0.140423
H28   H     H_    0.344112 0.932463 0.623547 0.183953
H29   H     H_    0.334562 0.005513 0.294472 0.138262
C53   C     C_R   0.114687 0.073026 0.933873 -0.043129
C54   C     C_R   0.018290 0.077278 0.916790 0.075653
C55   C     C_R   0.928267 0.982675 0.849307 -0.123317
H30   H     H_    0.851205 0.978580 0.834745 0.136096
C56   C     C_R   0.937028 0.893926 0.794095 -0.102260
H31   H     H_    0.867806 0.825145 0.738457 0.168486
C57   C     C_R   0.035134 0.896663 0.806333 0.085125
C58   C     C_R   0.122237 0.983563 0.881471 0.097813
C59   C     C_3   0.224781 0.046170 0.885955 -0.570309
C60   C     C_3   0.216626 0.145232 0.941384 0.220022
H32   H     H_    0.288214 0.033723 0.927364 0.168619
H33   H     H_    0.221459 0.036342 0.817120 0.232702
H34   H     H_    0.278487 0.192679 0.013197 0.054659
N17   N     N_R   0.815288 0.682719 0.854382 0.216908
O1    O     O_R   0.782581 0.751609 0.843019 -0.423876
O2    O     O_R   0.757544 0.581838 0.798868 -0.433583
O3    O     O_3   0.396189 0.565615 0.876953 -0.629661
C61   C     C_3   0.397420 0.465042 0.852390 -0.038576
H35   H     H_    0.441552 0.455789 0.911616 0.139151
H36   H     H_    0.428043 0.448910 0.799319 0.144875
H37   H     H_    0.315792 0.403174 0.820405 0.194157
N18   N     N_R   0.247522 0.461462 0.553960 0.238999
O4    O     O_R   0.329305 0.538883 0.626795 -0.360407
O5    O     O_R   0.260723 0.401710 0.486789 -0.405655
N19   N     N_R   0.209845 0.819828 0.443864 0.247288
O6    O     O_R   0.112550 0.781760 0.387725 -0.392390
O7    O     O_R   0.235677 0.770856 0.491274 -0.365825
N20   N     N_R   0.205512 0.208739 0.891836 0.254043
O8    O     O_R   0.130472 0.167021 0.810127 -0.382852
O9    O     O_R   0.276603 0.305655 0.926541 -0.451010
O10   O     O_3   0.263228 0.681725 0.337285 -0.592287
C62   C     C_3   0.331727 0.637242 0.321877 -0.247202
H38   H     H_    0.395029 0.690450 0.312463 0.127156
H39   H     H_    0.289000 0.557006 0.261787 0.109096
H40   H     H_    0.368966 0.627598 0.383258 0.207941

loop_
_geom_bond_atom_site_label_1
_geom_bond_atom_site_label_2
_geom_bond_distance
_ccdc_geom_bond_type
C6    C12   1.383589 A    
N9    Ni1   1.824763 S    
C28   C29   1.408713 A    
C49   C50   1.378305 A    
C47   N19   1.440957 S    
C7    H7    1.078300 S    
C55   C56   1.410572 A    
C53   C60   1.504485 S    
C51   H26   1.081884 S    
N18   O4    1.301595 A    
N12   N13   1.385365 A    
C38   C39   1.414055 A    
N10   Ni2   1.855174 S    
C31   H17   1.111809 S    
N19   O6    1.301327 A    
C45   H27   1.084719 S    
C7    N7    1.338289 A    
C16   H11   1.080678 S    
C15   H10   1.080133 S    
C33   C40   1.404948 A    
C25   C30   1.377441 A    
N7    Ni4   1.863864 S    
N18   O5    1.301448 A    
C17   N17   1.431340 S    
C56   H31   1.081629 S    
C22   C29   1.458518 S    
C43   C50   1.394575 A    
C48   C52   1.411154 A    
C10   C34   1.470071 S    
C3    C11   1.386155 A    
C57   C58   1.391197 A    
C3    N3    1.345105 A    
C1    H1    1.078426 S    
C21   C44   1.470170 S    
C27   C28   1.400241 A    
C7    C10   1.391738 A    
C59   C60   1.523467 S    
N11   Ni3   1.863861 S    
N10   N16   1.364376 A    
C32   O3    1.429906 S    
O3    C61   1.415257 S    
C60   N20   1.464368 S    
C51   C52   1.397384 A    
O10   C62   1.410588 S    
N17   O2    1.300912 A    
C8    C9    1.397918 A    
C43   C51   1.401661 A    
C15   C23   1.382932 A    
C14   N10   1.331893 A    
C14   C22   1.377808 A    
N13   Ni2   1.823720 S    
C16   C24   1.386040 A    
C19   N15   1.336566 A    
C35   N18   1.439468 S    
C25   C26   1.399019 A    
C5    H5    1.079622 S    
C1    C9    1.396788 A    
C34   C36   1.403460 A    
N1    N8    1.385364 A    
C53   C54   1.406608 A    
C18   N14   1.336579 A    
C41   H21   1.080573 S    
C18   C23   1.385031 A    
C55   H30   1.080556 S    
C36   H23   1.080678 S    
N6    Ni1   1.855172 S    
C12   C26   1.454344 S    
N16   Ni3   1.825227 S    
C17   C24   1.386164 A    
C35   C36   1.398870 A    
C31   C32   1.519397 S    
N9    N15   1.364495 A    
C3    H3    1.080932 S    
C37   C38   1.387679 A    
C2    N2    1.334711 A    
C47   C48   1.414218 A    
N1    Ni1   1.823721 S    
C39   C40   1.396925 A    
C6    H6    1.080026 S    
C13   O10   1.380675 S    
C13   C21   1.391432 A    
C50   H25   1.080646 S    
N8    Ni3   1.824305 S    
C19   H13   1.073856 S    
N2    N7    1.385361 A    
C26   C27   1.407232 A    
C1    N1    1.344514 A    
C46   H29   1.079556 S    
C13   N9    1.339828 A    
C25   C32   1.506420 S    
C62   H40   1.109251 S    
C14   H9    1.068055 S    
C44   C47   1.418689 A    
C38   C42   1.398275 A    
N5    Ni2   1.824764 S    
C11   C43   1.464279 S    
C59   H33   1.112566 S    
C61   H36   1.109796 S    
C4    N4    1.324870 A    
N15   Ni4   1.863800 S    
N14   Ni1   1.855242 S    
C6    N6    1.339793 A    
C17   N13   1.347462 A    
C44   C46   1.402632 A    
C5    N5    1.324090 A    
C62   H38   1.114401 S    
C34   C37   1.399163 A    
C8    N8    1.343795 A    
N11   N14   1.385361 A    
N3    Ni3   1.863803 S    
C18   H12   1.074460 S    
C37   H24   1.080966 S    
C42   H22   1.084112 S    
N20   O8    1.302313 A    
C61   H37   1.108809 S    
C4    C12   1.371601 A    
C20   C22   1.386581 A    
C20   H14   1.078655 S    
N19   O7    1.301298 A    
C9    C54   1.487783 S    
C41   C42   1.387581 A    
C40   H20   1.076778 S    
C2    C10   1.393221 A    
C61   H35   1.109633 S    
C31   H18   1.106895 S    
N3    N5    1.364496 A    
C33   C41   1.403655 A    
C58   C59   1.486891 S    
C56   C57   1.401156 A    
C32   H19   1.111792 S    
C52   H28   1.077616 S    
C20   N16   1.338474 A    
C48   C49   1.415679 A    
C30   C31   1.506599 S    
C60   H34   1.112719 S    
C15   N11   1.338067 A    
C23   C33   1.471907 S    
C45   C49   1.390201 A    
C27   H15   1.081261 S    
C59   H32   1.111440 S    
C4    H4    1.079890 S    
C28   H16   1.081697 S    
N12   Ni4   1.824305 S    
C2    H2    1.077282 S    
C19   C21   1.388661 A    
C16   N12   1.346698 A    
C29   C30   1.402863 A    
C35   C39   1.414517 A    
N4    N6    1.364377 A    
C54   C55   1.415646 A    
C62   H39   1.111241 S    
C8    H8    1.078741 S    
C5    C11   1.377345 A    
C53   C58   1.390858 A    
N2    Ni2   1.855239 S    
C45   C46   1.373358 A    
N4    Ni4   1.825228 S    
N17   O1    1.300333 A    
N20   O9    1.299049 A    
