data_mof_unit_22109.cif
_audit_creation_date              2013-03-05T15:54:36-0500
_audit_creation_method            fapswitch 2.2
_symmetry_space_group_name_H-M    P1
_symmetry_Int_Tables_number       1
_space_group_crystal_system       triclinic
_cell_length_a                    17.438218
_cell_length_b                    24.427905
_cell_length_c                    14.962342
_cell_angle_alpha                 89.857347
_cell_angle_beta                  125.565789
_cell_angle_gamma                 90.453031
_cell_volume                      5184.45092853

loop_
_atom_site_label
_atom_site_type_symbol
_atom_site_description
_atom_site_fract_x
_atom_site_fract_y
_atom_site_fract_z
_atom_type_partial_charge
C1    C     C_R   0.822550 0.638048 0.904794 -0.136971
C2    C     C_R   0.191086 0.624385 0.094843 -0.140148
C3    C     C_R   0.315976 0.132078 0.906304 -0.138442
C4    C     C_R   0.689783 0.126723 0.096431 -0.139545
H1    H     H_    0.772309 0.648715 0.820330 0.099251
H2    H     H_    0.249608 0.627225 0.179874 0.109429
H3    H     H_    0.263483 0.141743 0.822337 0.103584
H4    H     H_    0.748152 0.129357 0.181671 0.107819
N1    N     N_R   0.892620 0.603790 0.941770 -0.041210
N2    N     N_R   0.107380 0.603790 0.058230 -0.043599
N3    N     N_R   0.392620 0.103790 0.941770 -0.042786
N4    N     N_R   0.607380 0.103790 0.058230 -0.043208
C5    C     C_R   0.944941 0.349758 0.094000 -0.194725
C6    C     C_R   0.056088 0.350264 0.905829 -0.182381
C7    C     C_R   0.443183 0.850103 0.094036 -0.175646
C8    C     C_R   0.554034 0.850061 0.905489 -0.197813
H5    H     H_    0.993101 0.336464 0.178007 0.176814
H6    H     H_    0.008310 0.336758 0.821681 0.169855
H7    H     H_    0.490146 0.837098 0.178435 0.171070
H8    H     H_    0.505531 0.836449 0.821505 0.176232
N5    N     N_R   0.952270 0.397640 0.058010 -0.063812
N6    N     N_R   0.047730 0.397640 0.941990 -0.062725
N7    N     N_R   0.452270 0.897640 0.058010 -0.064480
N8    N     N_R   0.547730 0.897640 0.941990 -0.063120
C9    C     C_R   0.989921 0.546105 0.258560 -0.142042
C10   C     C_R   0.948819 0.546344 0.695739 -0.166252
C11   C     C_R   0.552123 0.046608 0.304327 -0.160354
C12   C     C_R   0.504691 0.046397 0.735530 -0.145474
H9    H     H_    0.984623 0.587848 0.274018 0.104323
H10   H     H_    0.926161 0.587685 0.667389 0.110385
H11   H     H_    0.575417 0.088097 0.332241 0.108357
H12   H     H_    0.504201 0.088055 0.714258 0.104111
N9    N     N_R   0.026310 0.529110 0.206760 -0.043852
N10   N     N_R   0.973690 0.529110 0.793240 -0.045384
N11   N     N_R   0.526310 0.029110 0.206760 -0.043293
N12   N     N_R   0.473690 0.029110 0.793240 -0.045731
C13   C     C_R   0.730640 0.454108 0.742299 -0.093465
C14   C     C_R   0.259854 0.455345 0.299552 -0.098673
C15   C     C_R   0.230474 0.954045 0.738916 -0.088689
C16   C     C_R   0.758837 0.955333 0.300412 -0.105889
H13   H     H_    0.707503 0.412202 0.725220 0.170625
H14   H     H_    0.276872 0.413803 0.328439 0.186109
H15   H     H_    0.207347 0.912164 0.722068 0.171447
H16   H     H_    0.775744 0.913695 0.328847 0.184618
N13   N     N_R   0.818570 0.472310 0.793020 -0.034212
N14   N     N_R   0.181430 0.472310 0.206980 -0.044156
N15   N     N_R   0.318570 0.972310 0.793020 -0.035319
N16   N     N_R   0.681430 0.972310 0.206980 -0.042804
C17   C     C_R   0.987872 0.454572 0.257122 -0.101272
C18   C     C_R   0.951466 0.455236 0.695844 -0.090576
C19   C     C_R   0.549463 0.955500 0.304795 -0.104888
C20   C     C_R   0.510108 0.954916 0.740919 -0.088202
H17   H     H_    0.977833 0.412119 0.268345 0.096612
H18   H     H_    0.935038 0.413162 0.668421 0.114190
H19   H     H_    0.566165 0.913595 0.332627 0.109729
H20   H     H_    0.520579 0.912560 0.730569 0.095523
N17   N     N_R   0.026930 0.472300 0.207330 -0.035677
N18   N     N_R   0.973070 0.472300 0.792670 -0.037519
N19   N     N_R   0.526930 0.972300 0.207330 -0.038374
N20   N     N_R   0.473070 0.972300 0.792670 -0.032816
C21   C     C_R   0.729054 0.545624 0.735089 -0.134935
C22   C     C_R   0.259279 0.546657 0.301146 -0.139889
C23   C     C_R   0.229070 0.045474 0.728963 -0.138706
C24   C     C_R   0.758338 0.046647 0.301870 -0.136923
H21   H     H_    0.703728 0.586195 0.704264 0.095962
H22   H     H_    0.273258 0.588367 0.331037 0.093887
H23   H     H_    0.204492 0.085696 0.694695 0.096182
H24   H     H_    0.772169 0.088400 0.331468 0.090354
N21   N     N_R   0.817960 0.529130 0.792460 -0.043595
N22   N     N_R   0.182040 0.529130 0.207540 -0.043889
N23   N     N_R   0.317960 0.029130 0.792460 -0.044336
N24   N     N_R   0.682040 0.029130 0.207540 -0.042199
C25   C     C_R   0.851936 0.348415 0.911949 0.336216
C26   C     C_R   0.150430 0.349786 0.088212 0.356460
C27   C     C_R   0.351163 0.848622 0.911766 0.333321
C28   C     C_R   0.649538 0.849525 0.087672 0.359728
N25   N     N_R   0.894850 0.397640 0.943830 -0.090608
N26   N     N_R   0.105150 0.397640 0.056170 -0.093998
N27   N     N_R   0.394850 0.897640 0.943830 -0.091328
N28   N     N_R   0.605150 0.897640 0.056170 -0.093956
C29   C     C_R   0.912548 0.639474 0.088177 -0.136029
C30   C     C_R   0.100074 0.626397 0.910809 -0.119302
C31   C     C_R   0.403956 0.129783 0.090234 -0.122471
C32   C     C_R   0.596992 0.132996 0.913487 -0.125582
H25   H     H_    0.944083 0.654394 0.170337 0.100142
H26   H     H_    0.074790 0.632534 0.826271 0.104367
H27   H     H_    0.429665 0.135451 0.175035 0.103081
H28   H     H_    0.569149 0.148151 0.832581 0.099642
N29   N     N_R   0.950040 0.603780 0.055950 -0.041606
N30   N     N_R   0.049960 0.603780 0.944050 -0.044746
N31   N     N_R   0.450040 0.103780 0.055950 -0.044297
N32   N     N_R   0.549960 0.103780 0.944050 -0.043266
C33   C     C_R   0.829016 0.657617 0.994405 0.078192
C34   C     C_R   0.189325 0.639555 0.005146 0.073566
C35   C     C_R   0.318319 0.147037 0.996314 0.075946
C36   C     C_R   0.686405 0.144684 0.007581 0.075471
C37   C     C_R   0.883312 0.317195 0.005087 -0.081975
C38   C     C_R   0.119106 0.318478 0.995369 -0.091553
C39   C     C_R   0.381412 0.817403 0.004626 -0.086823
C40   C     C_R   0.616978 0.818489 0.994205 -0.087692
C41   C     C_R   0.961982 0.500610 0.288088 0.055419
C42   C     C_R   0.934551 0.501116 0.632532 0.058066
C43   C     C_R   0.567032 0.001573 0.368043 0.065876
C44   C     C_R   0.533386 0.001215 0.706893 0.051731
C45   C     C_R   0.674643 0.499375 0.707807 0.002064
C46   C     C_R   0.308576 0.501176 0.357852 0.005469
C47   C     C_R   0.174623 0.999306 0.701206 0.002395
C48   C     C_R   0.806761 0.001161 0.359277 0.007765
Ni1   Ni    Ni4+2 0.934160 0.565860 0.869070 0.208238
Ni2   Ni    Ni4+2 0.065840 0.565860 0.130930 0.210955
Ni3   Ni    Ni4+2 0.434160 0.065860 0.869070 0.213349
Ni4   Ni    Ni4+2 0.565840 0.065860 0.130930 0.205990
Ni5   Ni    Ni4+2 0.067260 0.435560 0.132230 0.265359
Ni6   Ni    Ni4+2 0.932740 0.435560 0.867770 0.272340
Ni7   Ni    Ni4+2 0.567260 0.935560 0.132230 0.259086
Ni8   Ni    Ni4+2 0.432740 0.935560 0.867770 0.279573
C49   C     C_3   0.512155 0.447547 0.574988 -0.142877
C50   C     C_3   0.477692 0.469481 0.460871 -0.128035
C51   C     C_3   0.012458 0.947361 0.570498 -0.143422
C52   C     C_3   0.974992 0.970435 0.456268 -0.126566
C53   C     C_3   0.433588 0.479224 0.570807 -0.148631
C54   C     C_3   0.541485 0.520192 0.512026 -0.148004
C55   C     C_3   0.935326 0.978097 0.570795 -0.150794
C56   C     C_3   0.038561 0.021240 0.507123 -0.148347
H29   H     H_    0.385963 0.462750 0.591137 0.126744
H30   H     H_    0.587727 0.536740 0.489643 0.121370
H31   H     H_    0.889438 0.960839 0.593037 0.126369
H32   H     H_    0.082993 0.038619 0.482845 0.121890
H33   H     H_    0.533569 0.404837 0.604070 0.149839
H34   H     H_    0.466790 0.444841 0.391997 0.139241
H35   H     H_    0.034688 0.904519 0.597743 0.151013
H36   H     H_    0.962287 0.946572 0.385649 0.138777
C57   C     C_3   0.401100 0.501150 0.458189 0.175904
C58   C     C_3   0.575176 0.498420 0.625278 0.172565
C59   C     C_3   0.899796 0.001176 0.458019 0.175631
C60   C     C_3   0.075222 0.998323 0.620396 0.173385
C61   C     C_3   0.464193 0.551958 0.508793 -0.162860
C62   C     C_3   0.499202 0.530171 0.623633 -0.149202
C63   C     C_3   0.962682 0.052068 0.508360 -0.164027
C64   C     C_3   0.000762 0.029113 0.623351 -0.148140
H37   H     H_    0.443251 0.594769 0.480168 0.109328
H38   H     H_    0.511513 0.554696 0.693303 0.119751
H39   H     H_    0.940890 0.095010 0.481590 0.108812
H40   H     H_    0.015090 0.052849 0.694840 0.119387
C65   C     C_R   0.881462 0.243218 0.114788 0.176177
C66   C     C_R   0.121838 0.244063 0.888150 0.167107
C67   C     C_R   0.380499 0.741731 0.112520 0.169669
C68   C     C_R   0.626469 0.748745 0.885239 0.171134
C69   C     C_R   0.866646 0.259904 0.016395 0.047429
C70   C     C_R   0.137595 0.261522 0.986326 0.045923
C71   C     C_R   0.364698 0.759615 0.014431 0.048684
C72   C     C_R   0.637610 0.762928 0.982714 0.044193
C73   C     C_R   0.822546 0.222678 0.927894 -0.130373
C74   C     C_R   0.184538 0.225769 0.076918 -0.129851
C75   C     C_R   0.321854 0.722459 0.925576 -0.126391
C76   C     C_R   0.686272 0.726959 0.072377 -0.133493
H41   H     H_    0.821841 0.229230 0.856116 0.179847
H42   H     H_    0.187351 0.233092 0.149815 0.184606
H43   H     H_    0.320633 0.729911 0.853717 0.181197
H44   H     H_    0.686183 0.731894 0.143982 0.181059
C77   C     C_R   0.269756 0.677979 0.924293 -0.206644
C78   C     C_R   0.746989 0.688877 0.075539 -0.199796
C79   C     C_R   0.767845 0.179965 0.926569 -0.206655
C80   C     C_R   0.239227 0.183570 0.078646 -0.204705
H45   H     H_    0.225825 0.654100 0.849800 0.139143
H46   H     H_    0.793336 0.665475 0.149730 0.134051
H47   H     H_    0.722921 0.156013 0.852356 0.135978
H48   H     H_    0.284977 0.160623 0.153619 0.139089
C81   C     C_R   0.266311 0.669482 0.014770 0.031607
C82   C     C_R   0.753833 0.686165 0.986705 0.038352
C83   C     C_R   0.763451 0.173485 0.016770 0.033016
C84   C     C_R   0.242427 0.176430 0.987807 0.034155
C85   C     C_R   0.332300 0.697150 0.112977 0.139567
C86   C     C_R   0.684043 0.710392 0.887344 0.133220
C87   C     C_R   0.830836 0.200146 0.115159 0.139692
C88   C     C_R   0.173683 0.202005 0.888755 0.135083
C89   C     C_3   0.322124 0.723250 0.196297 -0.510036
C90   C     C_3   0.692094 0.740687 0.806052 -0.507591
C91   C     C_3   0.821140 0.227263 0.197832 -0.507941
C92   C     C_3   0.180568 0.229458 0.803741 -0.513168
C93   C     C_3   0.876532 0.274703 0.197245 -0.507333
C94   C     C_3   0.123592 0.275465 0.803229 -0.492320
C95   C     C_3   0.375212 0.771972 0.195640 -0.493088
C96   C     C_3   0.629372 0.783373 0.804013 -0.505828
H49   H     H_    0.362095 0.701186 0.276102 0.187668
H50   H     H_    0.657636 0.718447 0.726606 0.188260
H51   H     H_    0.859845 0.205181 0.277598 0.187747
H52   H     H_    0.141942 0.206547 0.724665 0.188606
H53   H     H_    0.247851 0.732923 0.163309 0.208265
H54   H     H_    0.764814 0.755881 0.841617 0.206194
H55   H     H_    0.747133 0.238045 0.164219 0.207031
H56   H     H_    0.253717 0.242207 0.835662 0.207278
H57   H     H_    0.946863 0.279883 0.276731 0.196303
H58   H     H_    0.052479 0.278682 0.724289 0.192958
H59   H     H_    0.445647 0.777628 0.274782 0.194374
H60   H     H_    0.559441 0.785826 0.723329 0.194264
H61   H     H_    0.834244 0.312732 0.163255 0.202900
H62   H     H_    0.164141 0.314545 0.834727 0.207183
H63   H     H_    0.331371 0.809461 0.162159 0.206432
H64   H     H_    0.666240 0.823327 0.838228 0.203794
C97   C     C_R   0.895764 0.551698 0.467796 0.152981
C98   C     C_R   0.905064 0.551628 0.382513 0.146927
C99   C     C_R   0.593471 0.052564 0.615233 0.146326
C100  C     C_R   0.605526 0.052735 0.532120 0.152176
C101  C     C_R   0.898225 0.502335 0.516921 0.035373
C102  C     C_R   0.915483 0.502124 0.343421 0.039102
C103  C     C_R   0.580785 0.003005 0.652663 0.041253
C104  C     C_R   0.603448 0.003303 0.483596 0.032569
C105  C     C_R   0.882131 0.453440 0.458569 -0.191763
C106  C     C_R   0.890650 0.453368 0.371266 -0.196360
C107  C     C_R   0.606835 0.954420 0.626773 -0.193976
C108  C     C_R   0.618208 0.954556 0.541727 -0.200583
H65   H     H_    0.875477 0.414493 0.488037 0.135180
H66   H     H_    0.889503 0.414445 0.336188 0.129431
H67   H     H_    0.606957 0.915487 0.661415 0.129133
H68   H     H_    0.625447 0.915655 0.513120 0.133718
C109  C     C_3   0.963828 0.602943 0.423659 -0.501241
C110  C     C_3   0.953014 0.603114 0.516231 -0.492950
C111  C     C_3   0.549813 0.104187 0.483333 -0.493921
C112  C     C_3   0.536178 0.103819 0.573669 -0.500958
H69   H     H_    0.927951 0.637939 0.366448 0.199492
H70   H     H_    0.021404 0.597047 0.597474 0.198173
H71   H     H_    0.482074 0.098277 0.401122 0.198198
H72   H     H_    0.572038 0.138718 0.631793 0.201025
H73   H     H_    0.038335 0.596444 0.453816 0.201009
H74   H     H_    0.910305 0.637941 0.511893 0.202527
H75   H     H_    0.594043 0.139098 0.489663 0.203168
H76   H     H_    0.460890 0.097235 0.540839 0.201011
N33   N     N_R   0.801760 0.328461 0.801637 0.199943
O1    O     O_R   0.828427 0.343118 0.739960 -0.462172
O2    O     O_R   0.718549 0.306581 0.755781 -0.441381
N34   N     N_R   0.204134 0.330847 0.198940 0.199640
O3    O     O_R   0.169008 0.332416 0.255319 -0.469419
O4    O     O_R   0.291418 0.316455 0.246786 -0.429406
N35   N     N_R   0.300579 0.828763 0.801364 0.199137
O5    O     O_R   0.327541 0.842872 0.739718 -0.452720
O6    O     O_R   0.217052 0.807337 0.755539 -0.438925
N36   N     N_R   0.702577 0.830099 0.198064 0.200984
O7    O     O_R   0.667297 0.832080 0.254254 -0.476076
O8    O     O_R   0.789762 0.815425 0.246201 -0.430793

loop_
_geom_bond_atom_site_label_1
_geom_bond_atom_site_label_2
_geom_bond_distance
_ccdc_geom_bond_type
C53   C62   1.553405 S    
C107  H67   1.081408 S    
C99   C100  1.376497 A    
N24   Ni4   1.883248 S    
N3    N31   1.389718 A    
C57   C61   1.529125 S    
C30   C34   1.398854 A    
C97   C98   1.376709 A    
C6    H6    1.079664 S    
C56   C63   1.537067 S    
C31   H27   1.080847 S    
C94   H62   1.112374 S    
C3    N3    1.316490 A    
C98   C102  1.402903 A    
C4    H4    1.075199 S    
C93   H61   1.112485 S    
C25   N33   1.429934 S    
C17   N17   1.338091 A    
C26   C38   1.388887 A    
C28   N28   1.337900 A    
C40   C72   1.442904 S    
C25   C37   1.391867 A    
C112  H76   1.112510 S    
C18   H18   1.080507 S    
C27   N27   1.344478 A    
C99   C112  1.498558 S    
C73   C79   1.400459 A    
C1    H1    1.070786 S    
C24   H24   1.081066 S    
C98   C109  1.500022 S    
C74   C80   1.399819 A    
C97   C110  1.497482 S    
C74   H42   1.078263 S    
C3    H3    1.065930 S    
C34   C81   1.455202 S    
C32   C36   1.391433 A    
C90   H54   1.112468 S    
N10   N18   1.387715 A    
C12   C44   1.382984 A    
N9    Ni2   1.861009 S    
C91   H51   1.111950 S    
C19   C43   1.385164 A    
C65   C93   1.500075 S    
C89   H49   1.112067 S    
C22   N22   1.326080 A    
C9    H9    1.062696 S    
C28   N36   1.426450 S    
C50   C54   1.533070 S    
C44   C103  1.457032 S    
C97   C101  1.398516 A    
C103  C107  1.407309 A    
N19   Ni7   1.870031 S    
C49   C53   1.548085 S    
C54   C58   1.530285 S    
C65   C69   1.398733 A    
C69   C73   1.407875 A    
N22   Ni2   1.883248 S    
C20   N20   1.335968 A    
N8    N28   1.389715 A    
C53   H29   1.110032 S    
C4    C36   1.367369 A    
N21   Ni1   1.870660 S    
N13   Ni6   1.858374 S    
C10   N10   1.325657 A    
C46   C57   1.428057 S    
C90   C96   1.504521 S    
C72   C76   1.404819 A    
C106  H66   1.081608 S    
C96   H64   1.112500 S    
C36   C83   1.445567 S    
C66   C88   1.370433 A    
C51   H35   1.110045 S    
N35   O5    1.300355 A    
C6    C38   1.378799 A    
C94   H58   1.111884 S    
C71   C75   1.410438 A    
C4    N4    1.318639 A    
C49   H33   1.110036 S    
C35   C84   1.449767 S    
C86   C90   1.496432 S    
C26   N26   1.338389 A    
C60   C64   1.528402 S    
C16   C48   1.364276 A    
C77   C81   1.404391 A    
C7    N7    1.325691 A    
C76   C78   1.394900 A    
C8    N8    1.317655 A    
C66   C70   1.395311 A    
N27   Ni8   1.857288 S    
C13   H13   1.072767 S    
N35   O6    1.301396 A    
C111  H71   1.112279 S    
C92   H52   1.112236 S    
C101  C105  1.407992 A    
C2    H2    1.074182 S    
C63   H39   1.110110 S    
N16   N24   1.387957 A    
C49   C58   1.529508 S    
N34   O4    1.300948 A    
C104  C108  1.407123 A    
C92   C94   1.502999 S    
C29   H25   1.076626 S    
C110  H70   1.112381 S    
C23   H23   1.077270 S    
N1    Ni1   1.870480 S    
N15   Ni8   1.858374 S    
C53   C57   1.528708 S    
N11   N19   1.387843 A    
N36   O8    1.300855 A    
C33   C82   1.434170 S    
N4    Ni4   1.862104 S    
C89   H53   1.112455 S    
C66   C94   1.497933 S    
C100  C111  1.498736 S    
C75   H43   1.078000 S    
C18   N18   1.334226 A    
C65   C87   1.370210 A    
C12   H12   1.064087 S    
C1    N1    1.314107 A    
C43   C104  1.455018 S    
N6    N26   1.389715 A    
C48   C59   1.423570 S    
N5    Ni5   1.870170 S    
C62   H38   1.110151 S    
N2    N30   1.389715 A    
N1    N29   1.389718 A    
C111  C112  1.502419 S    
C22   H22   1.081242 S    
C8    C40   1.369304 A    
C56   C60   1.528083 S    
N17   Ni5   1.870030 S    
C79   C83   1.404086 A    
C67   C95   1.496654 S    
C11   N11   1.323669 A    
C109  C110  1.502657 S    
C89   C95   1.505583 S    
N13   N21   1.388083 A    
N29   Ni2   1.893003 S    
C75   C77   1.403744 A    
C68   C86   1.365542 A    
C55   C59   1.527607 S    
C108  H68   1.081167 S    
C32   H28   1.074756 S    
N31   Ni4   1.893003 S    
C54   H30   1.110930 S    
C7    H7    1.079519 S    
C13   C45   1.367716 A    
N33   O1    1.300383 A    
C50   H34   1.110747 S    
C21   H21   1.075968 S    
C18   C42   1.383955 A    
C29   C33   1.384371 A    
C102  C106  1.406718 A    
C88   C92   1.501439 S    
C95   H59   1.111812 S    
C107  C108  1.397172 A    
C78   C82   1.403709 A    
N28   Ni7   1.865309 S    
C2    C34   1.374486 A    
C79   H47   1.083104 S    
C8    H8    1.079940 S    
C31   C35   1.395821 A    
C14   C46   1.365233 A    
N12   Ni3   1.868973 S    
C27   C39   1.392409 A    
C105  C106  1.397900 A    
C5    N5    1.322483 A    
C5    C37   1.373363 A    
C51   C52   1.538769 S    
C27   N35   1.429791 S    
N15   N23   1.388083 A    
C50   C57   1.528991 S    
N16   Ni7   1.845813 S    
C100  C104  1.399864 A    
C80   H48   1.082567 S    
C26   N34   1.426198 S    
C23   N23   1.326472 A    
N8    Ni8   1.883093 S    
C51   C55   1.547835 S    
C11   H11   1.079277 S    
C92   H56   1.112628 S    
N20   Ni8   1.861989 S    
N26   Ni5   1.865309 S    
C19   N19   1.335096 A    
C23   C47   1.368425 A    
N25   Ni6   1.857288 S    
C2    N2    1.320394 A    
C55   H31   1.110200 S    
C112  H72   1.112116 S    
N14   N22   1.387957 A    
C93   H57   1.111825 S    
C15   N15   1.326169 A    
C17   C41   1.391841 A    
C38   C70   1.454929 S    
C21   N21   1.327724 A    
C16   N16   1.326346 A    
C61   H37   1.110096 S    
N36   O7    1.300003 A    
C20   C44   1.390433 A    
C37   C69   1.456466 S    
N14   Ni5   1.845813 S    
C52   H36   1.110877 S    
N4    N32   1.389715 A    
C39   C71   1.463352 S    
C68   C72   1.398818 A    
C54   C61   1.536775 S    
C7    C39   1.379660 A    
N12   N20   1.387715 A    
C109  H69   1.112121 S    
C58   C62   1.528269 S    
C87   C91   1.498877 S    
C63   C64   1.545206 S    
C67   C85   1.372818 A    
N32   Ni3   1.880067 S    
C10   H10   1.079403 S    
C22   C46   1.362034 A    
C82   C86   1.394223 A    
N9    N17   1.387846 A    
C28   C40   1.388416 A    
C31   N31   1.342255 A    
C61   C62   1.545556 S    
C59   C63   1.528948 S    
N6    Ni6   1.883093 S    
C51   C60   1.528924 S    
C30   N30   1.346445 A    
C56   H32   1.110847 S    
C105  H65   1.081069 S    
C52   C59   1.529600 S    
N23   Ni3   1.870660 S    
C6    N6    1.323190 A    
C64   H40   1.110255 S    
C29   N29   1.340904 A    
N33   O2    1.301303 A    
C96   H60   1.111902 S    
C49   C50   1.539638 S    
C10   C42   1.379897 A    
C30   H26   1.080809 S    
C68   C96   1.503630 S    
C111  H75   1.111848 S    
C9    C41   1.380950 A    
C83   C87   1.397309 A    
C17   H17   1.079225 S    
C67   C71   1.396072 A    
C55   C64   1.553085 S    
C11   C43   1.377549 A    
N34   O3    1.299951 A    
C21   C45   1.370408 A    
C52   C56   1.532892 S    
N2    Ni2   1.862104 S    
C19   H19   1.080549 S    
C24   N24   1.324726 A    
C73   H41   1.078432 S    
C76   H44   1.079341 S    
C15   C47   1.365271 A    
C42   C101  1.455946 S    
C95   H63   1.112361 S    
C14   N14   1.327816 A    
C80   C84   1.403728 A    
C41   C102  1.458023 S    
N7    Ni7   1.870170 S    
C5    H5    1.079340 S    
C90   H50   1.111920 S    
C14   H14   1.076133 S    
C84   C88   1.401550 A    
N10   Ni1   1.868973 S    
C16   H16   1.076644 S    
C78   H46   1.082942 S    
C91   H55   1.112436 S    
C12   N12   1.324286 A    
C25   N25   1.344200 A    
C1    C33   1.365808 A    
C9    N9    1.324246 A    
C70   C74   1.408835 A    
C15   H15   1.072082 S    
N5    N25   1.389716 A    
N18   Ni6   1.861989 S    
N3    Ni3   1.870480 S    
C81   C85   1.402084 A    
C3    C35   1.373747 A    
C99   C103  1.401682 A    
C32   N32   1.347794 A    
N30   Ni1   1.880067 S    
N7    N27   1.389716 A    
C85   C89   1.501741 S    
C13   N13   1.327417 A    
C110  H74   1.111831 S    
C77   H45   1.082743 S    
N11   Ni4   1.861009 S    
C20   H20   1.079144 S    
C24   C48   1.360793 A    
C109  H73   1.112580 S    
C45   C58   1.428941 S    
C91   C93   1.506042 S    
C47   C60   1.424281 S    
