data_mof_unit_22302.cif
_audit_creation_date              2012-12-11T14:01:33-0500
_audit_creation_method            fapswitch 2.2
_symmetry_space_group_name_H-M    P1
_symmetry_Int_Tables_number       1
_space_group_crystal_system       triclinic
_cell_length_a                    19.072636
_cell_length_b                    10.956093
_cell_length_c                    18.65985
_cell_angle_alpha                 89.82988
_cell_angle_beta                  89.880081
_cell_angle_gamma                 89.857073
_cell_volume                      3899.15382307

loop_
_atom_site_label
_atom_site_type_symbol
_atom_type_description
_atom_site_fract_x
_atom_site_fract_y
_atom_site_fract_z
_atom_type_partial_charge
C1    C     C_R   0.271186 0.046356 0.851349 0.556928
C2    C     C_R   0.030380 0.655913 0.965670 -0.129866
C3    C     C_R   0.472572 0.156904 0.030793 -0.122663
C4    C     C_R   0.502513 0.164083 0.962953 -0.128726
C5    C     C_2   0.252164 0.589076 0.923999 -0.122841
C6    C     C_2   0.749827 0.584409 0.077758 -0.118940
C7    C     C_2   0.750315 0.083563 0.922229 -0.118704
C8    C     C_2   0.233436 0.150749 0.065944 -0.122459
C9    C     C_2   0.252875 0.593789 0.079842 -0.110046
C10   C     C_2   0.748083 0.590033 0.921448 -0.110033
C11   C     C_2   0.751776 0.090339 0.078406 -0.109358
C12   C     C_R   0.727953 0.043539 0.147029 0.566753
C13   C     C_2   0.242767 0.111643 0.912602 -0.115590
C14   C     C_2   0.299462 0.531142 0.040309 -0.170659
C15   C     C_2   0.703352 0.524368 0.961571 -0.166463
C16   C     C_2   0.797024 0.024904 0.038753 -0.166841
C17   C     C_2   0.191103 0.065526 0.953151 -0.166761
C18   C     C_2   0.307488 0.555466 0.963792 -0.164235
C19   C     C_2   0.695229 0.547858 0.038110 -0.160721
C20   C     C_2   0.805097 0.047883 0.962121 -0.161287
C21   C     C_2   0.179668 0.108633 0.026847 -0.166690
C22   C     C_2   0.519344 0.838321 0.588353 -0.113759
C23   C     C_R   0.772029 0.543300 0.852948 0.554961
C24   C     C_2   0.544389 0.827294 0.434668 -0.106523
C25   C     C_2   0.019316 0.338312 0.588331 -0.113018
C26   C     C_2   0.044366 0.327295 0.434656 -0.106729
C27   C     C_2   0.570327 0.745326 0.480963 -0.162843
C28   C     C_2   0.546230 0.740337 0.555360 -0.149680
C29   C     C_2   0.070299 0.245318 0.480947 -0.162858
C30   C     C_2   0.046199 0.240325 0.555340 -0.149729
C31   C     C_2   0.241873 0.557001 0.587251 -0.107010
C32   C     C_2   0.753768 0.563966 0.416433 -0.105666
C33   C     C_2   0.741866 0.056971 0.587268 -0.107618
C34   C     C_R   0.228164 0.544170 0.147391 0.562190
C35   C     C_2   0.253748 0.064035 0.416463 -0.104933
C36   C     C_2   0.221698 0.517772 0.434778 -0.095907
C37   C     C_2   0.762416 0.570081 0.571898 -0.089344
C38   C     C_2   0.721699 0.017783 0.434787 -0.095692
C39   C     C_2   0.262395 0.070145 0.571925 -0.089156
C40   C     C_R   0.472017 0.821936 0.852687 0.544678
C41   C     C_R   0.529883 0.821637 0.145504 0.550353
C42   C     C_R   0.969215 0.321125 0.854769 0.543995
C43   C     C_R   0.028426 0.322304 0.146972 0.545403
C44   C     C_2   0.168382 0.536535 0.479928 -0.167116
C45   C     C_R   0.467329 0.044856 0.066924 0.036268
C46   C     C_2   0.817809 0.556778 0.527699 -0.145118
C47   C     C_2   0.668380 0.036524 0.479940 -0.166813
C48   C     C_2   0.317786 0.056865 0.527725 -0.145247
C49   C     C_2   0.179791 0.571074 0.554458 -0.151403
C50   C     C_2   0.813426 0.581124 0.451700 -0.161193
C51   C     C_2   0.679779 0.071018 0.554483 -0.152167
C52   C     C_2   0.313397 0.081240 0.451737 -0.160738
C53   C     C_R   0.261901 0.639042 0.852675 0.545780
C54   C     C_R   0.738611 0.637824 0.147927 0.547124
C55   C     C_R   0.761387 0.137365 0.852025 0.543723
C56   C     C_R   0.522093 0.058537 0.925516 0.041509
C57   C     C_R   0.226067 0.184845 0.140727 0.567209
C58   C     C_R   0.273836 0.043063 0.646463 0.550246
C59   C     C_R   0.708553 0.996996 0.359854 0.552731
C60   C     C_R   0.773846 0.543036 0.646448 0.550907
C61   C     C_R   0.208550 0.496987 0.359849 0.555468
C62   C     C_R   0.473328 0.824324 0.649913 0.547101
C63   C     C_R   0.562661 0.819203 0.359829 0.550072
C64   C     C_R   0.973318 0.324321 0.649904 0.550286
C65   C     C_R   0.062653 0.319205 0.359826 0.550543
C66   C     C_R   0.259340 0.632801 0.648137 0.555694
C67   C     C_R   0.981304 0.559972 0.072123 0.041856
C68   C     C_R   0.740051 0.633624 0.352366 0.534957
C69   C     C_R   0.759334 0.132785 0.648148 0.553194
C70   C     C_R   0.240043 0.133645 0.352376 0.545942
C71   C     C_R   0.506221 0.826764 0.070689 0.001528
C72   C     C_R   0.508923 0.830985 0.921144 0.002368
C73   C     C_R   0.992232 0.332115 0.078147 -0.000242
C74   C     C_R   0.994113 0.326081 0.928836 0.010881
C75   C     C_R   0.495577 0.938729 0.033785 0.031667
C76   C     C_R   0.510702 0.942867 0.959075 0.036815
C77   C     C_R   0.991740 0.443657 0.039357 0.033379
C78   C     C_R   0.033446 0.543922 0.929506 0.035027
C79   C     C_R   0.006182 0.438218 0.964467 0.032718
C80   C     C_R   0.517580 0.721099 0.958001 -0.162116
C81   C     C_R   0.516078 0.719017 0.031321 -0.155580
C82   C     C_R   0.983763 0.219110 0.968951 -0.159014
C83   C     C_R   0.982483 0.222139 0.042181 -0.168197
C84   C     C_3   0.420944 0.040071 0.133423 -0.270425
C85   C     C_3   0.360473 0.949392 0.125455 -0.417569
C86   C     C_3   0.558314 0.078783 0.853170 -0.255135
C87   C     C_3   0.609649 0.979015 0.828440 -0.417657
C88   C     C_3   0.944233 0.582584 0.143795 -0.253407
C89   C     C_R   0.001971 0.664370 0.034101 -0.128227
C90   C     C_3   0.893003 0.483727 0.169803 -0.410356
C91   C     C_3   0.073714 0.541396 0.858607 -0.267471
C92   C     C_3   0.125672 0.434669 0.851313 -0.429313
Cr1   Cr    Cr6+3 0.230530 0.836340 0.748870 1.008019
Cr2   Cr    Cr6+3 0.614360 0.677860 0.250770 1.013538
Cr3   Cr    Cr6+3 0.885640 0.177860 0.749230 1.016302
Cr4   Cr    Cr6+3 0.114360 0.177860 0.250770 1.007796
Cr5   Cr    Cr6+3 0.769470 0.836340 0.251130 1.002392
Cr6   Cr    Cr6+3 0.730530 0.336340 0.748870 1.003600
Cr7   Cr    Cr6+3 0.269470 0.336340 0.251130 0.999606
Cr8   Cr    Cr6+3 0.387420 0.989430 0.750820 1.002705
Cr9   Cr    Cr6+3 0.612580 0.989430 0.249180 1.010603
Cr10  Cr    Cr6+3 0.887420 0.489430 0.750820 1.007944
Cr11  Cr    Cr6+3 0.112580 0.489430 0.249180 0.996026
Cr12  Cr    Cr6+3 0.385640 0.677860 0.749230 1.015023
H1    H     H_    0.520386 0.634475 0.930203 0.136432
H2    H     H_    0.858186 0.625395 0.426671 0.155222
H3    H     H_    0.637713 0.122532 0.579657 0.151656
H4    H     H_    0.358152 0.125547 0.426721 0.155928
H5    H     H_    0.275904 0.517524 0.452092 0.116264
H6    H     H_    0.709926 0.590896 0.552996 0.082465
H7    H     H_    0.775904 0.017532 0.452101 0.116153
H8    H     H_    0.209903 0.090964 0.553029 0.082368
H9    H     H_    0.282858 0.498879 0.565748 0.102716
H10   H     H_    0.710812 0.512680 0.440133 0.107499
H11   H     H_    0.782859 0.998878 0.565755 0.103288
H12   H     H_    0.523667 0.631226 0.057016 0.138388
H13   H     H_    0.210797 0.012732 0.440159 0.106585
H14   H     H_    0.997086 0.753876 0.058204 0.099094
H15   H     H_    0.049272 0.738665 0.940318 0.101604
H16   H     H_    0.452988 0.240041 0.055029 0.099432
H17   H     H_    0.508357 0.253239 0.938379 0.095828
H18   H     H_    0.329282 0.455653 0.062816 0.146190
H19   H     H_    0.674402 0.448224 0.939200 0.150220
H20   H     H_    0.826438 0.949221 0.061588 0.150251
H21   H     H_    0.160934 0.987477 0.935157 0.146201
H22   H     H_    0.359433 0.545774 0.940461 0.156540
H23   H     H_    0.975201 0.131389 0.943890 0.137253
H24   H     H_    0.643471 0.536427 0.061455 0.148992
H25   H     H_    0.856971 0.037030 0.938928 0.148477
H26   H     H_    0.128493 0.094722 0.051120 0.156383
H27   H     H_    0.225020 0.671822 0.057641 0.111589
H28   H     H_    0.775167 0.668449 0.943622 0.110392
H29   H     H_    0.724258 0.168377 0.055772 0.110453
H30   H     H_    0.270596 0.193245 0.929041 0.107716
H31   H     H_    0.200281 0.595912 0.947709 0.115041
H32   H     H_    0.801845 0.591752 0.054327 0.112533
H33   H     H_    0.698188 0.090271 0.945506 0.113115
H34   H     H_    0.978795 0.135973 0.070630 0.138922
H35   H     H_    0.285517 0.159645 0.042976 0.109454
H36   H     H_    0.603960 0.671967 0.461967 0.132060
H37   H     H_    0.544307 0.650814 0.580474 0.152812
H38   H     H_    0.103935 0.171963 0.461953 0.131762
H39   H     H_    0.044283 0.150804 0.580457 0.152941
H40   H     H_    0.508752 0.899428 0.451048 0.101607
H41   H     H_    0.525432 0.929361 0.566082 0.091351
H42   H     H_    0.008724 0.399426 0.451029 0.100874
H43   H     H_    0.025397 0.429348 0.566054 0.091077
H44   H     H_    0.321046 0.965141 0.168303 0.175485
H45   H     H_    0.115053 0.540540 0.459857 0.133092
H46   H     H_    0.334762 0.959967 0.072484 0.159816
H47   H     H_    0.379385 0.854073 0.130900 0.146967
H48   H     H_    0.449916 0.020181 0.183113 0.173841
H49   H     H_    0.398298 0.131514 0.143031 0.167527
H50   H     H_    0.638333 0.938323 0.874351 0.144251
H51   H     H_    0.582932 0.906377 0.798061 0.145424
H52   H     H_    0.648007 0.018295 0.790159 0.156367
H53   H     H_    0.518950 0.097469 0.810809 0.161618
H54   H     H_    0.589346 0.164037 0.857170 0.149045
H55   H     H_    0.854647 0.524150 0.207585 0.161683
H56   H     H_    0.869719 0.535613 0.548410 0.153572
H57   H     H_    0.864397 0.441857 0.124432 0.142654
H58   H     H_    0.919559 0.411975 0.201406 0.161844
H59   H     H_    0.983189 0.602950 0.186182 0.165887
H60   H     H_    0.912715 0.667420 0.138015 0.146631
H61   H     H_    0.149649 0.410877 0.903697 0.153497
H62   H     H_    0.100209 0.352397 0.829299 0.147160
H63   H     H_    0.167709 0.459296 0.812759 0.145913
H64   H     H_    0.038963 0.546397 0.811442 0.169178
H65   H     H_    0.104065 0.626546 0.854040 0.158547
H66   H     H_    0.615053 0.040530 0.459869 0.132977
H67   H     H_    0.369699 0.035695 0.548427 0.154084
H68   H     H_    0.137734 0.622632 0.579614 0.151972
O1    O     O_R   0.215090 0.709860 0.828130 -0.536972
O2    O     O_R   0.543740 0.718170 0.330000 -0.489182
O3    O     O_R   0.956260 0.218170 0.670000 -0.508582
O4    O     O_R   0.043740 0.218170 0.330000 -0.491312
O5    O     O_R   0.320940 0.626760 0.674370 -0.494909
O6    O     O_R   0.679060 0.626760 0.325630 -0.520170
O7    O     O_R   0.820940 0.126760 0.674370 -0.494420
O8    O     O_R   0.179060 0.126760 0.325630 -0.515983
O9    O     O_3   0.334530 0.834540 0.749640 -0.240004
O10   O     O_3   0.665470 0.834540 0.250360 -0.285032
O11   O     O_3   0.834530 0.334540 0.749640 -0.240669
O12   O     O_R   0.784910 0.709860 0.171870 -0.535239
O13   O     O_3   0.165470 0.334540 0.250360 -0.302373
O14   O     O_R   0.236990 0.958390 0.823710 -0.496681
O15   O     O_R   0.763010 0.958390 0.176290 -0.491118
O16   O     O_R   0.736990 0.458390 0.823710 -0.499356
O17   O     O_R   0.263010 0.458390 0.176290 -0.504328
O18   O     O_R   0.332380 0.074750 0.830850 -0.513933
O19   O     O_R   0.667620 0.074750 0.169150 -0.505749
O20   O     O_R   0.832380 0.574750 0.830850 -0.510922
O21   O     O_R   0.167620 0.574750 0.169150 -0.507372
O22   O     O_R   0.445800 0.917770 0.825070 -0.498109
O23   O     O_R   0.715090 0.209860 0.828130 -0.537786
O24   O     O_R   0.554200 0.917770 0.174930 -0.499254
O25   O     O_R   0.945800 0.417770 0.825070 -0.502916
O26   O     O_R   0.054200 0.417770 0.174930 -0.496890
O27   O     O_R   0.456410 0.716580 0.829970 -0.530513
O28   O     O_R   0.543590 0.716580 0.170030 -0.519829
O29   O     O_R   0.956410 0.216580 0.829970 -0.532233
O30   O     O_R   0.043590 0.216580 0.170030 -0.528610
O31   O     O_R   0.321080 0.625290 0.822650 -0.496003
O32   O     O_R   0.678920 0.625290 0.177350 -0.491509
O33   O     O_R   0.821080 0.125290 0.822650 -0.496631
O34   O     O_R   0.284910 0.209860 0.171870 -0.540841
O35   O     O_R   0.178920 0.125290 0.177350 -0.490241
O36   O     O_R   0.214930 0.711450 0.668160 -0.516579
O37   O     O_R   0.785070 0.711450 0.331840 -0.522264
O38   O     O_R   0.714930 0.211450 0.668160 -0.518605
O39   O     O_R   0.285070 0.211450 0.331840 -0.516483
O40   O     O_R   0.236850 0.959870 0.675420 -0.493882
O41   O     O_R   0.763150 0.959870 0.324580 -0.492055
O42   O     O_R   0.736850 0.459870 0.675420 -0.493343
O43   O     O_R   0.263150 0.459870 0.324580 -0.490278
O44   O     O_R   0.332230 0.076350 0.670880 -0.518759
O45   O     O_R   0.445660 0.919250 0.676780 -0.512344
O46   O     O_R   0.667770 0.076350 0.329120 -0.505429
O47   O     O_R   0.832230 0.576350 0.670880 -0.517021
O48   O     O_R   0.167770 0.576350 0.329120 -0.504265
O49   O     O_R   0.554340 0.919250 0.323220 -0.520164
O50   O     O_R   0.945660 0.419250 0.676780 -0.511607
O51   O     O_R   0.054340 0.419250 0.323220 -0.521473
O52   O     O_R   0.456260 0.718170 0.670000 -0.509892

loop_
_geom_bond_atom_site_label_1
_geom_bond_atom_site_label_2
_ccdc_geom_bond_type
C44   C49   S    
C43   C73   S    
C31   C66   S    
C55   O23   A    
Cr3   O33   S    
C14   H18   S    
C42   O25   A    
C13   H30   S    
C63   O49   A    
Cr11  O13   S    
C61   O48   A    
C7    C55   S    
C20   H25   S    
C75   C76   A    
Cr3   O11   S    
C47   H66   S    
C85   H47   S    
C53   O1    A    
Cr5   O10   S    
Cr7   O39   S    
C1    O14   A    
C15   C19   S    
C6    C19   D    
Cr6   O38   S    
C67   C88   S    
C53   O31   A    
Cr5   O37   S    
C90   H58   S    
C8    H35   S    
C56   C76   A    
Cr10  O11   S    
C5    C53   S    
C31   C49   D    
C41   O24   A    
C10   C15   D    
C11   H29   S    
C23   O16   A    
C2    H15   S    
C19   H24   S    
C67   C89   A    
Cr5   O15   S    
Cr2   O6    S    
Cr1   O1    S    
Cr6   O11   S    
C26   H42   S    
Cr3   O3    S    
C85   H46   S    
C6    H32   S    
Cr11  O51   S    
C43   O30   A    
Cr1   O9    S    
Cr9   O46   S    
C35   C70   S    
C67   C77   A    
C4    H17   S    
Cr10  O20   S    
C24   C27   D    
C62   O52   A    
Cr4   O13   S    
Cr4   O4    S    
Cr2   O28   S    
C37   C46   D    
Cr9   O24   S    
C33   C69   S    
Cr11  O48   S    
C32   C68   S    
C27   C28   S    
C1    O18   A    
C77   C79   A    
Cr12  O9    S    
Cr6   O42   S    
Cr5   O41   S    
C4    C56   A    
C70   O39   A    
Cr11  O26   S    
C63   O2    A    
C6    C54   S    
C41   O28   A    
C68   O37   A    
C92   H61   S    
C23   O20   A    
C22   C28   D    
C69   O7    A    
C9    H27   S    
C55   O33   A    
C66   O5    A    
C33   H11   S    
C42   C74   S    
C91   H65   S    
C90   H57   S    
C37   C60   S    
Cr12  O31   S    
C91   H64   S    
C31   H9    S    
C84   C85   S    
C60   O47   A    
C91   C92   S    
C7    H33   S    
C86   C87   S    
Cr4   O35   S    
C40   O22   A    
C5    C18   D    
Cr7   O34   S    
C88   H60   S    
C39   C58   S    
C57   O34   A    
C3    C45   A    
C17   C21   S    
C30   H39   S    
C25   C64   S    
C2    C89   A    
C9    C14   D    
C62   O45   A    
C29   C30   S    
C2    C78   A    
C8    C57   S    
C22   C62   S    
C48   H67   S    
C66   O36   A    
C84   H49   S    
C56   C86   S    
Cr12  O5    S    
C22   H41   S    
C16   C20   S    
C46   H56   S    
Cr1   O40   S    
C8    C21   D    
C37   H6    S    
C87   H50   S    
C64   O50   A    
C72   C76   A    
C25   H43   S    
Cr4   O8    S    
C64   O3    A    
Cr8   O9    S    
C86   H54   S    
C32   C50   D    
C38   C47   D    
C15   H19   S    
Cr10  O47   S    
Cr2   O2    S    
C84   H48   S    
C34   O21   A    
Cr3   O7    S    
C39   H8    S    
C17   H21   S    
C88   C90   S    
Cr8   O45   S    
C7    C20   D    
C24   C63   S    
C58   O40   A    
C74   C79   A    
C65   O4    A    
C9    C34   S    
C10   C23   S    
Cr12  O27   S    
C54   O12   A    
C36   C44   D    
C45   C84   S    
C1    C13   S    
C90   H55   S    
Cr10  O25   S    
C36   C61   S    
C21   H26   S    
C65   O51   A    
C85   H44   S    
Cr10  O50   S    
Cr5   O12   S    
Cr7   O17   S    
C74   C82   A    
Cr9   O49   S    
C25   C30   D    
C5    H31   S    
C12   O19   A    
C57   O35   A    
C35   C52   D    
Cr8   O44   S    
C40   C72   S    
C78   C79   A    
C26   C65   S    
C14   C18   S    
C34   O17   A    
Cr8   O18   S    
C27   H36   S    
C80   C81   A    
Cr9   O19   S    
C59   O46   A    
C49   H68   S    
C47   C51   S    
C11   C12   S    
C59   O41   A    
Cr4   O30   S    
C28   H37   S    
C40   O27   A    
Cr8   O22   S    
C78   C91   S    
C33   C51   D    
C88   H59   S    
Cr2   O10   S    
C46   C50   S    
C44   H45   S    
C13   C17   D    
C45   C75   A    
C16   H20   S    
C72   C80   A    
Cr3   O29   S    
Cr1   O14   S    
C71   C75   A    
C12   O15   A    
C92   H63   S    
C70   O8    A    
Cr7   O43   S    
C41   C71   S    
C24   H40   S    
C54   O32   A    
C29   H38   S    
C80   H1    S    
C81   H12   S    
C68   O6    A    
Cr7   O13   S    
C73   C83   A    
Cr6   O23   S    
C43   O26   A    
C87   H51   S    
C86   H53   S    
C10   H28   S    
C82   H23   S    
C11   C16   D    
C35   H13   S    
C3    H16   S    
C38   C59   S    
C92   H62   S    
C48   C52   S    
Cr2   O32   S    
C89   H14   S    
C52   H4    S    
C26   C29   D    
C51   H3    S    
C82   C83   A    
C36   H5    S    
C50   H2    S    
C73   C77   A    
C87   H52   S    
C42   O29   A    
C60   O42   A    
C69   O38   A    
C61   O43   A    
C32   H10   S    
C38   H7    S    
Cr1   O36   S    
Cr6   O16   S    
Cr12  O52   S    
C83   H34   S    
C18   H22   S    
Cr9   O10   S    
C3    C4    A    
Cr11  O21   S    
C39   C48   D    
C71   C81   A    
C58   O44   A    
