data_mof_unit_25382.cif
_audit_creation_date              2012-12-10T20:49:48-0500
_audit_creation_method            fapswitch 2.2
_symmetry_space_group_name_H-M    P1
_symmetry_Int_Tables_number       1
_space_group_crystal_system       triclinic
_cell_length_a                    8.094194
_cell_length_b                    8.937595
_cell_length_c                    16.590329
_cell_angle_alpha                 89.992375
_cell_angle_beta                  84.327614
_cell_angle_gamma                 90.017172
_cell_volume                      1194.31099263

loop_
_atom_site_label
_atom_site_type_symbol
_atom_type_description
_atom_site_fract_x
_atom_site_fract_y
_atom_site_fract_z
_atom_type_partial_charge
C1    C     C_R   0.500002 0.782084 0.500059 0.960741
C2    C     C_R   0.394627 0.473276 0.218584 -0.203936
C3    C     C_R   0.545501 0.277604 0.838181 -0.126372
C4    C     C_R   0.391804 0.416982 0.141084 -0.126095
C5    C     C_R   0.409369 0.318284 0.892096 0.162756
C6    C     C_R   0.535435 0.353965 0.100565 0.171875
C7    C     C_R   0.292349 0.420355 0.868411 -0.199810
C8    C     C_R   0.683801 0.356096 0.137063 -0.207429
C9    C     C_R   0.315316 0.490151 0.792574 -0.043356
C10   C     C_R   0.689820 0.415952 0.214520 -0.017429
C11   C     C_2   0.405103 0.281593 0.978084 -0.218398
C12   C     C_R   0.499980 0.217917 0.500035 0.927251
C13   C     C_2   0.541623 0.307696 0.015492 -0.197634
C14   C     C_2   0.854095 0.420107 0.246581 0.909433
C15   C     C_2   0.194573 0.607135 0.773454 0.917000
C16   C     C_1   0.500003 0.934840 0.500089 -0.164959
C17   C     C_1   0.499966 0.065172 0.500080 -0.169233
C18   C     C_R   0.475708 0.497080 0.654386 0.905169
C19   C     C_R   0.524551 0.498095 0.345234 0.865930
C20   C     C_R   0.456610 0.451372 0.739222 -0.116344
C21   C     C_R   0.540687 0.469411 0.257529 -0.122954
C22   C     C_R   0.569418 0.344375 0.762709 -0.189143
H1    H     H_    0.189701 0.453759 0.911652 0.166605
H2    H     H_    0.960495 0.686649 0.792092 0.350036
H3    H     H_    0.796745 0.314436 0.103918 0.152889
H4    H     H_    0.277165 0.426444 0.113155 0.142603
H5    H     H_    0.636105 0.197613 0.855525 0.143941
H6    H     H_    0.674966 0.309388 0.721761 0.169344
H7    H     H_    0.280189 0.517388 0.248836 0.193262
H8    H     H_    0.661120 0.319668 0.979911 0.160014
H9    H     H_    0.284461 0.269955 0.012277 0.156691
H10   H     H_    0.063796 0.308508 0.264843 0.340779
N1    N     N_1   0.926360 0.500000 0.499990 -0.009741
N2    N     N_1   0.073640 0.500000 0.500010 -0.015076
O1    O     O_R   0.363150 0.714660 0.500000 -0.598856
O2    O     O_R   0.954238 0.292373 0.241353 -0.807445
O3    O     O_2   0.238472 0.711264 0.728494 -0.628162
O4    O     O_R   0.030803 0.600599 0.809205 -0.810965
O5    O     O_R   0.636850 0.285340 0.500000 -0.619214
O6    O     O_R   0.636850 0.714660 0.500000 -0.608264
O7    O     O_R   0.363150 0.285340 0.500000 -0.616024
O8    O     O_R   0.346950 0.500000 0.615800 -0.596834
O9    O     O_R   0.653050 0.500000 0.384200 -0.583164
O10   O     O_R   0.620700 0.500000 0.615800 -0.623739
O11   O     O_R   0.379300 0.500000 0.384200 -0.618355
O12   O     O_2   0.905253 0.536439 0.273934 -0.614523
Zn1   Zn    Zn3+2 0.317220 0.500000 0.500010 1.027410
Zn2   Zn    Zn3+2 0.682780 0.500000 0.499990 1.029730

loop_
_geom_bond_atom_site_label_1
_geom_bond_atom_site_label_2
_ccdc_geom_bond_type
C12   C17   S    
C4    H4    S    
C19   O11   A    
C15   O4    S    
C12   O7    A    
C18   O10   A    
C5    C7    A    
O9    Zn2   S    
C13   H8    S    
C9    C20   A    
C2    C4    A    
O1    Zn1   S    
C2    C21   A    
C3    H5    S    
N1    N2    T    
C9    C15   S    
C11   H9    S    
C14   O12   D    
C1    C16   S    
C22   H6    S    
C6    C13   S    
C8    H3    S    
C11   C13   D    
C12   O5    A    
C2    H7    S    
C7    H1    S    
H10   O2    S    
C4    C6    A    
C19   C21   S    
C20   C22   A    
C5    C11   S    
C18   C20   S    
O8    Zn1   S    
C18   O8    A    
C10   C21   A    
C14   O2    S    
H2    O4    S    
O7    Zn1   S    
C1    O1    A    
C8    C10   A    
C10   C14   S    
O11   Zn1   S    
C7    C9    A    
N1    Zn2   S    
O6    Zn2   S    
C15   O3    D    
C3    C22   A    
C6    C8    A    
N2    Zn1   S    
C1    O6    A    
C3    C5    A    
O10   Zn2   S    
C19   O9    A    
C16   C17   T    
O5    Zn2   S    
