data_mof_unit_46350.cif
_audit_creation_date              2012-10-26T19:42:14-0400
_audit_creation_method            fapswitch 2.2
_symmetry_space_group_name_H-M    P1
_symmetry_Int_Tables_number       1
_space_group_crystal_system       triclinic
_cell_length_a                    9.618146
_cell_length_b                    10.786708
_cell_length_c                    17.273745
_cell_angle_alpha                 91.811549
_cell_angle_beta                  85.386144
_cell_angle_gamma                 91.55324
_cell_volume                      1784.87581985

loop_
_atom_site_label
_atom_site_type_symbol
_atom_type_description
_atom_site_fract_x
_atom_site_fract_y
_atom_site_fract_z
_atom_type_partial_charge
C1    C     C_R   0.502286 0.736908 0.497913 0.535798
C2    C     C_R   0.529641 0.489351 0.264286 0.040777
C3    C     C_R   0.499410 0.868458 0.645085 -0.064958
C4    C     C_R   0.481034 0.506876 0.650270 0.587919
C5    C     C_R   0.475368 0.928905 0.716842 -0.113827
C6    C     C_R   0.435609 0.051716 0.720454 -0.043805
C7    C     C_R   0.427229 0.117067 0.652406 0.229128
C8    C     C_R   0.471060 0.062379 0.578707 -0.002336
C9    C     C_R   0.494122 0.933175 0.575541 -0.004575
C10   C     C_R   0.506603 0.870505 0.502838 -0.014202
C11   C     C_R   0.512135 0.934662 0.434031 -0.063299
C12   C     C_R   0.342597 0.536657 0.781723 0.263737
C13   C     C_R   0.507416 0.062877 0.436136 0.216857
C14   C     C_R   0.488851 0.128000 0.507820 0.022396
C15   C     C_R   0.867112 0.338175 0.395896 -0.059165
C16   C     C_R   0.496742 0.262972 0.505985 0.610491
C17   C     C_R   0.944362 0.260757 0.343944 0.260247
C18   C     C_R   0.087930 0.258883 0.345398 0.224519
C19   C     C_R   0.153670 0.335572 0.398084 -0.099232
C20   C     C_R   0.079515 0.419054 0.449916 0.097318
C21   C     C_R   0.930320 0.419686 0.449423 0.086566
C22   C     C_R   0.923005 0.577761 0.547425 0.359613
C23   C     C_R   0.410548 0.447839 0.147232 -0.025234
C24   C     C_R   0.070366 0.577460 0.547038 0.102205
C25   C     C_R   0.519194 0.498581 0.349772 0.573616
C26   C     C_R   0.471093 0.521893 0.735917 -0.017306
C27   C     C_R   0.596205 0.525087 0.772765 -0.149215
C28   C     C_R   0.595459 0.541135 0.852519 -0.168377
C29   C     C_R   0.469605 0.552670 0.898049 0.006248
C30   C     C_R   0.342539 0.550293 0.862956 0.295270
C31   C     C_R   0.407647 0.457943 0.227495 -0.090404
C32   C     C_R   0.656761 0.508891 0.218134 0.258059
C33   C     C_R   0.658375 0.497093 0.137390 -0.016142
C34   C     C_R   0.535393 0.468797 0.102258 0.017988
C35   C     C_2   0.473071 0.559729 0.982729 0.270620
C36   C     C_2   0.534856 0.469443 0.018054 -0.107713
Cl1   Cl    Cl    0.322870 0.247363 0.663226 -0.530517
Cl2   Cl    Cl    0.519309 0.139468 0.347114 -0.487358
Cl3   Cl    Cl    0.834811 0.684530 0.611095 -0.553811
Cl4   Cl    Cl    0.858379 0.167460 0.276313 -0.373862
Cl5   Cl    Cl    0.188976 0.161611 0.280724 -0.407991
Cl6   Cl    Cl    0.815145 0.555045 0.256532 -0.504064
Cl7   Cl    Cl    0.182230 0.556745 0.920813 -0.406377
Cl8   Cl    Cl    0.179854 0.538925 0.740691 -0.452895
Cl9   Cl    Cl    0.402687 0.690488 0.034952 -0.427421
Cu1   Cu    Cu3+1 0.359340 0.500010 0.500010 1.052030
Cu2   Cu    Cu3+1 0.640660 0.499990 0.499990 1.079511
H1    H     H_    0.521169 0.884654 0.378473 0.184167
H2    H     H_    0.403406 0.094176 0.776465 0.175975
H3    H     H_    0.308808 0.441820 0.260597 0.169797
H4    H     H_    0.263283 0.326679 0.394990 0.218214
H5    H     H_    0.584611 0.393591 0.984446 0.127091
H6    H     H_    0.522131 0.770837 0.644560 0.150462
H7    H     H_    0.479434 0.878262 0.769708 0.158464
H8    H     H_    0.758249 0.331319 0.390747 0.225242
H9    H     H_    0.122810 0.641303 0.585248 0.181326
H10   H     H_    0.314912 0.425873 0.119981 0.193657
H11   H     H_    0.693829 0.542959 0.879130 0.178559
H12   H     H_    0.696292 0.515020 0.740032 0.214879
H13   H     H_    0.754536 0.514455 0.101793 0.183983
N1    N     N_R   0.852190 0.498790 0.499250 -0.230530
N2    N     N_R   0.148060 0.498710 0.499220 -0.260958
O1    O     O_R   0.381190 0.680360 0.500010 -0.511964
O2    O     O_R   0.618760 0.680340 0.500000 -0.446004
O3    O     O_R   0.367440 0.500030 0.613600 -0.420561
O4    O     O_R   0.605010 0.500010 0.613590 -0.482766
O5    O     O_R   0.381240 0.319660 0.500000 -0.474472
O6    O     O_R   0.618810 0.319640 0.499990 -0.525766
O7    O     O_R   0.394990 0.499990 0.386410 -0.541487
O8    O     O_R   0.632560 0.499970 0.386400 -0.474137

loop_
_geom_bond_atom_site_label_1
_geom_bond_atom_site_label_2
_ccdc_geom_bond_type
Cu2   N1    S    
C4    C26   S    
Cu2   O8    S    
C6    C7    A    
C3    C9    A    
C28   H11   S    
C8    C9    A    
C33   H13   S    
C11   C13   A    
C9    C10   A    
C29   C35   S    
Cu2   O4    S    
C21   N1    A    
C19   C20   A    
C36   H5    S    
Cu1   O1    S    
C3    C5    A    
C23   C34   A    
C32   C33   A    
C25   O8    A    
C23   H10   S    
C17   C18   A    
C7    Cl1   S    
Cu1   O5    S    
C12   Cl8   S    
C16   O5    A    
C27   H12   S    
C13   C14   A    
C22   N1    A    
C4    O4    A    
C5    H7    S    
C3    H6    S    
C26   C27   A    
C29   C30   A    
Cu1   N2    S    
C16   O6    A    
C22   Cl3   S    
C1    O1    A    
C22   C24   A    
C28   C29   A    
C13   Cl2   S    
C33   C34   A    
C2    C25   S    
C34   C36   S    
C6    H2    S    
C20   N2    A    
C5    C6    A    
C14   C16   S    
C30   Cl7   S    
C25   O7    A    
C10   C11   A    
C31   H3    S    
C24   H9    S    
C23   C31   A    
C35   Cl9   S    
C1    O2    A    
C19   H4    S    
Cu2   O6    S    
C15   C21   A    
C20   C21   A    
Cu1   O3    S    
C2    C32   A    
C7    C8    A    
C18   Cl5   S    
Cu2   O2    S    
C15   C17   A    
C32   Cl6   S    
C4    O3    A    
C18   C19   A    
Cu1   O7    S    
C24   N2    A    
C11   H1    S    
C8    C14   A    
C12   C30   A    
Cu1   Cu2   S    
C1    C10   S    
C35   C36   D    
C12   C26   A    
C2    C31   A    
C27   C28   A    
C17   Cl4   S    
C15   H8    S    
