data_mof_unit_33339.cif
_audit_creation_date              2012-12-10T16:51:27-0500
_audit_creation_method            fapswitch 2.2
_symmetry_space_group_name_H-M    P1
_symmetry_Int_Tables_number       1
_space_group_crystal_system       triclinic
_cell_length_a                    7.834557
_cell_length_b                    8.615447
_cell_length_c                    12.210168
_cell_angle_alpha                 92.705093
_cell_angle_beta                  101.219658
_cell_angle_gamma                 94.175582
_cell_volume                      804.679937059

loop_
_atom_site_label
_atom_site_type_symbol
_atom_type_description
_atom_site_fract_x
_atom_site_fract_y
_atom_site_fract_z
_atom_type_partial_charge
C1    C     C_R   0.044808 0.794753 0.497770 0.958964
C2    C     C_R   0.160105 0.500183 0.831564 -0.212877
C3    C     C_2   0.068210 0.958459 0.496943 -0.392087
C4    C     C_R   0.105897 0.502045 0.710099 0.862182
C5    C     C_2   0.933029 0.041799 0.505831 -0.391182
C6    C     C_R   0.955651 0.205328 0.503248 0.952671
C7    C     C_R   0.892298 0.487517 0.290330 0.869890
C8    C     C_R   0.821636 0.301968 0.001014 -0.152094
C9    C     C_R   0.830310 0.456891 0.171756 -0.067048
C10   C     C_R   0.065111 0.576387 0.901803 0.470059
C11   C     C_R   0.140256 0.609152 0.014453 -0.229111
C12   C     C_R   0.401904 0.487781 0.987730 0.061777
C13   C     C_R   0.307866 0.569782 0.056480 -0.276527
C14   C     C_3   0.852226 0.746062 0.859143 0.080402
C15   C     C_3   0.654697 0.750885 0.844513 -0.281310
C16   C     C_3   0.597924 0.911826 0.819068 -1.028715
C17   C     C_R   0.319367 0.440163 0.877191 0.014689
C18   C     C_R   0.574732 0.449478 0.025737 0.084870
C19   C     C_R   0.654815 0.348891 0.959293 0.220490
C20   C     C_R   0.566393 0.295204 0.853087 -0.226482
C21   C     C_R   0.398304 0.334315 0.814453 -0.188552
C22   C     C_R   0.672319 0.512737 0.127067 -0.270904
C23   C     C_R   0.907064 0.351939 0.109090 -0.200788
H1    H     H_    0.030188 0.306972 0.144145 0.158464
H2    H     H_    0.330492 0.278363 0.735256 0.177962
H3    H     H_    0.195600 0.009859 0.488511 0.179928
H4    H     H_    0.897143 0.794357 0.785617 0.152324
H5    H     H_    0.915498 0.818976 0.936139 0.111051
H6    H     H_    0.587191 0.665479 0.776134 0.238998
H7    H     H_    0.614580 0.718922 0.923122 0.225300
H8    H     H_    0.657083 0.994235 0.891184 0.268193
H9    H     H_    0.453513 0.909835 0.806775 0.272063
H10   H     H_    0.639244 0.949939 0.741838 0.263464
H11   H     H_    0.805769 0.990434 0.514567 0.178112
H12   H     H_    0.470058 0.373495 0.418095 0.188552
H13   H     H_    0.529510 0.627802 0.580590 0.190068
H14   H     H_    0.627352 0.223645 0.799200 0.159974
H15   H     H_    0.883076 0.223437 0.951653 0.125314
H16   H     H_    0.625673 0.602628 0.175419 0.150525
H17   H     H_    0.355552 0.596331 0.144799 0.164959
H18   H     H_    0.066765 0.662042 0.070635 0.158019
N1    N     N_2   0.434800 0.456690 0.470850 -0.176579
N2    N     N_2   0.565200 0.543310 0.529150 -0.169708
O1    O     O_R   0.893060 0.738880 0.507150 -0.615724
O2    O     O_R   0.172250 0.711130 0.488470 -0.623457
O3    O     O_R   0.944700 0.520730 0.667600 -0.567207
O4    O     O_R   0.223890 0.492980 0.648920 -0.630637
O5    O     O_R   0.827750 0.288870 0.511530 -0.626954
O6    O     O_R   0.106940 0.261120 0.492850 -0.618957
O7    O     O_R   0.776110 0.507020 0.351080 -0.620497
O8    O     O_R   0.055300 0.479270 0.332400 -0.619535
O9    O     O_3   0.888606 0.588796 0.865532 -0.624701
Zn1   Zn    Zn3+2 0.813580 0.518530 0.512470 0.946571
Zn2   Zn    Zn3+2 0.186420 0.481470 0.487530 0.925797

loop_
_geom_bond_atom_site_label_1
_geom_bond_atom_site_label_2
_ccdc_geom_bond_type
C12   C17   A    
C2    C4    S    
C23   H1    S    
C11   H18   S    
C16   H10   S    
C16   H9    S    
C1    O1    A    
C19   C20   A    
O8    Zn2   S    
C10   O9    S    
C5    H11   S    
C7    O8    A    
C4    O3    A    
C20   C21   A    
C16   H8    S    
C20   H14   S    
C11   C13   A    
C1    O2    A    
C5    C6    S    
C6    O5    A    
O4    Zn2   S    
C22   H16   S    
O3    Zn1   S    
O2    Zn2   S    
C15   H6    S    
C8    H15   S    
C6    O6    A    
C2    C17   A    
O5    Zn1   S    
C14   H4    S    
C14   O9    S    
C9    C22   A    
C8    C19   A    
C10   C11   A    
C13   H17   S    
C14   H5    S    
O6    Zn2   S    
O7    Zn1   S    
N1    Zn2   S    
C8    C23   A    
C12   C13   A    
C15   H7    S    
C18   C19   A    
N1    N2    D    
C12   C18   A    
C7    C9    S    
H12   N1    S    
C21   H2    S    
C14   C15   S    
C9    C23   A    
H13   N2    S    
C3    C5    D    
C18   C22   A    
O1    Zn1   S    
N2    Zn1   S    
C3    H3    S    
C17   C21   A    
C15   C16   S    
C7    O7    A    
C1    C3    S    
C4    O4    A    
C2    C10   A    
