data_mof_unit_52013.cif
_audit_creation_date              2012-12-10T18:43:04-0500
_audit_creation_method            fapswitch 2.2
_symmetry_space_group_name_H-M    P1
_symmetry_Int_Tables_number       1
_space_group_crystal_system       triclinic
_cell_length_a                    8.724103
_cell_length_b                    19.393394
_cell_length_c                    18.160122
_cell_angle_alpha                 90.002685
_cell_angle_beta                  97.99668
_cell_angle_gamma                 90.170212
_cell_volume                      3042.61999551

loop_
_atom_site_label
_atom_site_type_symbol
_atom_type_description
_atom_site_fract_x
_atom_site_fract_y
_atom_site_fract_z
_atom_type_partial_charge
C1    C     C_R   0.500029 0.367878 0.500021 0.806123
C2    C     C_R   0.500978 0.632345 0.500026 0.800179
C3    C     C_R   0.435782 0.964512 0.558609 0.503396
C4    C     C_R   0.490177 0.036188 0.430128 0.503904
C5    C     C_R   0.440241 0.036513 0.558553 -0.297671
C6    C     C_R   0.493963 0.964203 0.431515 -0.298671
C7    C     C_R   0.466675 0.072682 0.494667 -0.080728
C8    C     C_R   0.466442 0.928064 0.495226 -0.084357
C9    C     C_R   0.395099 0.461175 0.714500 0.090283
C10   C     C_R   0.603213 0.539668 0.285351 0.089232
C11   C     C_R   0.394684 0.460520 0.791813 -0.260183
C12   C     C_R   0.603461 0.540319 0.208033 -0.263313
C13   C     C_R   0.503094 0.500025 0.838675 0.058132
C14   C     C_R   0.496486 0.500011 0.161291 0.059675
C15   C     C_R   0.610650 0.539911 0.805356 -0.101877
C16   C     C_R   0.390710 0.459211 0.194791 -0.097658
C17   C     C_R   0.606524 0.538866 0.727573 0.054013
C18   C     C_R   0.395177 0.460147 0.272607 0.051111
C19   C     C_R   0.474767 0.560697 0.958645 -0.190454
C20   C     C_R   0.524797 0.439366 0.041264 -0.190520
C21   C     C_R   0.472583 0.561994 0.036041 -0.006441
C22   C     C_R   0.526805 0.438062 0.963860 -0.005738
C23   C     C_R   0.203531 0.499886 0.480996 0.882300
C24   C     C_R   0.796462 0.499954 0.519006 0.895971
C25   C     C_R   0.497649 0.500856 0.078455 0.046100
C26   C     C_R   0.501806 0.499197 0.921473 0.044615
C27   C     C_2   0.037746 0.499775 0.470472 -0.349143
C28   C     C_2   0.962235 0.499842 0.529533 -0.347716
C29   C     C_R   0.390852 0.740382 0.444803 -0.229061
C30   C     C_R   0.361223 0.260111 0.517191 -0.229058
C31   C     C_R   0.378015 0.812090 0.443053 -0.006358
C32   C     C_R   0.348627 0.188368 0.514823 -0.000466
C33   C     C_R   0.473585 0.852154 0.495748 0.087259
C34   C     C_R   0.473189 0.148642 0.496348 0.079284
C35   C     C_R   0.579656 0.819542 0.549683 -0.126896
C36   C     C_R   0.607451 0.181728 0.479558 -0.114406
C37   C     C_R   0.590848 0.747784 0.552133 -0.045367
C38   C     C_R   0.618375 0.253532 0.480323 -0.052152
C39   C     C_R   0.495545 0.707814 0.499312 -0.088258
C40   C     C_R   0.494632 0.292793 0.499586 -0.080354
Cu1   Cu    Cu3+1 0.499960 0.500000 0.573360 0.959990
Cu2   Cu    Cu3+1 0.500040 0.500000 0.426640 0.955508
H1    H     H_    0.977620 0.499711 0.413849 0.175682
H2    H     H_    0.022350 0.499870 0.586158 0.173742
H3    H     H_    0.689380 0.568926 0.701960 0.150665
H4    H     H_    0.314038 0.429117 0.298406 0.132637
H5    H     H_    0.453837 0.607901 0.926870 0.155233
H6    H     H_    0.545897 0.392163 0.073021 0.153538
H7    H     H_    0.316419 0.709607 0.404568 0.157941
H8    H     H_    0.265446 0.290833 0.531046 0.150225
H9    H     H_    0.654959 0.850358 0.589498 0.162298
H10   H     H_    0.704043 0.151331 0.466157 0.174674
H11   H     H_    0.423376 0.064186 0.608623 0.182837
H12   H     H_    0.518801 0.936508 0.382735 0.183774
H13   H     H_    0.311354 0.430367 0.679131 0.125588
H14   H     H_    0.685798 0.571110 0.320618 0.126272
H15   H     H_    0.309670 0.429494 0.814959 0.152700
H16   H     H_    0.687265 0.571981 0.184792 0.152954
N1    N     N_R   0.499980 0.500020 0.683620 -0.183548
N2    N     N_R   0.500020 0.499980 0.316380 -0.181369
O1    O     O_R   0.499930 0.400180 0.561970 -0.580953
O2    O     O_R   0.500070 0.599820 0.438030 -0.585925
O3    O     O_R   0.500010 0.400190 0.438070 -0.576979
O4    O     O_R   0.499990 0.599810 0.561930 -0.574489
O5    O     O_R   0.274810 0.500000 0.547650 -0.585470
O6    O     O_R   0.725190 0.500000 0.452350 -0.582648
O7    O     O_R   0.274880 0.500000 0.423750 -0.593452
O8    O     O_R   0.725120 0.500000 0.576250 -0.591158
C41   C     C_1   0.728355 0.580448 0.849553 0.233865
N3    N     N_1   0.822765 0.612938 0.885006 -0.249411
C42   C     C_1   0.274375 0.417845 0.150747 0.218654
N4    N     N_1   0.181065 0.384699 0.115405 -0.257835
C43   C     C_1   0.439845 0.626426 0.070367 0.247981
N5    N     N_1   0.413580 0.678074 0.097914 -0.255529
C44   C     C_1   0.559181 0.373617 0.929465 0.246668
N6    N     N_1   0.585149 0.321958 0.901861 -0.257308
C45   C     C_1   0.262557 0.843159 0.388450 0.220594
N7    N     N_1   0.170050 0.868093 0.344741 -0.270958
C46   C     C_1   0.204930 0.157020 0.528663 0.230462
N8    N     N_1   0.089744 0.131933 0.539675 -0.289012
C47   C     C_1   0.705505 0.716771 0.607145 0.239496
N9    N     N_1   0.797817 0.692132 0.651164 -0.290620
C48   C     C_1   0.758577 0.285804 0.463069 0.250089
N10   N     N_1   0.870887 0.311695 0.449321 -0.287473
O9    O     O_3   0.408992 0.929928 0.622109 -0.576197
C49   C     C_3   0.247764 0.922089 0.620023 -0.268951
H17   H     H_    0.196606 0.891445 0.570743 0.159594
H18   H     H_    0.189282 0.973004 0.620613 0.170575
H19   H     H_    0.225561 0.893528 0.670410 0.200217
O10   O     O_3   0.517223 0.070703 0.366629 -0.579433
C50   C     C_3   0.374694 0.078546 0.320330 -0.265509
H20   H     H_    0.291657 0.109298 0.348167 0.162915
H21   H     H_    0.323222 0.027626 0.302357 0.173472
H22   H     H_    0.395386 0.106996 0.269632 0.198660

loop_
_geom_bond_atom_site_label_1
_geom_bond_atom_site_label_2
_ccdc_geom_bond_type
C30   C32   A    
C38   C48   S    
C3    O9    S    
C43   N5    T    
Cu1   O1    S    
C47   N9    T    
C29   H7    S    
O9    C49   S    
C5    H11   S    
C35   C37   A    
C17   H3    S    
C49   H18   S    
C20   C25   A    
C21   C43   S    
Cu1   Cu2   S    
C23   O7    A    
C19   C26   A    
C1    C40   S    
C2    C39   S    
C31   C33   A    
C9    H13   S    
C23   C27   S    
C10   H14   S    
Cu2   O2    S    
C36   H10   S    
C24   O6    A    
C12   H16   S    
C30   H8    S    
C37   C47   S    
C16   C42   S    
C22   C44   S    
C6    H12   S    
C4    C7    A    
C18   H4    S    
C2    O4    A    
C31   C45   S    
Cu1   O8    S    
C4    O10   S    
C15   C41   S    
Cu1   N1    S    
C4    C6    A    
C3    C8    A    
Cu2   N2    S    
C50   H20   S    
C5    C7    A    
C49   H17   S    
C6    C8    A    
C45   N7    T    
C28   H2    S    
C9    N1    A    
C32   C34   A    
C10   N2    A    
C44   N6    T    
C50   H21   S    
C48   N10   T    
C29   C39   A    
C30   C40   A    
C16   C18   A    
C9    C11   A    
C20   H6    S    
C10   C12   A    
C17   N1    A    
C18   N2    A    
C20   C22   A    
C13   C15   A    
C35   H9    S    
Cu2   O7    S    
C7    C34   S    
C14   C16   A    
C13   C26   S    
C15   C17   A    
C21   C25   A    
C1    O3    A    
C19   C21   A    
C24   C28   S    
C12   C14   A    
C3    C5    A    
C49   H19   S    
C1    O1    A    
Cu1   O5    S    
C23   O5    A    
C36   C38   A    
C42   N4    T    
C29   C31   A    
C32   C46   S    
C38   C40   A    
C11   C13   A    
O10   C50   S    
C33   C35   A    
C34   C36   A    
C8    C33   S    
C14   C25   S    
C41   N3    T    
C24   O8    A    
C46   N8    T    
C27   H1    S    
C37   C39   A    
C22   C26   A    
C19   H5    S    
C27   C28   D    
Cu2   O6    S    
Cu1   O4    S    
C11   H15   S    
Cu2   O3    S    
C2    O2    A    
C50   H22   S    
