data_mof_unit_38155.cif
_audit_creation_date              2012-12-10T18:07:32-0500
_audit_creation_method            fapswitch 2.2
_symmetry_space_group_name_H-M    P1
_symmetry_Int_Tables_number       1
_space_group_crystal_system       triclinic
_cell_length_a                    11.549771
_cell_length_b                    12.652003
_cell_length_c                    13.080901
_cell_angle_alpha                 81.908265
_cell_angle_beta                  90.782677
_cell_angle_gamma                 102.844538
_cell_volume                      1844.78874518

loop_
_atom_site_label
_atom_site_type_symbol
_atom_type_description
_atom_site_fract_x
_atom_site_fract_y
_atom_site_fract_z
_atom_type_partial_charge
C1    C     C_R   0.487876 0.438552 0.691365 0.891870
C2    C     C_R   0.542454 0.601783 0.197491 -0.347995
C3    C     C_R   0.565994 0.322420 0.826458 -0.244733
C4    C     C_R   0.643023 0.331290 0.909253 0.203549
C5    C     C_R   0.649025 0.418915 0.966400 0.291467
C6    C     C_R   0.555352 0.477191 0.957343 0.036250
C7    C     C_R   0.478295 0.467275 0.872885 -0.037630
C8    C     C_R   0.538490 0.548603 0.026481 -0.045685
C9    C     C_R   0.481064 0.634769 0.992569 -0.075786
C10   C     C_R   0.396879 0.620483 0.912794 0.202977
C11   C     C_R   0.388983 0.529648 0.858793 0.202709
C12   C     C_R   0.717816 0.501110 0.500435 0.876726
C13   C     C_R   0.562688 0.528258 0.131894 0.340460
C14   C     C_R   0.532237 0.707994 0.152806 0.372507
C15   C     C_R   0.497551 0.400261 0.800796 -0.150208
C16   C     C_R   0.382400 0.102599 0.315830 0.361365
C17   C     C_R   0.637092 0.798020 0.631604 -0.036682
C18   C     C_R   0.684623 0.905498 0.648513 0.129988
C19   C     C_R   0.648190 0.991973 0.585388 0.171938
C20   C     C_R   0.548378 0.966366 0.520251 -0.013023
C21   C     C_R   0.513520 0.856970 0.500003 0.121849
C22   C     C_R   0.486067 0.044004 0.469640 -0.236324
C23   C     C_R   0.520224 0.561852 0.308332 0.880501
C24   C     C_R   0.420259 0.018678 0.379663 0.005318
C25   C     C_R   0.391846 0.909272 0.357930 0.203488
C26   C     C_R   0.434842 0.830530 0.421700 -0.165744
C27   C     C_R   0.482636 0.144357 0.506155 0.501071
C28   C     C_R   0.386542 0.202119 0.352552 0.148207
C29   C     C_R   0.282189 0.498821 0.499748 0.879591
C30   C     C_1   0.838970 0.502833 0.501060 -0.184384
C31   C     C_1   0.940918 0.501327 0.500886 -0.000577
C32   C     C_1   0.059050 0.498268 0.500189 -0.000398
C33   C     C_1   0.161016 0.496891 0.499673 -0.191263
C34   C     C_R   0.502060 0.725053 0.048430 0.157359
H1    H     H_    0.668321 0.730847 0.675131 0.157275
H2    H     H_    0.408677 0.748237 0.406456 0.223388
H3    H     H_    0.574013 0.266316 0.772931 0.209398
N1    N     N_R   0.440320 0.222190 0.444690 -0.123200
N2    N     N_R   0.559060 0.776980 0.554780 -0.144088
O1    O     O_R   0.471500 0.366730 0.627160 -0.551898
O2    O     O_R   0.509620 0.544830 0.662520 -0.610929
O3    O     O_R   0.646490 0.410960 0.482310 -0.589270
O4    O     O_R   0.684610 0.589050 0.517670 -0.615380
O5    O     O_R   0.490380 0.455170 0.337480 -0.582481
O6    O     O_R   0.528500 0.633270 0.372840 -0.626154
O7    O     O_R   0.315390 0.410950 0.482330 -0.620057
O8    O     O_R   0.353510 0.589040 0.517690 -0.632861
Zn1   Zn    Zn3+2 0.474550 0.381080 0.476390 0.987447
Zn2   Zn    Zn3+2 0.525450 0.618920 0.523610 0.926327
O9    O     O_3   0.549067 0.795017 0.208144 -0.758189
H4    H     H_    0.614803 0.788679 0.256384 0.351515
C35   C     C_3   0.308410 0.870098 0.273742 -0.705010
H5    H     H_    0.285457 0.779393 0.278979 0.193334
H6    H     H_    0.223512 0.896293 0.280185 0.242169
H7    H     H_    0.350837 0.901932 0.196667 0.288651
O10   O     O_3   0.342354 0.086748 0.217825 -0.782513
H8    H     H_    0.363973 0.156817 0.170695 0.354449
O11   O     O_3   0.511687 0.163372 0.605343 -0.756962
H9    H     H_    0.495692 0.092036 0.650925 0.320197
C36   C     C_3   0.728618 0.105440 0.576749 -0.795477
H10   H     H_    0.707790 0.161897 0.509965 0.252726
H11   H     H_    0.724719 0.140930 0.649235 0.253334
H12   H     H_    0.821709 0.100494 0.562787 0.223605
C37   C     C_3   0.776815 0.926363 0.730396 -0.918273
H13   H     H_    0.787974 0.848807 0.776812 0.235598
H14   H     H_    0.864175 0.969138 0.694441 0.252815
H15   H     H_    0.749074 0.977297 0.783926 0.248024
C38   C     C_3   0.304739 0.690021 0.894412 -0.899269
H16   H     H_    0.213669 0.638564 0.894779 0.239579
H17   H     H_    0.300673 0.740340 0.956171 0.249476
H18   H     H_    0.322955 0.743555 0.818910 0.243790
C39   C     C_3   0.509232 0.840853 0.996373 -0.807121
H19   H     H_    0.502185 0.845452 0.911239 0.231405
H20   H     H_    0.438631 0.875036 0.027382 0.247660
H21   H     H_    0.596891 0.893007 0.011480 0.252028
O12   O     O_3   0.591290 0.430240 0.170951 -0.754957
H22   H     H_    0.648792 0.444512 0.227138 0.339474
C40   C     C_3   0.764448 0.459903 0.019817 -0.859241
H23   H     H_    0.768837 0.539733 0.047073 0.232232
H24   H     H_    0.778140 0.398454 0.085587 0.264008
H25   H     H_    0.839917 0.474207 0.964170 0.217477
C41   C     C_3   0.726955 0.254936 0.927835 -0.897831
H26   H     H_    0.705010 0.187627 0.879777 0.234153
H27   H     H_    0.819628 0.300237 0.908679 0.240944
H28   H     H_    0.720684 0.217288 0.010101 0.257209
C42   C     C_3   0.281745 0.496003 0.792140 -0.862572
H29   H     H_    0.278868 0.418242 0.761511 0.216876
H30   H     H_    0.279682 0.561729 0.726738 0.259028
H31   H     H_    0.198895 0.479781 0.839169 0.227850
C43   C     C_3   0.318817 0.278933 0.292285 -0.773528
H32   H     H_    0.292684 0.336036 0.337304 0.271165
H33   H     H_    0.370694 0.324862 0.223018 0.262098
H34   H     H_    0.233218 0.231609 0.266410 0.211806

loop_
_geom_bond_atom_site_label_1
_geom_bond_atom_site_label_2
_ccdc_geom_bond_type
C16   C28   A    
C21   C26   A    
C8    C13   A    
C23   O6    A    
C19   C20   A    
O8    Zn2   S    
C14   O9    S    
C7    C11   A    
C29   O8    A    
C36   H12   S    
C12   O4    A    
C30   C31   T    
C40   H24   S    
C11   C42   S    
C29   C33   S    
O10   H8    S    
C36   H11   S    
C18   C19   A    
C17   N2    A    
C2    C13   A    
C12   O3    A    
C1    O1    A    
C38   H16   S    
C8    C9    A    
C1    C15   S    
C28   N1    A    
C9    C10   A    
N1    Zn1   S    
C35   H7    S    
C7    C15   A    
C16   C24   A    
C39   H21   S    
O2    Zn2   S    
C35   H6    S    
C17   C18   A    
O7    Zn1   S    
C37   H15   S    
C24   C25   A    
C39   H20   S    
C40   H23   S    
O4    Zn2   S    
C6    C8    A    
C25   C26   A    
C27   O11   S    
C23   O5    A    
C36   H10   S    
C37   H14   S    
C16   O10   S    
C43   H33   S    
C31   C32   S    
C21   N2    A    
C13   O12   S    
O6    Zn2   S    
O9    H4    S    
O3    Zn1   S    
O12   H22   S    
C1    O2    A    
N2    Zn2   S    
C20   C22   A    
C41   H27   S    
C22   C27   A    
C9    C34   A    
C22   C24   A    
C3    C4    A    
C34   C39   S    
C3    C15   A    
C35   H5    S    
C43   H34   S    
C26   H2    S    
O1    Zn1   S    
C12   C30   S    
C42   H29   S    
C39   H19   S    
C42   H31   S    
C14   C34   A    
C6    C7    A    
C10   C38   S    
C19   C36   S    
C41   H28   S    
C17   H1    S    
C29   O7    A    
C37   H13   S    
O11   H9    S    
C25   C35   S    
C32   C33   T    
C40   H25   S    
C18   C37   S    
C43   H32   S    
C5    C6    A    
C38   H18   S    
C42   H30   S    
C2    C14   A    
C10   C11   A    
C4    C5    A    
C4    C41   S    
C20   C21   A    
C3    H3    S    
C38   H17   S    
C41   H26   S    
C2    C23   S    
C28   C43   S    
C27   N1    A    
C5    C40   S    
O5    Zn1   S    
