data_mof_unit_15771.cif
_audit_creation_date              2012-10-26T19:58:23-0400
_audit_creation_method            fapswitch 2.2
_symmetry_space_group_name_H-M    P1
_symmetry_Int_Tables_number       1
_space_group_crystal_system       triclinic
_cell_length_a                    7.584227
_cell_length_b                    8.665181
_cell_length_c                    13.43919
_cell_angle_alpha                 94.282315
_cell_angle_beta                  79.949818
_cell_angle_gamma                 103.028595
_cell_volume                      846.69186403

loop_
_atom_site_label
_atom_site_type_symbol
_atom_type_description
_atom_site_fract_x
_atom_site_fract_y
_atom_site_fract_z
_atom_type_partial_charge
C1    C     C_R   0.544988 0.799659 0.503200 0.562662
C2    C     C_R   0.354338 0.439266 0.800348 0.025763
C3    C     C_2   0.569784 0.967994 0.504761 -0.133740
C4    C     C_R   0.403754 0.475479 0.691924 0.572413
C5    C     C_2   0.430007 0.032007 0.495687 -0.134413
C6    C     C_R   0.454936 0.200329 0.496956 0.545288
C7    C     C_R   0.596127 0.510709 0.307509 0.550248
C8    C     C_R   0.853146 0.621586 0.051553 -0.109003
C9    C     C_R   0.644074 0.520561 0.198604 0.006828
C10   C     C_R   0.198839 0.483377 0.852269 0.009361
C11   C     C_R   0.119589 0.406587 0.942545 -0.101404
C12   C     C_R   0.421108 0.397204 0.967679 0.060045
C13   C     C_R   0.230103 0.358334 0.001106 0.077470
C14   C     C_R   0.479747 0.411252 0.861362 0.018615
C15   C     C_R   0.552578 0.455601 0.032896 0.047841
C16   C     C_R   0.729339 0.538232 0.989882 0.040232
C17   C     C_R   0.782800 0.528462 0.885679 -0.131737
C18   C     C_R   0.667675 0.436260 0.825989 -0.105296
C19   C     C_R   0.511381 0.452150 0.138232 -0.101318
C20   C     C_R   0.813688 0.607974 0.155287 -0.109908
Cu1   Cu    Cu3+1 0.321300 0.483160 0.488710 0.994059
Cu2   Cu    Cu3+1 0.678700 0.516840 0.511290 0.977585
H1    H     H_    0.913773 0.668223 0.201613 0.154233
H2    H     H_    0.704282 0.039525 0.513272 0.138899
H3    H     H_    0.295491 0.960482 0.487211 0.141657
H4    H     H_    0.010925 0.619650 0.579600 0.246716
H5    H     H_    0.988992 0.380185 0.420508 0.251242
H6    H     H_    0.914074 0.586802 0.849158 0.158885
H7    H     H_    0.983352 0.692547 0.020331 0.176057
H8    H     H_    0.377565 0.397175 0.175063 0.169471
H9    H     H_    0.973497 0.365859 0.960616 0.160055
H10   H     H_    0.727366 0.407298 0.750191 0.166822
I1    I     I_    0.264451 0.738772 0.856730 -0.395307
I2    I     I_    0.093978 0.188820 0.111704 -0.397152
N1    N     N_2   0.947230 0.542220 0.528320 -0.268043
N2    N     N_2   0.052770 0.457780 0.471680 -0.258288
O1    O     O_R   0.383920 0.714220 0.492660 -0.499660
O2    O     O_R   0.685730 0.742660 0.511730 -0.490214
O3    O     O_R   0.275440 0.478800 0.636790 -0.490001
O4    O     O_R   0.577250 0.507240 0.655860 -0.515961
O5    O     O_R   0.314270 0.257340 0.488270 -0.495854
O6    O     O_R   0.616080 0.285780 0.507340 -0.513038
O7    O     O_R   0.422750 0.492760 0.344140 -0.501320
O8    O     O_R   0.724560 0.521200 0.363210 -0.500789

loop_
_geom_bond_atom_site_label_1
_geom_bond_atom_site_label_2
_ccdc_geom_bond_type
C2    C4    S    
C12   C15   A    
C7    O7    A    
H5    N2    S    
C14   C18   A    
C9    C20   A    
N1    N2    D    
Cu1   O3    S    
C4    O3    A    
C1    O1    A    
Cu2   O4    S    
C17   H6    S    
C17   C18   A    
C11   H9    S    
C13   I2    S    
C8    C16   A    
Cu1   N2    S    
C8    C20   A    
C7    O8    A    
C15   C19   A    
Cu2   N1    S    
C11   C13   A    
C3    H2    S    
Cu2   O6    S    
C1    O2    A    
Cu1   O5    S    
C8    H7    S    
Cu1   Cu2   S    
C12   C14   A    
C10   I1    S    
C5    C6    S    
C2    C14   A    
C5    H3    S    
C20   H1    S    
C18   H10   S    
C10   C11   A    
C15   C16   A    
C2    C10   A    
H4    N1    S    
Cu1   O1    S    
C12   C13   A    
C6    O6    A    
C7    C9    S    
C3    C5    D    
Cu1   O7    S    
C19   H8    S    
C9    C19   A    
Cu2   O8    S    
C4    O4    A    
C16   C17   A    
C1    C3    S    
C6    O5    A    
Cu2   O2    S    
