data_mof_unit_19823.cif
_audit_creation_date              2012-12-10T17:01:37-0500
_audit_creation_method            fapswitch 2.2
_symmetry_space_group_name_H-M    P1
_symmetry_Int_Tables_number       1
_space_group_crystal_system       triclinic
_cell_length_a                    9.764636
_cell_length_b                    11.018648
_cell_length_c                    13.002537
_cell_angle_alpha                 89.755026
_cell_angle_beta                  74.745313
_cell_angle_gamma                 107.898518
_cell_volume                      1278.83457926

loop_
_atom_site_label
_atom_site_type_symbol
_atom_type_description
_atom_site_fract_x
_atom_site_fract_y
_atom_site_fract_z
_atom_type_partial_charge
C1    C     C_R   0.444397 0.256293 0.509661 0.935439
C2    C     C_R   0.555063 0.745477 0.490073 0.875031
C3    C     C_2   0.081477 0.503582 0.485746 -0.049770
C4    C     C_2   0.917331 0.483470 0.504054 -0.084431
C5    C     C_R   0.471212 0.491085 0.703234 0.813982
C6    C     C_R   0.528810 0.509525 0.296998 0.828010
C7    C     C_R   0.547910 0.520876 0.181902 -0.167657
C8    C     C_R   0.452508 0.478790 0.818629 -0.161952
C9    C     C_R   0.313891 0.383833 0.000167 0.248101
C10   C     C_R   0.691128 0.609002 0.999780 0.252499
C11   C     C_R   0.321151 0.396183 0.891554 0.216739
C12   C     C_R   0.680672 0.601335 0.109332 0.213364
C13   C     C_R   0.573669 0.547474 0.855095 -0.304293
C14   C     C_R   0.428976 0.448990 0.144989 -0.305678
C15   C     C_R   0.568608 0.536922 0.963082 0.011345
C16   C     C_R   0.436855 0.455222 0.036453 0.004266
C17   C     C_2   0.423572 0.123446 0.529440 -0.419003
C18   C     C_2   0.570792 0.881712 0.475753 -0.461169
C19   C     C_2   0.475320 0.056825 0.452096 0.378003
C20   C     C_2   0.449959 0.920483 0.481174 0.338597
Cu1   Cu    Cu3+1 0.647370 0.522180 0.481340 0.941113
Cu2   Cu    Cu3+1 0.352630 0.477820 0.518660 0.950971
H1    H     H_    0.329166 0.388752 0.202852 0.183957
H2    H     H_    0.671410 0.611269 0.797772 0.179976
H3    H     H_    0.682321 0.951550 0.457257 0.136327
H4    H     H_    0.370944 0.082487 0.611450 0.053038
H5    H     H_    0.836772 0.408334 0.563583 0.165354
H6    H     H_    0.161410 0.573005 0.421465 0.186356
H7    H     H_    0.947406 0.626209 0.397046 0.192944
H8    H     H_    0.053071 0.380060 0.607956 0.185264
N1    N     N_2   0.131210 0.444490 0.546730 -0.294974
N2    N     N_2   0.868790 0.555510 0.453270 -0.294912
O1    O     O_R   0.578710 0.332530 0.490040 -0.552832
O2    O     O_R   0.421290 0.667470 0.509960 -0.508373
O3    O     O_R   0.329810 0.295070 0.521560 -0.586425
O4    O     O_R   0.670190 0.704930 0.478440 -0.592164
O5    O     O_R   0.604230 0.515670 0.637800 -0.585932
O6    O     O_R   0.395770 0.484330 0.362200 -0.586743
O7    O     O_R   0.355330 0.478200 0.669330 -0.589540
O8    O     O_R   0.644670 0.521800 0.330670 -0.570067
N3    N     N_2   0.801215 0.681802 0.145027 -0.406486
H9    H     H_    0.770912 0.720927 0.215964 0.247802
C21   C     C_3   0.926320 0.634186 0.135128 -0.624505
H10   H     H_    0.890716 0.542884 0.186247 0.233157
H11   H     H_    0.016121 0.705631 0.160845 0.206936
H12   H     H_    0.973123 0.618086 0.050715 0.235206
N4    N     N_2   0.196322 0.320468 0.858024 -0.404105
H13   H     H_    0.151678 0.369253 0.815131 0.263650
C22   C     C_3   0.208873 0.200905 0.818377 -0.654807
H14   H     H_    0.104442 0.146679 0.798227 0.213704
H15   H     H_    0.225425 0.141644 0.880523 0.234570
H16   H     H_    0.304644 0.219407 0.745517 0.202001
N5    N     N_2   0.182231 0.296617 0.071003 -0.410513
H17   H     H_    0.200392 0.237851 0.124293 0.241314
C23   C     C_3   0.065974 0.351692 0.117939 -0.671388
H18   H     H_    0.966494 0.276113 0.168559 0.235485
H19   H     H_    0.031861 0.392481 0.054185 0.236717
H20   H     H_    0.105838 0.428069 0.168736 0.214040
N6    N     N_2   0.825934 0.691054 0.928356 -0.421266
H21   H     H_    0.868020 0.652134 0.860077 0.236056
C24   C     C_3   0.828932 0.821717 0.910950 -0.677460
H22   H     H_    0.942349 0.880471 0.862327 0.218574
H23   H     H_    0.803547 0.863575 0.988546 0.250261
H24   H     H_    0.745942 0.825324 0.867703 0.210885
O9    O     O_3   0.306027 0.832518 0.498287 -0.564566
C25   C     C_3   0.204655 0.858678 0.588414 0.059055
H25   H     H_    0.172927 0.942292 0.567701 0.152811
H26   H     H_    0.251590 0.873283 0.658536 0.142050
C26   C     C_3   0.060013 0.747903 0.622151 -0.783510
H27   H     H_    0.081112 0.660927 0.648107 0.254768
H28   H     H_    0.980223 0.772672 0.689839 0.192967
H29   H     H_    0.009120 0.731333 0.554846 0.257114
O10   O     O_3   0.556199 0.118932 0.350467 -0.576701
C27   C     C_3   0.533791 0.036560 0.269228 0.074585
H30   H     H_    0.412915 0.981190 0.282593 0.153316
H31   H     H_    0.599688 0.969508 0.265045 0.145790
C28   C     C_3   0.587470 0.116531 0.162025 -0.790775
H32   H     H_    0.571020 0.052915 0.097259 0.197692
H33   H     H_    0.522966 0.184182 0.163554 0.248633
H34   H     H_    0.708326 0.171896 0.144908 0.252184

loop_
_geom_bond_atom_site_label_1
_geom_bond_atom_site_label_2
_ccdc_geom_bond_type
C25   H26   S    
C23   H18   S    
C8    C13   A    
C5    O5    A    
C26   H29   S    
O10   C27   S    
C11   N4    S    
C19   C20   S    
C1    O1    A    
N4    C22   S    
Cu1   O4    S    
C28   H32   S    
Cu2   O3    S    
C27   H31   S    
C17   H4    S    
C3    H6    S    
C9    C16   A    
H7    N2    S    
C10   C15   A    
H8    N1    S    
C25   C26   S    
Cu1   O1    S    
C15   C16   A    
Cu2   O6    S    
C26   H28   S    
N3    H9    S    
C24   H23   S    
C7    C14   A    
C22   H15   S    
C27   C28   S    
C6    O6    A    
C2    O2    A    
C28   H33   S    
C25   H25   S    
N6    H21   S    
Cu1   Cu2   S    
N3    C21   S    
C24   H22   S    
C18   H3    S    
N5    C23   S    
C7    C12   A    
Cu2   O2    S    
Cu1   N2    S    
N6    C24   S    
Cu2   N1    S    
C20   O9    S    
C19   O10   S    
C6    O8    A    
C27   H30   S    
N5    H17   S    
C13   H2    S    
C14   H1    S    
C24   H24   S    
C21   H10   S    
C12   N3    S    
C21   H11   S    
N4    H13   S    
C22   H16   S    
C3    N1    D    
C9    C11   A    
C4    N2    D    
C10   C12   A    
O9    C25   S    
C23   H19   S    
C14   C16   A    
C9    N5    S    
C3    C4    S    
C4    H5    S    
C1    O3    A    
C28   H34   S    
C2    O4    A    
C5    O7    A    
C2    C18   S    
C5    C8    S    
C6    C7    S    
C1    C17   S    
C13   C15   A    
C10   N6    S    
Cu1   O8    S    
C8    C11   A    
Cu2   O7    S    
C17   C19   D    
C18   C20   D    
C26   H27   S    
C21   H12   S    
Cu1   O5    S    
C22   H14   S    
C23   H20   S    
