data_mof_unit_5882.cif
_audit_creation_date              2012-12-11T15:50:27-0500
_audit_creation_method            fapswitch 2.2
_symmetry_space_group_name_H-M    P1
_symmetry_Int_Tables_number       1
_space_group_crystal_system       triclinic
_cell_length_a                    19.033163
_cell_length_b                    10.974856
_cell_length_c                    18.808685
_cell_angle_alpha                 89.870216
_cell_angle_beta                  91.453236
_cell_angle_gamma                 89.727335
_cell_volume                      3927.55581753

loop_
_atom_site_label
_atom_site_type_symbol
_atom_type_description
_atom_site_fract_x
_atom_site_fract_y
_atom_site_fract_z
_atom_type_partial_charge
C1    C     C_R   0.275536 0.037300 0.855757 0.558934
C2    C     C_R   0.710845 0.001625 0.138776 0.551873
C3    C     C_R   0.775160 0.538122 0.855450 0.559232
C4    C     C_R   0.225245 0.539347 0.144893 0.558027
C5    C     C_3   0.545339 0.727207 0.962040 -0.131601
C6    C     C_3   0.495206 0.717863 0.024969 -0.113563
C7    C     C_3   0.050361 0.233753 0.960791 -0.133145
C8    C     C_3   0.000378 0.219850 0.023556 -0.126140
C9    C     C_R   0.238305 0.578209 0.072324 0.021054
C10   C     C_R   0.762252 0.576028 0.928217 0.025571
C11   C     C_R   0.721028 0.025018 0.062885 0.007408
C12   C     C_R   0.263495 0.073568 0.928984 0.021538
C13   C     C_R   0.302966 0.556837 0.040712 -0.035519
C14   C     C_R   0.698959 0.548782 0.960752 -0.049052
C15   C     C_R   0.777945 0.972763 0.027508 -0.014974
C16   C     C_R   0.199168 0.052042 0.960684 -0.051204
C17   C     C_R   0.310325 0.568786 0.967787 -0.010036
C18   C     C_R   0.691582 0.562225 0.033592 -0.015498
C19   C     C_R   0.789065 0.997245 0.956043 0.018601
C20   C     C_R   0.191495 0.065696 0.033461 -0.012884
C21   C     C_R   0.187777 0.619823 0.954973 -0.155294
C22   C     C_R   0.812224 0.624792 0.044703 -0.131805
C23   C     C_R   0.679184 0.104596 0.948778 -0.156392
C24   C     C_R   0.314042 0.115064 0.046372 -0.145381
C25   C     C_R   0.181099 0.619821 0.027982 0.108474
C26   C     C_R   0.818612 0.622068 0.971785 0.129778
C27   C     C_R   0.669292 0.088110 0.021082 0.104871
C28   C     C_R   0.320915 0.113297 0.973354 0.115265
C29   C     C_3   0.350176 0.448269 0.044882 -0.238705
C30   C     C_3   0.657672 0.433792 0.959031 -0.240694
C31   C     C_3   0.854854 0.980260 0.045128 -0.250702
C32   C     C_3   0.154681 0.940905 0.958098 -0.239631
C33   C     C_3   0.358521 0.461672 0.965305 -0.233536
C34   C     C_3   0.648831 0.449471 0.038268 -0.226050
C35   C     C_3   0.866446 0.006870 0.967001 -0.253601
C36   C     C_3   0.145803 0.956590 0.037317 -0.224728
C37   C     C_R   0.251808 0.592910 0.923604 -0.019786
C38   C     C_R   0.749237 0.593744 0.076796 -0.015413
C39   C     C_R   0.742383 0.071137 0.916857 -0.017247
C40   C     C_R   0.249571 0.091171 0.077463 -0.016872
C41   C     C_R   0.505759 0.836618 0.424570 0.013135
C42   C     C_R   0.484163 0.827091 0.571594 0.045053
C43   C     C_R   0.003421 0.336593 0.423640 0.009765
C44   C     C_R   0.983279 0.327562 0.571083 0.036515
C45   C     C_R   0.470756 0.820799 0.855056 0.547947
C46   C     C_R   0.559537 0.816777 0.137471 0.544886
C47   C     C_R   0.971553 0.321433 0.854757 0.544616
C48   C     C_R   0.060632 0.317116 0.137647 0.559803
C49   C     C_R   0.467543 0.743471 0.454099 0.019313
C50   C     C_R   0.453525 0.741137 0.525097 0.009797
C51   C     C_R   0.968577 0.240340 0.454294 0.019759
C52   C     C_R   0.955254 0.237960 0.525370 0.010795
C53   C     C_R   0.518587 0.927243 0.542440 -0.173379
C54   C     C_R   0.528691 0.932577 0.469010 -0.171710
C55   C     C_R   0.012784 0.431618 0.540612 -0.182277
C56   C     C_R   0.021825 0.436786 0.466952 -0.172736
C57   C     C_3   0.473454 0.608725 0.448306 0.047037
C58   C     C_3   0.448374 0.604064 0.524168 0.042660
C59   C     C_3   0.977049 0.105884 0.449029 0.045649
C60   C     C_3   0.953173 0.100706 0.525384 0.039298
C61   C     C_R   0.244371 0.570728 0.427213 0.057988
C62   C     C_R   0.752046 0.602526 0.579818 0.021353
C63   C     C_R   0.746298 0.074850 0.426156 0.053346
C64   C     C_R   0.264029 0.067309 0.570299 0.018748
C65   C     C_R   0.220370 0.679123 0.455854 0.011760
C66   C     C_R   0.803036 0.665865 0.542260 0.011340
C67   C     C_R   0.720151 0.181070 0.455526 0.009417
C68   C     C_R   0.324164 0.071028 0.528984 0.033233
C69   C     C_R   0.220149 0.691249 0.528094 0.032805
C70   C     C_R   0.799827 0.667628 0.470088 0.011758
C71   C     C_R   0.719449 0.191676 0.527798 0.031496
C72   C     C_R   0.319205 0.075598 0.456201 0.013174
C73   C     C_R   0.273278 0.492533 0.545536 -0.186711
C74   C     C_R   0.687057 0.571669 0.469858 -0.158215
C75   C     C_R   0.777385 0.997200 0.544172 -0.187082
C76   C     C_R   0.193513 0.053733 0.463593 -0.164038
C77   C     C_R   0.271206 0.477279 0.472277 -0.135757
C78   C     C_R   0.690291 0.568637 0.544044 -0.155543
C79   C     C_R   0.776968 0.984388 0.470747 -0.136672
C80   C     C_R   0.199014 0.052816 0.537089 -0.172945
C81   C     C_3   0.149750 0.739288 0.446958 -0.264141
C82   C     C_3   0.882016 0.658290 0.541881 -0.258450
C83   C     C_3   0.649496 0.240820 0.446392 -0.264595
C84   C     C_3   0.384693 0.157101 0.532371 -0.248020
C85   C     C_3   0.147886 0.745266 0.526847 -0.241406
C86   C     C_3   0.877129 0.660807 0.461524 -0.272115
C87   C     C_3   0.647168 0.245265 0.526386 -0.242859
C88   C     C_3   0.381504 0.158469 0.451917 -0.259046
C89   C     C_R   0.261099 0.636160 0.851499 0.538462
C90   C     C_R   0.739121 0.636551 0.148651 0.534430
C91   C     C_R   0.760173 0.134360 0.850950 0.536340
C92   C     C_R   0.239237 0.136055 0.148856 0.535343
C93   C     C_R   0.246667 0.599843 0.573241 0.019497
C94   C     C_R   0.745263 0.612529 0.432149 0.020664
C95   C     C_R   0.747052 0.100752 0.572687 0.018769
C96   C     C_R   0.252798 0.077381 0.422866 0.019744
C97   C     C_R   0.273255 0.042911 0.644601 0.547416
C98   C     C_R   0.727797 0.042710 0.354815 0.581407
C99   C     C_R   0.771389 0.547994 0.646998 0.547551
C100  C     C_R   0.227225 0.541344 0.355306 0.579515
C101  C     C_R   0.467378 0.822507 0.645893 0.558402
C102  C     C_R   0.532756 0.823955 0.354021 0.573306
C103  C     C_R   0.967076 0.322581 0.645651 0.558852
C104  C     C_R   0.032001 0.324028 0.353644 0.571389
C105  C     C_R   0.258570 0.634954 0.645186 0.542407
C106  C     C_R   0.739287 0.640209 0.357671 0.543619
C107  C     C_R   0.758694 0.135412 0.644884 0.543479
C108  C     C_R   0.240866 0.134694 0.355046 0.544178
C109  C     C_3   0.486922 0.917196 0.028432 -0.046806
C110  C     C_3   0.537152 0.926558 0.964999 -0.065916
C111  C     C_3   0.988284 0.418650 0.028590 -0.044935
C112  C     C_3   0.038113 0.432379 0.965135 -0.064899
C113  C     C_3   0.446124 0.814347 0.990256 -0.110738
C114  C     C_3   0.586600 0.829823 0.000052 -0.144931
C115  C     C_3   0.949491 0.314441 0.989766 -0.124055
C116  C     C_3   0.089555 0.338145 0.999803 -0.137190
C117  C     C_3   0.496972 0.824244 0.928406 0.045021
C118  C     C_3   0.536052 0.821196 0.062294 0.044526
C119  C     C_3   0.999832 0.327893 0.927722 0.041914
C120  C     C_3   0.039032 0.324228 0.061860 0.049420
Cr1   Cr    Cr6+3 0.229640 0.835880 0.747370 1.044207
Cr2   Cr    Cr6+3 0.770360 0.835880 0.252630 1.062253
Cr3   Cr    Cr6+3 0.729640 0.335880 0.747370 1.039995
Cr4   Cr    Cr6+3 0.270360 0.335880 0.252630 1.058203
Cr5   Cr    Cr6+3 0.387390 0.989720 0.750850 1.066369
Cr6   Cr    Cr6+3 0.612610 0.989720 0.249150 1.058876
Cr7   Cr    Cr6+3 0.887390 0.489720 0.750850 1.062602
Cr8   Cr    Cr6+3 0.112610 0.489720 0.249150 1.062407
Cr9   Cr    Cr6+3 0.385770 0.677220 0.749340 1.068895
Cr10  Cr    Cr6+3 0.614230 0.677220 0.250660 1.046580
Cr11  Cr    Cr6+3 0.885770 0.177220 0.749340 1.067652
Cr12  Cr    Cr6+3 0.114230 0.177220 0.250660 1.049462
H1    H     H_    0.388019 0.808616 0.984473 0.124273
H2    H     H_    0.644720 0.832388 0.004814 0.113443
H3    H     H_    0.891388 0.307631 0.984613 0.110536
H4    H     H_    0.147499 0.347506 0.005424 0.115236
H5    H     H_    0.539514 0.998496 0.576465 0.118376
H6    H     H_    0.559413 0.005966 0.448150 0.131851
H7    H     H_    0.030173 0.506872 0.573654 0.125112
H8    H     H_    0.048243 0.514239 0.445044 0.136079
H9    H     H_    0.032308 0.078654 0.443496 0.162376
H10   H     H_    0.899210 0.068339 0.529769 0.175411
H11   H     H_    0.528462 0.578385 0.443212 0.165257
H12   H     H_    0.393420 0.575682 0.527512 0.176463
H13   H     H_    0.295324 0.422256 0.580000 0.131567
H14   H     H_    0.640616 0.539392 0.442184 0.136500
H15   H     H_    0.802119 0.928653 0.578066 0.140867
H16   H     H_    0.142073 0.048561 0.439142 0.144011
H17   H     H_    0.287011 0.390342 0.451153 0.155374
H18   H     H_    0.648226 0.530228 0.573285 0.183811
H19   H     H_    0.798001 0.901720 0.448833 0.177222
H20   H     H_    0.153066 0.043966 0.568405 0.186029
H21   H     H_    0.107684 0.681223 0.424129 0.159187
H22   H     H_    0.902608 0.570443 0.562696 0.177156
H23   H     H_    0.607507 0.183219 0.422900 0.160489
H24   H     H_    0.433104 0.115088 0.555207 0.162390
H25   H     H_    0.153492 0.829481 0.420796 0.153029
H26   H     H_    0.907319 0.740791 0.565010 0.170855
H27   H     H_    0.653545 0.331697 0.421041 0.147186
H28   H     H_    0.370652 0.246188 0.556275 0.154934
H29   H     H_    0.108456 0.683011 0.549806 0.142912
H30   H     H_    0.893973 0.574324 0.436304 0.151432
H31   H     H_    0.607642 0.182699 0.548854 0.142343
H32   H     H_    0.427155 0.112295 0.427851 0.150749
H33   H     H_    0.462741 0.993147 0.058089 0.187443
H34   H     H_    0.550568 0.009772 0.935189 0.179744
H35   H     H_    0.962608 0.493463 0.058005 0.181952
H36   H     H_    0.050874 0.517657 0.936973 0.176113
H37   H     H_    0.567699 0.650455 0.931840 0.134441
H38   H     H_    0.478287 0.631809 0.050164 0.133820
H39   H     H_    0.073936 0.160024 0.929251 0.134703
H40   H     H_    0.985667 0.131918 0.048068 0.135114
H41   H     H_    0.142901 0.648627 0.922515 0.170221
H42   H     H_    0.856978 0.655629 0.076459 0.175413
H43   H     H_    0.639516 0.156547 0.919463 0.176255
H44   H     H_    0.359193 0.141592 0.078940 0.176699
H45   H     H_    0.877103 0.891090 0.062771 0.183955
H46   H     H_    0.185701 0.859157 0.944402 0.176513
H47   H     H_    0.321820 0.364329 0.059734 0.174276
H48   H     H_    0.690787 0.354030 0.945803 0.171184
H49   H     H_    0.399285 0.466018 0.076215 0.157478
H50   H     H_    0.607638 0.442328 0.927677 0.156823
H51   H     H_    0.867910 0.058280 0.080607 0.151105
H52   H     H_    0.105143 0.953669 0.926442 0.155655
H53   H     H_    0.412532 0.487888 0.950312 0.168464
H54   H     H_    0.593750 0.469503 0.052930 0.172031
H55   H     H_    0.885638 0.099850 0.956365 0.145059
H56   H     H_    0.091223 0.980493 0.051871 0.170320
H57   H     H_    0.334934 0.386040 0.933819 0.183431
H58   H     H_    0.675891 0.377963 0.070915 0.187224
H59   H     H_    0.895307 0.933984 0.939247 0.203708
H60   H     H_    0.171263 0.883762 0.070120 0.186319
O1    O     O_R   0.214300 0.709080 0.827500 -0.531811
O2    O     O_R   0.785700 0.709080 0.172500 -0.527119
O3    O     O_R   0.714300 0.209080 0.827500 -0.533401
O4    O     O_R   0.285700 0.209080 0.172500 -0.527493
O5    O     O_R   0.445900 0.919370 0.676500 -0.518501
O6    O     O_R   0.554100 0.919370 0.323500 -0.512790
O7    O     O_R   0.945900 0.419370 0.676500 -0.524127
O8    O     O_R   0.054100 0.419370 0.323500 -0.512991
O9    O     O_R   0.456660 0.717710 0.669820 -0.461372
O10   O     O_R   0.543340 0.717710 0.330180 -0.483605
O11   O     O_R   0.956660 0.217710 0.669820 -0.459376
O12   O     O_R   0.043340 0.217710 0.330180 -0.483786
O13   O     O_R   0.320590 0.625770 0.672930 -0.493243
O14   O     O_R   0.679410 0.625770 0.327070 -0.511073
O15   O     O_R   0.820590 0.125770 0.672930 -0.494488
O16   O     O_R   0.179410 0.125770 0.327070 -0.513304
O17   O     O_3   0.334270 0.834280 0.749190 -0.276683
O18   O     O_3   0.665730 0.834280 0.250810 -0.313175
O19   O     O_3   0.834270 0.334280 0.749190 -0.274044
O20   O     O_3   0.165730 0.334280 0.250810 -0.298288
O21   O     O_R   0.236190 0.958390 0.823150 -0.509907
O22   O     O_R   0.763810 0.958390 0.176850 -0.492229
O23   O     O_R   0.736190 0.458390 0.823150 -0.511575
O24   O     O_R   0.263810 0.458390 0.176850 -0.502678
O25   O     O_R   0.332090 0.075280 0.831290 -0.459053
O26   O     O_R   0.667910 0.075280 0.168710 -0.454140
O27   O     O_R   0.832090 0.575280 0.831290 -0.455972
O28   O     O_R   0.167910 0.575280 0.168710 -0.463705
O29   O     O_R   0.446280 0.918040 0.826620 -0.477037
O30   O     O_R   0.553720 0.918040 0.173380 -0.482256
O31   O     O_R   0.946280 0.418040 0.826620 -0.477422
O32   O     O_R   0.053720 0.418040 0.173380 -0.474131
O33   O     O_R   0.457080 0.716270 0.831760 -0.519448
O34   O     O_R   0.542920 0.716270 0.168240 -0.504648
O35   O     O_R   0.957080 0.216270 0.831760 -0.520707
O36   O     O_R   0.042920 0.216270 0.168240 -0.508414
O37   O     O_R   0.320980 0.624440 0.823040 -0.494156
O38   O     O_R   0.679020 0.624440 0.176960 -0.508986
O39   O     O_R   0.820980 0.124440 0.823040 -0.495282
O40   O     O_R   0.179020 0.124440 0.176960 -0.508695
O41   O     O_R   0.213880 0.710510 0.665560 -0.514730
O42   O     O_R   0.786120 0.710510 0.334440 -0.506854
O43   O     O_R   0.713880 0.210510 0.665560 -0.514339
O44   O     O_R   0.286120 0.210510 0.334440 -0.517316
O45   O     O_R   0.235800 0.959720 0.673040 -0.492054
O46   O     O_R   0.764200 0.959720 0.326960 -0.464276
O47   O     O_R   0.735800 0.459720 0.673040 -0.496784
O48   O     O_R   0.264200 0.459720 0.326960 -0.464377
O49   O     O_R   0.331670 0.076720 0.669350 -0.518441
O50   O     O_R   0.668330 0.076720 0.330650 -0.534161
O51   O     O_R   0.831670 0.576720 0.669350 -0.523465
O52   O     O_R   0.168330 0.576720 0.330650 -0.536916
Br1   Br    Br    0.412009 0.541249 0.375818 -0.530364
Br2   Br    Br    0.509527 0.509322 0.587169 -0.586437
Br3   Br    Br    0.916445 0.033932 0.377162 -0.535752
Br4   Br    Br    0.016937 0.012175 0.588804 -0.595851
H61   H     H_    0.146372 0.838357 0.548331 0.188515
H62   H     H_    0.898791 0.745417 0.438227 0.185323
H63   H     H_    0.645895 0.337970 0.548128 0.178723
H64   H     H_    0.370383 0.250545 0.430221 0.188184
Br5   Br    Br    0.089358 0.672915 0.058732 -0.551529
Br6   Br    Br    0.909615 0.675663 0.940872 -0.543293
Br7   Br    Br    0.585898 0.166153 0.056869 -0.546079
Br8   Br    Br    0.412844 0.162716 0.942720 -0.544144

loop_
_geom_bond_atom_site_label_1
_geom_bond_atom_site_label_2
_ccdc_geom_bond_type
Cr11  O15   S    
C86   H62   S    
C83   C87   S    
C55   C56   A    
C108  O44   A    
C67   C83   S    
C4    O24   A    
C21   H41   S    
C7    H39   S    
C5    C114  S    
C85   H29   S    
C14   C18   A    
C87   H31   S    
C111  C112  S    
Cr12  O20   S    
C73   C93   A    
C108  O16   A    
Cr2   O46   S    
C32   H46   S    
Cr8   O32   S    
C15   C31   S    
C84   H28   S    
C18   C38   A    
C9    C25   A    
C7    C8    S    
C48   C120  S    
C63   C79   A    
C53   C54   A    
C23   H43   S    
C85   H61   S    
Cr7   O31   S    
Cr1   O21   S    
C78   H18   S    
C55   H7    S    
C29   H49   S    
C31   H45   S    
C53   H5    S    
C64   C68   A    
C13   C29   S    
C16   C20   A    
C70   C94   A    
Cr2   O2    S    
C63   C98   S    
Cr3   O23   S    
C102  O6    A    
C42   C53   A    
Cr4   O24   S    
C5    C6    S    
Cr4   O48   S    
C72   C96   A    
Cr1   O45   S    
C67   C71   A    
C83   H23   S    
C75   C95   A    
C92   O40   A    
C115  H3    S    
C3    O23   A    
C112  H36   S    
Cr9   O37   S    
C49   C57   S    
C41   C102  S    
C46   C118  S    
C21   C37   A    
C33   H57   S    
C39   C91   S    
C34   H54   S    
C9    C13   A    
C43   C104  S    
C109  H33   S    
C21   C25   A    
C83   H27   S    
C52   C60   S    
C8    C115  S    
C93   C105  S    
C30   H48   S    
C15   C19   A    
C11   C15   A    
C41   C49   A    
C12   C16   A    
C29   C33   S    
C61   C77   A    
C4    O28   A    
Cr3   O19   S    
Cr6   O50   S    
C35   H59   S    
C76   C80   A    
Cr2   O18   S    
Cr5   O49   S    
C86   H30   S    
C23   C27   A    
C74   C78   A    
Cr11  O11   S    
Cr8   O28   S    
C45   C117  S    
C107  O15   A    
Cr10  O10   S    
C109  C113  S    
C88   H64   S    
C104  O8    A    
C60   H10   S    
C81   C85   S    
Cr6   O6    S    
C47   C119  S    
C96   C108  S    
Cr5   O5    S    
C59   C60   S    
C113  H1    S    
C95   C107  S    
C64   C80   A    
Cr3   O3    S    
C1    C12   S    
C17   C33   S    
C14   C30   S    
C2    C11   S    
Cr12  O40   S    
C110  C117  S    
Cr1   O1    S    
C22   H42   S    
C44   C103  S    
C62   C78   A    
C109  C118  S    
C1    O21   A    
Cr3   O47   S    
C46   O34   A    
C63   C67   A    
Cr12  O12   S    
C81   H25   S    
C30   C34   S    
Cr7   O27   S    
C51   C52   A    
C68   C84   S    
C84   H24   S    
C7    C119  S    
C34   H58   S    
C62   C66   A    
Cr7   O51   S    
C57   Br1   S    
C33   H53   S    
C26   Br6   S    
C77   H17   S    
C101  O9    A    
Cr5   O17   S    
C19   C35   S    
C45   O33   A    
C48   O32   A    
C75   H15   S    
C82   C86   S    
C30   H50   S    
C116  C120  S    
C76   H16   S    
C91   O39   A    
C111  C120  S    
C36   H56   S    
C20   C36   S    
C7    C116  S    
C87   H63   S    
Cr8   O8    S    
C6    C113  S    
C73   H13   S    
Cr10  O14   S    
Cr4   O44   S    
C61   C65   A    
Cr1   O41   S    
C66   C82   S    
Cr9   O13   S    
C65   C81   S    
C97   O45   A    
C90   O2    A    
C56   H8    S    
C11   C27   A    
C68   C72   A    
Cr9   O9    S    
C89   O1    A    
Cr4   O4    S    
Cr6   O30   S    
C114  H2    S    
C50   C58   S    
C47   O35   A    
Cr10  O38   S    
C103  O7    A    
C27   Br7   S    
C40   C92   S    
C105  O13   A    
C18   C34   S    
Cr9   O33   S    
Cr10  O34   S    
C114  C118  S    
C22   C26   A    
C19   C39   A    
C42   C50   A    
C70   C86   S    
Cr3   O43   S    
Cr7   O19   S    
C64   C97   S    
Cr2   O42   S    
C12   C28   A    
C98   O46   A    
Cr12  O16   S    
Cr1   O17   S    
Cr6   O18   S    
Cr8   O52   S    
Cr6   O26   S    
C71   C87   S    
Cr10  O18   S    
C61   C100  S    
C51   C59   S    
C17   C37   A    
Cr9   O17   S    
C24   H44   S    
C42   C101  S    
C104  O12   A    
C110  C114  S    
C112  C116  S    
C69   C85   S    
C81   H21   S    
C8    C120  S    
C24   C28   A    
C79   H19   S    
C6    H38   S    
C113  C117  S    
Cr11  O39   S    
C80   H20   S    
C48   O36   A    
C107  O43   A    
C94   C106  S    
C25   Br5   S    
C106  O42   A    
C31   H51   S    
C36   H60   S    
C105  O41   A    
C20   C40   A    
C74   H14   S    
C28   Br8   S    
C82   H26   S    
C92   O4    A    
C100  O52   A    
C44   C52   A    
C106  O14   A    
C112  C119  S    
C1    O25   A    
C32   C36   S    
C2    O22   A    
C116  H4    S    
Cr5   O29   S    
C16   C32   S    
Cr4   O20   S    
C91   O3    A    
C38   C90   S    
C69   C93   A    
C46   O30   A    
C37   C89   S    
C72   C88   S    
C45   O29   A    
Cr7   O7    S    
Cr12  O36   S    
C102  O10   A    
C99   O47   A    
C89   O37   A    
C3    C10   S    
C88   H32   S    
C109  C110  S    
Cr8   O20   S    
Cr11  O19   S    
C62   C99   S    
C110  H34   S    
C44   C55   A    
C10   C26   A    
C57   C58   S    
C54   H6    S    
C84   C88   S    
C29   H47   S    
C43   C51   A    
C65   C69   A    
C31   C35   S    
C115  C119  S    
C24   C40   A    
C6    C118  S    
C100  O48   A    
C101  O5    A    
C99   O51   A    
C59   H9    S    
C103  O11   A    
C41   C54   A    
C98   O50   A    
Cr5   O25   S    
C111  H35   S    
C97   O49   A    
C13   C17   A    
C82   H22   S    
C58   H12   S    
C43   C56   A    
C58   Br2   S    
C71   C95   A    
C66   C70   A    
C47   O31   A    
C73   C77   A    
C3    O27   A    
C49   C50   A    
Cr2   O22   S    
C5    C117  S    
C74   C94   A    
C2    O26   A    
C5    H37   S    
C90   O38   A    
C111  C115  S    
C60   Br4   S    
Cr11  O35   S    
C32   H52   S    
C4    C9    S    
C75   C79   A    
C23   C39   A    
C76   C96   A    
C35   H55   S    
C8    H40   S    
C57   H11   S    
C10   C14   A    
C59   Br3   S    
C22   C38   A    
