data_mof_unit_5526.cif
_audit_creation_date              2012-12-10T18:36:29-0500
_audit_creation_method            fapswitch 2.2
_symmetry_space_group_name_H-M    P1
_symmetry_Int_Tables_number       1
_space_group_crystal_system       triclinic
_cell_length_a                    13.811196
_cell_length_b                    15.10881
_cell_length_c                    15.816876
_cell_angle_alpha                 89.927694
_cell_angle_beta                  69.020432
_cell_angle_gamma                 89.965356
_cell_volume                      3081.71918708

loop_
_atom_site_label
_atom_site_type_symbol
_atom_type_description
_atom_site_fract_x
_atom_site_fract_y
_atom_site_fract_z
_atom_type_partial_charge
C1    C     C_R   0.499966 0.670115 0.499996 0.820179
C2    C     C_R   0.500040 0.329831 0.499985 0.830271
C3    C     C_R   0.381284 0.462635 0.096243 -0.272842
C4    C     C_R   0.621647 0.512665 0.901681 -0.263781
C5    C     C_R   0.305262 0.465837 0.057228 0.267944
C6    C     C_R   0.697941 0.510038 0.940323 0.237038
C7    C     C_R   0.407331 0.905040 0.544203 0.260977
C8    C     C_R   0.559482 0.094600 0.541219 0.258526
C9    C     C_R   0.407970 0.812625 0.543248 -0.252949
C10   C     C_R   0.559630 0.187026 0.540255 -0.248148
C11   C     C_R   0.500036 0.766403 0.499460 -0.109855
C12   C     C_R   0.500403 0.233436 0.499407 -0.114923
C13   C     C_R   0.591762 0.812236 0.453655 -0.219531
C14   C     C_R   0.443033 0.187654 0.456525 -0.214626
C15   C     C_R   0.592066 0.904191 0.450826 0.297183
C16   C     C_R   0.444831 0.095698 0.453734 0.295474
C17   C     C_R   0.500323 0.951315 0.497513 0.048253
C18   C     C_R   0.501486 0.048452 0.497515 0.047794
C19   C     C_R   0.874702 0.430535 0.542911 0.164136
C20   C     C_R   0.087546 0.565045 0.549327 0.165767
C21   C     C_R   0.773221 0.432769 0.541643 0.040482
C22   C     C_R   0.190458 0.563481 0.547102 0.056659
C23   C     C_R   0.436479 0.500714 0.673252 0.831932
C24   C     C_R   0.563694 0.500377 0.326657 0.836197
C25   C     C_R   0.808003 0.567044 0.459612 0.084873
C26   C     C_R   0.227952 0.437234 0.452940 0.075022
C27   C     C_R   0.909879 0.567875 0.459618 -0.275936
C28   C     C_R   0.126094 0.436348 0.452865 -0.273612
C29   C     C_R   0.944935 0.499267 0.501569 0.094168
C30   C     C_R   0.053838 0.500424 0.501621 0.097156
C31   C     C_R   0.396882 0.500398 0.773665 -0.140451
C32   C     C_R   0.604297 0.498742 0.226062 -0.124063
C33   C     C_R   0.258633 0.501122 0.922434 0.194797
C34   C     C_R   0.743873 0.494998 0.077716 0.208491
C35   C     C_R   0.291023 0.510092 0.827423 0.202836
C36   C     C_R   0.711293 0.499784 0.173286 0.183948
C37   C     C_R   0.469190 0.490672 0.815970 -0.293291
C38   C     C_R   0.532266 0.493212 0.182965 -0.290780
C39   C     C_R   0.440441 0.491046 0.910402 0.012015
C40   C     C_R   0.561956 0.489030 0.088406 0.014190
C41   C     C_R   0.333270 0.486214 0.964206 0.029463
C42   C     C_R   0.669127 0.496478 0.034767 0.034447
C43   C     C_R   0.516660 0.493806 0.951859 0.054029
C44   C     C_R   0.486327 0.482138 0.046445 0.058953
Cu1   Cu    Cu3+1 0.403570 0.500010 0.500000 0.958449
Cu2   Cu    Cu3+1 0.596430 0.499990 0.500000 0.958174
H1    H     H_    0.719506 0.380523 0.574737 0.149077
H2    H     H_    0.216043 0.613398 0.583207 0.145088
H3    H     H_    0.782391 0.620545 0.427304 0.132447
H4    H     H_    0.282557 0.387530 0.414938 0.132891
H5    H     H_    0.961230 0.621836 0.426831 0.173503
H6    H     H_    0.103829 0.385936 0.414720 0.173317
H7    H     H_    0.451610 0.496598 0.225133 0.176428
H8    H     H_    0.548806 0.479509 0.773508 0.180307
H9    H     H_    0.355593 0.441450 0.165932 0.143716
H10   H     H_    0.646729 0.533564 0.831990 0.160703
H11   H     H_    0.336819 0.776822 0.578311 0.152183
H12   H     H_    0.604557 0.222666 0.573028 0.158348
H13   H     H_    0.662587 0.776423 0.417739 0.168983
H14   H     H_    0.399149 0.223490 0.422848 0.175528
N1    N     N_R   0.741310 0.499980 0.500000 -0.187007
N2    N     N_R   0.258690 0.500020 0.500000 -0.188507
O1    O     O_R   0.418570 0.628550 0.499990 -0.586672
O2    O     O_R   0.581430 0.371450 0.500010 -0.587162
O3    O     O_R   0.581440 0.628540 0.499990 -0.590295
O4    O     O_R   0.418560 0.371460 0.500010 -0.585499
O5    O     O_R   0.372890 0.500010 0.629830 -0.544440
O6    O     O_R   0.627110 0.499990 0.370170 -0.540209
O7    O     O_R   0.535760 0.500000 0.629840 -0.592008
O8    O     O_R   0.464240 0.500000 0.370160 -0.596615
N3    N     N_2   0.202098 0.441783 0.111640 -0.432616
H15   H     H_    0.179464 0.464125 0.177522 0.249705
C45   C     C_3   0.179483 0.348779 0.107334 -0.694772
H16   H     H_    0.095989 0.336692 0.146145 0.232199
H17   H     H_    0.226420 0.308245 0.137152 0.238627
H18   H     H_    0.196466 0.328114 0.036053 0.232316
N4    N     N_2   0.801375 0.533813 0.885710 -0.405856
H19   H     H_    0.809638 0.600414 0.870536 0.269186
C46   C     C_3   0.851184 0.478484 0.807452 -0.537504
H20   H     H_    0.935623 0.492966 0.780130 0.247898
H21   H     H_    0.819237 0.492166 0.753515 0.231297
H22   H     H_    0.840506 0.407329 0.826308 0.237905
Br1   Br    Br    0.912286 0.334259 0.604089 -0.556023
Br2   Br    Br    0.995611 0.654239 0.620643 -0.570479
N5    N     N_2   0.786050 0.506478 0.215982 -0.407847
H23   H     H_    0.849198 0.465198 0.190066 0.255328
C47   C     C_3   0.814646 0.596421 0.228222 -0.663452
H24   H     H_    0.872709 0.595698 0.261856 0.214816
H25   H     H_    0.849381 0.630483 0.161919 0.212742
H26   H     H_    0.745565 0.634167 0.271286 0.236237
N6    N     N_2   0.216657 0.529456 0.786603 -0.398520
H27   H     H_    0.146227 0.498157 0.816557 0.268573
C48   C     C_3   0.205269 0.622969 0.772517 -0.627602
H28   H     H_    0.181398 0.659216 0.837819 0.230460
H29   H     H_    0.144507 0.632817 0.742747 0.237297
H30   H     H_    0.279416 0.650917 0.725487 0.214344
N7    N     N_2   0.151688 0.514781 0.974299 -0.427988
H31   H     H_    0.106700 0.460029 0.000860 0.271560
C49   C     C_3   0.122611 0.597290 0.023436 -0.643731
H32   H     H_    0.093235 0.584516 0.097455 0.231539
H33   H     H_    0.059796 0.628922 0.005832 0.221247
H34   H     H_    0.189116 0.644000 0.006208 0.227873
N8    N     N_2   0.851519 0.486758 0.024891 -0.402336
H35   H     H_    0.900861 0.524789 0.045435 0.259549
C50   C     C_3   0.886877 0.396462 0.004084 -0.652903
H36   H     H_    0.887317 0.362026 0.066018 0.209290
H37   H     H_    0.966747 0.396428 0.952955 0.224630
H38   H     H_    0.835887 0.359702 0.975676 0.243311
N9    N     N_2   0.311990 0.950539 0.588185 -0.392177
H39   H     H_    0.247510 0.915497 0.589095 0.282108
C51   C     C_3   0.299082 0.986573 0.676210 -0.683015
H40   H     H_    0.221131 0.017276 0.706049 0.245758
H41   H     H_    0.357295 0.038910 0.670310 0.236024
H42   H     H_    0.305943 0.933307 0.722287 0.217339
N10   N     N_2   0.622017 0.048974 0.582021 -0.392666
H43   H     H_    0.686686 0.084067 0.580536 0.283774
C52   C     C_3   0.566475 0.012368 0.670730 -0.676698
H44   H     H_    0.622409 0.981633 0.697867 0.246721
H45   H     H_    0.512204 0.959940 0.666817 0.234610
H46   H     H_    0.523292 0.065302 0.717977 0.219220
Br3   Br    Br    0.718266 0.961961 0.377728 -0.475562
Br4   Br    Br    0.373681 0.038087 0.384574 -0.470873

loop_
_geom_bond_atom_site_label_1
_geom_bond_atom_site_label_2
_ccdc_geom_bond_type
C22   H2    S    
C47   H24   S    
C48   H28   S    
C5    N3    S    
C27   C29   A    
C11   C13   A    
C45   H16   S    
C23   O7    A    
C51   H40   S    
C34   C42   A    
C2    C12   S    
N7    H31   S    
C24   O8    A    
C39   C41   A    
C20   C30   A    
N5    H23   S    
C50   H37   S    
C32   C36   A    
C10   H12   S    
C52   H45   S    
N6    C48   S    
N10   H43   S    
Cu1   N2    S    
C7    C9    A    
C23   O5    A    
C16   Br4   S    
Cu2   O7    S    
C8    N10   S    
C3    H9    S    
N8    C50   S    
C27   H5    S    
N10   C52   S    
C1    C11   S    
Cu1   O5    S    
C1    O3    A    
C32   C38   A    
C21   N1    A    
N4    H19   S    
C40   C42   A    
C48   H29   S    
C4    H10   S    
C45   H17   S    
C19   Br1   S    
C1    O1    A    
N7    C49   S    
C2    O2    A    
N4    C46   S    
C50   H38   S    
C3    C44   A    
Cu2   N1    S    
Cu2   O3    S    
C4    C6    A    
C52   H46   S    
N6    H27   S    
N3    C45   S    
C6    N4    S    
C39   C43   A    
C7    C17   A    
Cu1   Cu2   S    
Cu1   O1    S    
C20   Br2   S    
C8    C18   A    
C31   C37   A    
Cu2   O2    S    
C23   C31   S    
C43   C44   A    
C24   C32   S    
Cu2   O6    S    
C29   C30   S    
C22   N2    A    
C49   H32   S    
C17   C18   S    
C51   H41   S    
C25   N1    A    
C9    C11   A    
C10   C12   A    
C37   H8    S    
C16   C18   A    
C49   H33   S    
C12   C14   A    
C48   H30   S    
C13   C15   A    
C45   H18   S    
C14   C16   A    
C19   C29   A    
Cu1   O4    S    
C46   H21   S    
C15   C17   A    
C5    C41   A    
C15   Br3   S    
C19   C21   A    
Cu1   O8    S    
C20   C22   A    
C3    C5    A    
C46   H22   S    
C2    O4    A    
C13   H13   S    
C4    C43   A    
C36   N5    S    
C25   C27   A    
C14   H14   S    
C50   H36   S    
C26   C28   A    
C34   N8    S    
C33   C41   A    
C26   H4    S    
C26   N2    A    
N3    H15   S    
C37   C39   A    
C52   H44   S    
C38   C40   A    
C28   H6    S    
C38   H7    S    
N9    C51   S    
C31   C35   A    
C28   C30   A    
C33   C35   A    
C34   C36   A    
C51   H42   S    
C9    H11   S    
C25   H3    S    
C24   O6    A    
C46   H20   S    
C7    N9    S    
N5    C47   S    
C40   C44   A    
C49   H34   S    
C8    C10   A    
C6    C42   A    
C47   H26   S    
N8    H35   S    
C47   H25   S    
C33   N7    S    
N9    H39   S    
C21   H1    S    
C35   N6    S    
