data_mof_unit_45342.cif
_audit_creation_date              2012-12-11T14:06:34-0500
_audit_creation_method            fapswitch 2.2
_symmetry_space_group_name_H-M    P1
_symmetry_Int_Tables_number       1
_space_group_crystal_system       triclinic
_cell_length_a                    11.858498
_cell_length_b                    12.007902
_cell_length_c                    19.30937
_cell_angle_alpha                 90.47154
_cell_angle_beta                  90.32558
_cell_angle_gamma                 120.2678
_cell_volume                      2374.51226976

loop_
_atom_site_label
_atom_site_type_symbol
_atom_type_description
_atom_site_fract_x
_atom_site_fract_y
_atom_site_fract_z
_atom_type_partial_charge
C1    C     C_R   0.552962 0.475967 0.597325 0.558098
C2    C     C_R   0.524386 0.077641 0.597508 0.559570
C3    C     C_R   0.923118 0.447246 0.597197 0.539645
C4    C     C_2   0.971785 0.387362 0.288847 0.221847
C5    C     C_2   0.532259 0.624700 0.324688 0.296404
C6    C     C_2   0.459369 0.116766 0.275265 0.285046
C7    C     C_R   0.451999 0.924269 0.928960 0.543541
C8    C     C_R   0.075144 0.526734 0.929088 0.543525
C9    C     C_R   0.472928 0.547911 0.929079 0.565192
C10   C     C_R   0.460060 0.940376 0.114688 0.537430
C11   C     C_R   0.069159 0.524424 0.119371 0.561201
C12   C     C_R   0.437028 0.598199 0.132379 0.589105
C13   C     C_R   0.549183 0.476703 0.404600 0.564048
C14   C     C_R   0.553466 0.144737 0.396651 0.566395
C15   C     C_R   0.923627 0.446081 0.402761 0.540469
C16   C     C_1   0.032744 0.512909 0.859328 0.006008
C17   C     C_1   0.484966 0.518714 0.859168 0.002004
C18   C     C_1   0.480630 0.965562 0.859190 0.006286
C19   C     C_1   0.993619 0.495072 0.726784 -0.025315
C20   C     C_1   0.505013 0.498899 0.726605 -0.024609
C21   C     C_1   0.501967 0.007038 0.726746 -0.024553
C22   C     C_1   0.011977 0.505315 0.798396 -0.031175
C23   C     C_1   0.493103 0.506068 0.798210 -0.031323
C24   C     C_1   0.493745 0.986983 0.798355 -0.029880
C25   C     C_1   0.970526 0.479201 0.666084 0.021127
C26   C     C_1   0.521754 0.492089 0.666053 0.023295
C27   C     C_1   0.509190 0.030896 0.666234 0.022010
C28   C     C_2   0.980038 0.479339 0.333856 -0.092454
C29   C     C_2   0.498197 0.503975 0.342707 -0.051152
C30   C     C_2   0.559108 0.144945 0.320424 -0.116669
C31   C     C_2   0.987982 0.500374 0.180004 0.052287
C32   C     C_2   0.433772 0.584464 0.208351 0.026000
C33   C     C_2   0.504956 0.008027 0.181340 0.064136
C34   C     C_2   0.943425 0.388543 0.213707 0.107754
C35   C     C_2   0.540316 0.651842 0.250266 0.089394
C36   C     C_2   0.476417 0.099431 0.200962 0.116813
Cr1   Cr    Cr6+3 0.468420 0.238090 0.499960 1.129945
Cr2   Cr    Cr6+3 0.761910 0.230330 0.499960 1.133144
Cr3   Cr    Cr6+3 0.769670 0.531580 0.499960 1.109159
Cr4   Cr    Cr6+3 0.515700 0.760130 0.026360 1.017086
Cr5   Cr    Cr6+3 0.239870 0.755570 0.026360 1.032466
Cr6   Cr    Cr6+3 0.244430 0.484300 0.026360 1.058492
H1    H     H_    0.990151 0.568561 0.316516 0.141746
H2    H     H_    0.453765 0.425864 0.304719 0.126745
H3    H     H_    0.653568 0.169527 0.299335 0.091921
O1    O     O_R   0.434830 0.101190 0.575190 -0.495769
O2    O     O_R   0.898810 0.333640 0.575190 -0.491968
O3    O     O_R   0.666360 0.565170 0.575190 -0.476961
O4    O     O_3   0.333333 0.666667 0.026340 -0.256481
O5    O     O_R   0.480130 0.360720 0.570290 -0.499336
O6    O     O_R   0.639280 0.119410 0.570290 -0.484139
O7    O     O_R   0.880590 0.519870 0.570290 -0.495320
O8    O     O_R   0.439410 0.104260 0.424150 -0.400063
O9    O     O_R   0.895740 0.335150 0.424150 -0.432390
O10   O     O_R   0.664850 0.560590 0.424150 -0.445015
O11   O     O_R   0.484380 0.363570 0.430280 -0.483333
O12   O     O_R   0.636430 0.120810 0.430280 -0.457819
O13   O     O_R   0.879190 0.515620 0.430280 -0.498153
O14   O     O_3   0.666667 0.333333 0.499980 -0.361140
O15   O     O_R   0.548200 0.655360 0.951320 -0.501190
O16   O     O_R   0.344640 0.892840 0.951320 -0.508534
O17   O     O_R   0.107160 0.451800 0.951320 -0.508420
O18   O     O_R   0.505020 0.871000 0.955840 -0.497818
O19   O     O_R   0.129000 0.634020 0.955840 -0.494652
O20   O     O_R   0.365980 0.494980 0.955840 -0.486301
O21   O     O_R   0.543640 0.655270 0.102360 -0.526877
O22   O     O_R   0.344730 0.888370 0.102360 -0.493514
O23   O     O_R   0.111630 0.456360 0.102360 -0.496729
O24   O     O_R   0.500790 0.870920 0.095850 -0.526892
O25   O     O_R   0.129080 0.629870 0.095850 -0.502412
O26   O     O_R   0.370130 0.499210 0.095850 -0.470444
N1    N     N_3   0.899061 0.270696 0.174316 -0.559344
H4    H     H_    0.815747 0.199214 0.198665 0.224025
H5    H     H_    0.865376 0.278875 0.125474 0.213064
N2    N     N_3   0.669248 0.736273 0.224484 -0.585060
H6    H     H_    0.669282 0.806848 0.193492 0.242772
H7    H     H_    0.699028 0.681984 0.195421 0.251561
N3    N     N_3   0.442464 0.166667 0.151280 -0.580574
H8    H     H_    0.360244 0.100987 0.122635 0.281551
H9    H     H_    0.520416 0.213980 0.117227 0.199440
S1    S     S_3+6 0.000501 0.261265 0.316125 0.073664
O27   O     O_2   0.096356 0.307396 0.375667 -0.185294
O28   O     O_2   0.873978 0.147149 0.338619 -0.288406
O29   O     O_3   0.061750 0.214283 0.251089 -0.473055
H10   H     H_    0.995905 0.122896 0.241266 0.368623
S2    S     S_3+6 0.596509 0.755350 0.385128 0.089622
O30   O     O_2   0.549556 0.708498 0.457038 -0.235718
O31   O     O_2   0.743225 0.822701 0.384485 -0.227847
O32   O     O_3   0.547741 0.859497 0.363482 -0.483353
H11   H     H_    0.629547 0.942021 0.356207 0.397330
S3    S     S_3+6 0.296583 0.070008 0.299209 0.081696
O33   O     O_2   0.240203 0.947572 0.339971 -0.239938
O34   O     O_2   0.294715 0.173777 0.342231 -0.216269
O35   O     O_3   0.202690 0.042464 0.228265 -0.510002
H12   H     H_    0.111691 0.989693 0.244423 0.370620
N4    N     N_3   0.959161 0.597488 0.202555 -0.669847
H13   H     H_    0.047400 0.683707 0.210654 0.264797
H14   H     H_    0.909084 0.612467 0.162332 0.237407
N5    N     N_3   0.309301 0.501968 0.239185 -0.593761
H15   H     H_    0.247372 0.537123 0.226447 0.238472
H16   H     H_    0.271231 0.410234 0.217000 0.311409
N6    N     N_3   0.555964 0.956411 0.230870 -0.632645
H17   H     H_    0.492967 0.856737 0.232873 0.277197
H18   H     H_    0.647059 0.975486 0.213523 0.227329

loop_
_geom_bond_atom_site_label_1
_geom_bond_atom_site_label_2
_ccdc_geom_bond_type
Cr4   O15   S    
C30   H3    S    
Cr5   O16   S    
S1    O27   D    
C11   O25   A    
Cr5   O22   S    
C10   O22   A    
C2    O1    A    
C35   N2    S    
C17   C23   T    
Cr4   O18   S    
C18   C24   T    
C13   C29   S    
S2    O31   D    
Cr4   O4    S    
C33   C36   D    
C7    O16   A    
S1    O28   D    
Cr1   O11   S    
Cr3   O10   S    
C4    S1    S    
N4    H14   S    
Cr6   O20   S    
C2    C27   S    
C1    O5    A    
Cr6   O17   S    
C13   O11   A    
Cr1   O8    S    
Cr3   O7    S    
C21   C27   T    
C11   C31   S    
C8    C16   S    
Cr4   O21   S    
C12   C32   S    
Cr6   O23   S    
O35   H12   S    
C14   C30   S    
Cr5   O4    S    
C4    C28   D    
C5    C29   D    
C4    C34   S    
Cr4   O24   S    
C33   N6    S    
C32   C35   D    
C3    C25   S    
C19   C22   S    
O29   H10   S    
N1    H5    S    
S3    O33   D    
S2    O30   D    
Cr2   O6    S    
Cr3   O13   S    
C12   O21   A    
N2    H6    S    
C15   O9    A    
S3    O34   D    
Cr2   O12   S    
N5    H15   S    
Cr2   O9    S    
C20   C23   S    
C7    C18   S    
Cr3   O14   S    
N4    H13   S    
C31   C34   D    
N6    H18   S    
N2    H7    S    
C7    O18   A    
Cr2   O2    S    
Cr1   O14   S    
C8    O19   A    
C5    S2    S    
C9    C17   S    
C6    C30   D    
C12   O26   A    
C29   H2    S    
C1    C26   S    
C15   O13   A    
C6    S3    S    
C34   N1    S    
S1    O29   S    
C11   O23   A    
C14   O12   A    
C16   C22   T    
N5    H16   S    
N3    H8    S    
N1    H4    S    
S2    O32   S    
C3    O7    A    
C1    O3    A    
C28   H1    S    
C32   N5    S    
C9    O15   A    
O32   H11   S    
C36   N3    S    
S3    O35   S    
Cr1   O5    S    
C15   C28   S    
C20   C26   T    
C5    C35   S    
C3    O2    A    
Cr6   O26   S    
C6    C36   S    
C10   C33   S    
N3    H9    S    
N6    H17   S    
C19   C25   T    
C9    O20   A    
C2    O6    A    
Cr6   O4    S    
Cr2   O14   S    
C10   O24   A    
C14   O8    A    
C21   C24   S    
Cr3   O3    S    
Cr5   O19   S    
Cr1   O1    S    
C31   N4    S    
C8    O17   A    
Cr5   O25   S    
C13   O10   A    
