data_mof_unit_7994.cif
_audit_creation_date              2012-12-10T18:58:43-0500
_audit_creation_method            fapswitch 2.2
_symmetry_space_group_name_H-M    P1
_symmetry_Int_Tables_number       1
_space_group_crystal_system       triclinic
_cell_length_a                    12.923525
_cell_length_b                    10.794851
_cell_length_c                    9.558617
_cell_angle_alpha                 90.13404
_cell_angle_beta                  95.952367
_cell_angle_gamma                 89.787893
_cell_volume                      1326.29774084

loop_
_atom_site_label
_atom_site_type_symbol
_atom_type_description
_atom_site_fract_x
_atom_site_fract_y
_atom_site_fract_z
_atom_type_partial_charge
C1    C     C_R   0.506695 0.262530 0.500488 0.801306
C2    C     C_R   0.025982 0.551174 0.544685 0.054362
C3    C     C_R   0.973974 0.462068 0.454831 0.045068
C4    C     C_R   0.867295 0.446763 0.455959 -0.156418
C5    C     C_R   0.861807 0.618325 0.622665 0.150588
C6    C     C_R   0.970036 0.628071 0.627699 -0.159011
C7    C     C_R   0.498336 0.064309 0.621552 0.128222
C8    C     C_R   0.522396 0.129214 0.503034 -0.135176
C9    C     C_R   0.563113 0.061777 0.392427 0.119819
C10   C     C_R   0.556706 0.931909 0.393133 -0.238743
C11   C     C_R   0.515399 0.870259 0.503807 -0.131874
C12   C     C_R   0.300786 0.498421 0.473997 0.829165
C13   C     C_R   0.495847 0.937372 0.622595 0.119519
C14   C     C_3   0.404653 0.934373 0.706539 -0.461125
C15   C     C_3   0.407399 0.075076 0.705534 -0.448920
C16   C     C_R   0.584260 0.542741 0.085645 0.126984
C17   C     C_R   0.414338 0.465851 0.062152 -0.074101
C18   C     C_R   0.414310 0.465903 0.913758 -0.040538
C19   C     C_R   0.584526 0.541744 0.938084 0.050603
C20   C     C_3   0.691309 0.486746 0.948650 0.359014
C21   C     C_3   0.691525 0.489702 0.106688 0.354484
C22   C     C_R   0.502428 0.737557 0.500566 0.808059
C23   C     C_R   0.698917 0.507584 0.526001 0.805759
C24   C     C_R   0.811107 0.522906 0.539684 -0.060914
C25   C     C_R   0.188411 0.491406 0.460106 -0.126936
C26   C     C_R   0.029723 0.390848 0.364775 0.627943
C27   C     C_R   0.136685 0.406894 0.366371 -0.278544
C28   C     C_R   0.133311 0.563686 0.548436 -0.251069
Cu1   Cu    Cu3+1 0.499990 0.499980 0.640670 0.979969
Cu2   Cu    Cu3+1 0.500010 0.500020 0.359330 0.959318
H1    H     H_    0.826929 0.376742 0.389650 0.182792
H2    H     H_    0.425080 0.894209 0.812861 0.204625
H3    H     H_    0.338174 0.117745 0.645093 0.193336
H4    H     H_    0.429407 0.115953 0.811283 0.211427
H5    H     H_    0.345838 0.434479 0.107382 0.146021
H6    H     H_    0.345706 0.434542 0.849423 0.140082
H7    H     H_    0.750302 0.547688 0.908108 0.110156
H8    H     H_    0.696037 0.397081 0.157578 0.127069
H9    H     H_    0.010194 0.699233 0.692482 0.141950
H10   H     H_    0.179701 0.350328 0.298421 0.166242
H11   H     H_    0.174225 0.629895 0.619513 0.150726
H12   H     H_    0.582592 0.879429 0.306302 0.181149
H13   H     H_    0.333868 0.895061 0.646696 0.194792
N1    N     N_R   0.500660 0.500930 0.148010 -0.201966
N2    N     N_R   0.500660 0.500890 0.852110 -0.151033
O1    O     O_R   0.500000 0.319640 0.618810 -0.540604
O2    O     O_R   0.500010 0.319680 0.381230 -0.592778
O3    O     O_R   0.348990 0.499960 0.599490 -0.595589
O4    O     O_R   0.349000 0.500000 0.361910 -0.586405
O5    O     O_R   0.499990 0.680320 0.618770 -0.589887
O6    O     O_R   0.500000 0.680360 0.381190 -0.568658
O7    O     O_R   0.651000 0.500000 0.638090 -0.560831
O8    O     O_R   0.651010 0.500040 0.400510 -0.565288
F1    F     F_    0.691195 0.366789 0.896779 -0.648409
F2    F     F_    0.761957 0.574811 0.168797 -0.666138
C29   C     C_3   0.804267 0.718159 0.695993 -0.443688
C30   C     C_3   0.800828 0.839077 0.613103 -0.779352
H14   H     H_    0.880627 0.875070 0.607123 0.257205
H15   H     H_    0.762682 0.823913 0.504886 0.257657
H16   H     H_    0.755489 0.909590 0.665903 0.248636
H17   H     H_    0.723292 0.692779 0.709768 0.215358
H18   H     H_    0.843990 0.734222 0.803257 0.215893
F3    F     F_    0.981110 0.306013 0.275918 -0.663884
C31   C     C_3   0.614595 0.121764 0.274437 -0.351534
C32   C     C_3   0.539935 0.131556 0.140077 -0.773325
H19   H     H_    0.468546 0.183467 0.159518 0.259241
H20   H     H_    0.578588 0.181001 0.058118 0.267031
H21   H     H_    0.517489 0.037708 0.100050 0.236341
H22   H     H_    0.646761 0.214022 0.305503 0.205467
H23   H     H_    0.683013 0.065290 0.251709 0.209358

loop_
_geom_bond_atom_site_label_1
_geom_bond_atom_site_label_2
_ccdc_geom_bond_type
C7    C13   A    
C23   C24   S    
C19   N2    A    
C16   C21   S    
C12   O4    A    
Cu1   Cu2   S    
C31   H23   S    
C10   H12   S    
C1    C8    S    
C9    C10   A    
C16   N1    A    
C15   H4    S    
C19   C20   S    
C14   C15   S    
C26   F3    S    
C12   O3    A    
Cu1   O1    S    
C22   O5    A    
C32   H21   S    
C6    H9    S    
C31   C32   S    
C7    C15   S    
C17   C18   A    
C23   O7    A    
C17   N1    A    
C7    C8    A    
C13   C14   S    
C29   C30   S    
C25   C28   A    
C20   H7    S    
C11   C13   A    
Cu2   N1    S    
C26   C27   A    
C2    C6    A    
C5    C24   A    
C16   C19   A    
Cu2   O6    S    
C15   H3    S    
C23   O8    A    
C5    C29   S    
C2    C3    A    
Cu1   O5    S    
C22   O6    A    
C5    C6    A    
C4    C24   A    
Cu2   O8    S    
C29   H18   S    
C1    O1    A    
C30   H15   S    
C4    H1    S    
C25   C27   A    
C10   C11   A    
C21   H8    S    
C12   C25   S    
C3    C4    A    
C9    C31   S    
C18   N2    A    
Cu2   O2    S    
Cu1   O3    S    
C20   C21   S    
C11   C22   S    
C20   F1    S    
C32   H19   S    
C14   H2    S    
C21   F2    S    
C29   H17   S    
C8    C9    A    
C30   H16   S    
C2    C28   A    
C17   H5    S    
C27   H10   S    
C30   H14   S    
C31   H22   S    
C18   H6    S    
Cu2   O4    S    
C3    C26   A    
C1    O2    A    
C28   H11   S    
Cu1   N2    S    
C14   H13   S    
C32   H20   S    
Cu1   O7    S    
