data_mof_unit_58453.cif
_audit_creation_date              2012-12-10T17:24:44-0500
_audit_creation_method            fapswitch 2.2
_symmetry_space_group_name_H-M    P1
_symmetry_Int_Tables_number       1
_space_group_crystal_system       triclinic
_cell_length_a                    23.51406
_cell_length_b                    10.757615
_cell_length_c                    9.658426
_cell_angle_alpha                 89.091578
_cell_angle_beta                  90.602613
_cell_angle_gamma                 93.053709
_cell_volume                      2439.25883142

loop_
_atom_site_label
_atom_site_type_symbol
_atom_type_description
_atom_site_fract_x
_atom_site_fract_y
_atom_site_fract_z
_atom_type_partial_charge
C1    C     C_R   0.500347 0.262997 0.500920 0.780185
C2    C     C_R   0.965173 0.280565 0.415248 -0.160828
C3    C     C_R   0.024533 0.282079 0.413220 -0.161929
C4    C     C_R   0.057284 0.388038 0.455557 -0.014786
C5    C     C_R   0.029793 0.493169 0.500451 -0.017524
C6    C     C_R   0.062205 0.599851 0.543260 -0.015234
C7    C     C_R   0.034360 0.704241 0.587743 -0.160198
C8    C     C_R   0.975011 0.702719 0.589815 -0.162182
C9    C     C_R   0.117022 0.391587 0.454850 0.533671
C10   C     C_R   0.121825 0.599229 0.540335 0.533933
C11   C     C_R   0.238443 0.495462 0.372012 -0.100013
C12   C     C_R   0.391081 0.499503 0.499432 0.794332
C13   C     C_R   0.297796 0.496441 0.372440 -0.221161
C14   C     C_R   0.328389 0.498808 0.498346 -0.040774
C15   C     C_R   0.298477 0.500181 0.623584 -0.213682
C16   C     C_R   0.239185 0.499291 0.622824 -0.102626
C17   C     C_R   0.208951 0.496943 0.497166 0.355673
C18   C     C_R   0.760949 0.489802 0.629565 -0.107064
C19   C     C_R   0.701707 0.491840 0.628420 -0.258241
C20   C     C_R   0.671408 0.493928 0.502241 -0.020656
C21   C     C_R   0.701447 0.490303 0.377464 -0.171501
C22   C     C_R   0.760647 0.488178 0.378753 -0.110655
C23   C     C_R   0.501506 0.737321 0.499056 0.795287
C24   C     C_R   0.790635 0.488676 0.504718 0.359680
C25   C     C_R   0.599762 0.141168 0.607861 -0.175065
C26   C     C_R   0.648016 0.081736 0.652973 -0.116925
C27   C     C_R   0.649804 0.953062 0.643819 -0.105716
C28   C     C_R   0.603054 0.883174 0.591278 -0.129315
C29   C     C_R   0.553055 0.940793 0.549208 0.097272
C30   C     C_R   0.551824 0.071754 0.554849 0.089889
C31   C     C_R   0.503358 0.129589 0.502542 -0.085197
C32   C     C_R   0.457674 0.059879 0.444370 -0.192765
C33   C     C_R   0.458252 0.931588 0.442385 -0.200658
C34   C     C_R   0.608871 0.498465 0.500656 0.794498
C35   C     C_R   0.504888 0.871800 0.496697 -0.094589
C36   C     C_R   0.592725 0.628521 0.136209 0.039790
C37   C     C_R   0.643058 0.647314 0.060614 -0.207466
C38   C     C_R   0.638872 0.659760 0.918746 -0.274594
C39   C     C_R   0.587081 0.631321 0.854540 -0.143953
C40   C     C_R   0.543130 0.564419 0.924622 0.209348
C41   C     C_R   0.544148 0.564408 0.073262 0.094927
C42   C     C_R   0.458527 0.438447 0.073827 -0.048554
C43   C     C_R   0.458687 0.438058 0.926390 -0.051853
C44   C     C_R   0.882547 0.593353 0.547907 0.535633
C45   C     C_R   0.877689 0.385747 0.462293 0.531412
C46   C     C_R   0.937322 0.384980 0.459652 -0.014645
C47   C     C_R   0.969746 0.491626 0.502547 -0.017506
C48   C     C_R   0.942268 0.596786 0.547410 -0.015405
Cu1   Cu    Cu3+1 0.500000 0.499990 0.640660 0.938322
Cu2   Cu    Cu3+1 0.500000 0.500010 0.359340 0.952124
H1    H     H_    0.941226 0.197406 0.381844 0.191698
H2    H     H_    0.679322 0.488755 0.278812 0.165213
H3    H     H_    0.783314 0.486795 0.281817 0.141453
H4    H     H_    0.421007 0.105114 0.402426 0.146491
H5    H     H_    0.600791 0.241493 0.613371 0.144144
H6    H     H_    0.684515 0.135978 0.692831 0.152696
H7    H     H_    0.687821 0.907360 0.675702 0.151055
H8    H     H_    0.607223 0.784698 0.578809 0.141985
H9    H     H_    0.424549 0.387453 0.128386 0.132061
H10   H     H_    0.044630 0.200009 0.378400 0.190712
H11   H     H_    0.681841 0.684896 0.109636 0.190206
H12   H     H_    0.582410 0.663539 0.751355 0.194422
H13   H     H_    0.424822 0.386638 0.871970 0.134832
H14   H     H_    0.058302 0.787417 0.621116 0.191545
H15   H     H_    0.954916 0.784794 0.624632 0.190163
H16   H     H_    0.215313 0.493936 0.274460 0.142889
H17   H     H_    0.319626 0.495277 0.274335 0.155868
H18   H     H_    0.320794 0.501872 0.722248 0.157313
H19   H     H_    0.216628 0.500041 0.719958 0.142250
H20   H     H_    0.783844 0.488979 0.727412 0.144036
N1    N     N_R   0.851636 0.489001 0.505608 -0.469649
N2    N     N_R   0.147920 0.496048 0.496921 -0.470001
N3    N     N_R   0.500540 0.501210 0.147910 -0.196832
N4    N     N_R   0.500560 0.501290 0.852040 -0.192677
O1    O     O_R   0.500000 0.319640 0.618810 -0.575657
O2    O     O_2   0.845950 0.284033 0.422647 -0.534047
O3    O     O_2   0.144057 0.291148 0.413773 -0.534258
O4    O     O_2   0.153520 0.701093 0.579728 -0.532795
O5    O     O_R   0.500000 0.319660 0.381240 -0.568754
O6    O     O_R   0.417880 0.499950 0.618810 -0.581514
O7    O     O_R   0.417880 0.499980 0.381240 -0.588146
O8    O     O_R   0.500000 0.680340 0.618760 -0.593305
O9    O     O_R   0.500000 0.680360 0.381190 -0.594279
O10   O     O_R   0.582120 0.500020 0.618760 -0.614268
O11   O     O_R   0.582120 0.500050 0.381190 -0.567139
O12   O     O_2   0.855528 0.693838 0.588951 -0.535413
H21   H     H_    0.679751 0.491307 0.726215 0.174522
H22   H     H_    0.421794 0.878431 0.400248 0.151418
C49   C     C_2   0.586791 0.733541 0.228710 0.436578
H23   H     H_    0.551899 0.794369 0.212175 0.074359
O13   O     O_2   0.623312 0.759972 0.315718 -0.583177
H24   H     H_    0.674235 0.701126 0.860092 0.171283

loop_
_geom_bond_atom_site_label_1
_geom_bond_atom_site_label_2
_ccdc_geom_bond_type
C36   C49   S    
C18   H20   S    
C23   O8    A    
C45   N1    A    
C19   C20   A    
C9    N2    A    
Cu2   O5    S    
C10   O4    S    
C43   H13   S    
C7    C8    A    
C45   C46   A    
C2    C46   A    
C5    C47   A    
C26   C27   A    
C29   C30   A    
C23   O9    A    
C45   O2    S    
C18   C24   A    
Cu1   O10   S    
C28   C29   A    
C33   H22   S    
C19   H21   S    
C30   C31   A    
C15   C16   A    
C38   H24   S    
C1    C31   S    
C44   N1    A    
C18   C19   A    
Cu2   O11   S    
C11   C17   A    
C47   C48   A    
C16   C17   A    
Cu1   O1    S    
C49   O13   D    
C11   H16   S    
C20   C34   S    
C3    H10   S    
C43   N4    A    
C8    H15   S    
C21   C22   A    
C36   C41   A    
C34   O10   A    
C44   O12   S    
C32   H4    S    
Cu2   O9    S    
C22   H3    S    
C38   C39   A    
C1    O1    A    
C27   H7    S    
Cu2   N3    S    
C39   C40   A    
C25   C26   A    
C34   O11   A    
Cu1   O8    S    
C8    C48   A    
C37   C38   A    
C31   C32   A    
C9    O3    S    
C40   C41   A    
C12   C14   S    
C23   C35   S    
C1    O5    A    
C22   C24   A    
C42   C43   A    
C3    C4    A    
C13   H17   S    
C25   C30   A    
C39   H12   S    
C46   C47   A    
C36   C37   A    
C42   N3    A    
Cu1   N4    S    
C16   H19   S    
C25   H5    S    
C4    C5    A    
C26   H6    S    
C42   H9    S    
C6    C10   A    
C37   H11   S    
C6    C7    A    
C28   H8    S    
C29   C35   A    
Cu1   O6    S    
C32   C33   A    
C2    C3    A    
C4    C9    A    
C11   C13   A    
C5    C6    A    
C15   H18   S    
C12   O6    A    
C33   C35   A    
C40   N4    A    
C12   O7    A    
C7    H14   S    
C2    H1    S    
C41   N3    A    
C20   C21   A    
Cu2   O7    S    
C17   N2    S    
Cu1   Cu2   S    
C27   C28   A    
C14   C15   A    
C49   H23   S    
C13   C14   A    
C21   H2    S    
C44   C48   A    
C24   N1    S    
C10   N2    A    
