data_mof_unit_52757.cif
_audit_creation_date              2012-12-10T18:43:05-0500
_audit_creation_method            fapswitch 2.2
_symmetry_space_group_name_H-M    P1
_symmetry_Int_Tables_number       1
_space_group_crystal_system       triclinic
_cell_length_a                    10.716402
_cell_length_b                    9.830377
_cell_length_c                    10.675271
_cell_angle_alpha                 88.834173
_cell_angle_beta                  89.898147
_cell_angle_gamma                 90.05383
_cell_volume                      1124.36489146

loop_
_atom_site_label
_atom_site_type_symbol
_atom_type_description
_atom_site_fract_x
_atom_site_fract_y
_atom_site_fract_z
_atom_type_partial_charge
C1    C     C_R   0.259846 0.499876 0.500329 0.866562
C2    C     C_R   0.740143 0.499952 0.500417 0.877042
C3    C     C_R   0.515110 0.501367 0.262912 0.867682
C4    C     C_R   0.497799 0.498194 0.737588 0.871996
C5    C     C_2   0.580575 0.414102 0.929977 0.338673
C6    C     C_2   0.564838 0.392472 0.065938 0.334649
C7    C     C_2   0.493322 0.489892 0.870854 0.218039
C8    C     C_2   0.559442 0.506317 0.133998 0.205047
C9    C     C_R   0.063789 0.378503 0.478832 -0.192695
C10   C     C_R   0.935984 0.378585 0.478665 -0.204245
C11   C     C_R   0.872547 0.499828 0.501022 -0.014580
C12   C     C_R   0.127392 0.499686 0.501242 -0.008666
C13   C     C_R   0.936121 0.620800 0.524263 -0.193274
C14   C     C_R   0.063947 0.620740 0.524336 -0.198837
C15   C     C_R   0.589660 0.070710 0.563277 -0.074391
C16   C     C_R   0.410000 0.073292 0.437323 -0.048282
C17   C     C_R   0.589643 0.926744 0.563290 -0.071287
C18   C     C_R   0.410170 0.929348 0.437034 -0.094301
H1    H     H_    0.112371 0.284345 0.460435 0.152272
H2    H     H_    0.887280 0.284432 0.460317 0.159857
H3    H     H_    0.887493 0.714892 0.542814 0.153648
H4    H     H_    0.112681 0.714839 0.542828 0.155703
H5    H     H_    0.661213 0.124264 0.614007 0.146138
H6    H     H_    0.338080 0.128955 0.387212 0.127380
H7    H     H_    0.661220 0.871144 0.613985 0.131072
H8    H     H_    0.338547 0.875871 0.386387 0.135775
N1    N     N_R   0.500000 0.857200 0.500000 -0.078165
N2    N     N_R   0.500000 0.142810 0.500000 -0.074200
O1    O     O_R   0.316770 0.614620 0.499990 -0.628832
O2    O     O_R   0.683230 0.614620 0.500010 -0.636420
O3    O     O_R   0.316800 0.385290 0.500000 -0.634287
O4    O     O_R   0.683200 0.385290 0.500000 -0.620802
O5    O     O_R   0.500000 0.614630 0.319080 -0.632231
O6    O     O_R   0.500000 0.614630 0.680920 -0.617087
O7    O     O_R   0.500030 0.385300 0.319080 -0.562644
O8    O     O_R   0.499970 0.385300 0.680920 -0.599399
Zn1   Zn    Zn3+2 0.500000 0.653120 0.500000 0.948964
Zn2   Zn    Zn3+2 0.500000 0.346880 0.500000 0.983210
O9    O     O_3   0.675734 0.352679 0.861829 -0.651459
C19   C     C_3   0.788723 0.350066 0.929711 0.075696
H9    H     H_    0.784781 0.271453 0.006023 0.161889
H10   H     H_    0.809734 0.451266 0.970102 0.163840
C20   C     C_3   0.894756 0.314252 0.841436 -0.805743
H11   H     H_    0.903181 0.393300 0.766104 0.263790
H12   H     H_    0.983985 0.308865 0.894020 0.210823
H13   H     H_    0.876633 0.214174 0.798504 0.250100
O10   O     O_3   0.548414 0.263508 0.121827 -0.626068
C21   C     C_3   0.511125 0.163986 0.035654 0.111080
H14   H     H_    0.590099 0.137182 0.973278 0.175964
H15   H     H_    0.430035 0.199557 0.978619 0.144195
C22   C     C_3   0.471822 0.035510 0.107079 -0.798101
H16   H     H_    0.387764 0.056304 0.164414 0.240367
H17   H     H_    0.449154 0.954164 0.040082 0.226064
H18   H     H_    0.548582 0.999694 0.169255 0.260073
O11   O     O_3   0.395146 0.548327 0.935155 -0.785950
H19   H     H_    0.339622 0.595098 0.873760 0.328686
O12   O     O_3   0.596515 0.629305 0.078566 -0.787652
H20   H     H_    0.594253 0.702895 0.140375 0.353326

loop_
_geom_bond_atom_site_label_1
_geom_bond_atom_site_label_2
_ccdc_geom_bond_type
C16   N2    A    
C20   H11   S    
C4    O8    A    
C15   C17   A    
C3    O7    A    
C8    O12   S    
O6    Zn1   S    
C11   C13   A    
C9    C10   A    
O10   C21   S    
C18   H8    S    
O3    Zn2   S    
C7    O11   S    
C2    O2    A    
C22   H18   S    
C17   H7    S    
C14   H4    S    
O11   H19   S    
C15   H5    S    
C15   N2    A    
C13   H3    S    
C16   H6    S    
C16   C18   A    
C13   C14   A    
C21   H15   S    
C20   H12   S    
O12   H20   S    
C1    C12   S    
N1    Zn1   S    
C4    C7    S    
C2    C11   S    
O8    Zn2   S    
C19   H9    S    
C9    C12   A    
C12   C14   A    
O4    Zn2   S    
C5    O9    S    
C5    C6    S    
C20   H13   S    
C4    O6    A    
C21   C22   S    
C10   C11   A    
C3    O5    A    
C22   H16   S    
C17   N1    A    
C1    O3    A    
O7    Zn2   S    
C2    O4    A    
C3    C8    S    
C6    O10   S    
O1    Zn1   S    
O9    C19   S    
C5    C7    D    
C21   H14   S    
C6    C8    D    
C1    O1    A    
N2    Zn2   S    
C9    H1    S    
C19   C20   S    
O5    Zn1   S    
C18   N1    A    
O2    Zn1   S    
C10   H2    S    
C19   H10   S    
C22   H17   S    
