data_mof_unit_38458.cif
_audit_creation_date              2013-03-05T16:07:56-0500
_audit_creation_method            fapswitch 2.2
_symmetry_space_group_name_H-M    P1
_symmetry_Int_Tables_number       1
_space_group_crystal_system       triclinic
_cell_length_a                    7.025302
_cell_length_b                    14.514777
_cell_length_c                    16.053362
_cell_angle_alpha                 90.007798
_cell_angle_beta                  89.713796
_cell_angle_gamma                 89.679985
_cell_volume                      1636.92645248

loop_
_atom_site_label
_atom_site_type_symbol
_atom_site_description
_atom_site_fract_x
_atom_site_fract_y
_atom_site_fract_z
_atom_type_partial_charge
O1    O     O_R   0.494380 0.415640 0.412830 -0.629031
O2    O     O_R   0.823960 0.405540 0.586560 -0.600608
O3    O     O_R   0.994270 0.584360 0.587170 -0.571758
C1    C     C_R   0.655369 0.383779 0.615120 0.974549
O4    O     O_R   0.824090 0.404620 0.413450 -0.549922
O5    O     O_R   0.994400 0.583430 0.412820 -0.612459
C2    C     C_R   0.656048 0.382473 0.384667 0.977127
O6    O     O_R   0.494250 0.416570 0.587180 -0.591169
O7    O     O_3   0.660800 0.558670 0.500000 -0.284069
V1    V     V_3+5 0.935650 0.489120 0.500000 1.179465
O8    O     O_R   0.324110 0.594460 0.413440 -0.581087
C3    C     C_R   0.155335 0.616824 0.385402 0.987642
O9    O     O_R   0.323980 0.595380 0.586550 -0.561183
C4    C     C_R   0.153149 0.616446 0.615594 1.049116
V2    V     V_3+5 0.435660 0.510880 0.500000 1.178011
O10   O     O_3   0.160640 0.441330 0.500000 -0.303102
C5    C     C_3   0.935724 0.686702 0.730278 0.285427
H1    H     H_    0.942270 0.622185 0.767903 0.084859
C6    C     C_3   0.918941 0.765559 0.797183 0.294018
H2    H     H_    0.911363 0.728325 0.857902 0.083996
H3    H     H_    0.056158 0.799393 0.598014 0.006015
H4    H     H_    0.039225 0.907766 0.693495 -0.105789
C7    C     C_3   0.165860 0.787293 0.644938 0.292652
C8    C     C_3   0.282289 0.670717 0.752518 -0.443832
C9    C     C_3   0.134332 0.689335 0.682975 -0.238814
H5    H     H_    0.427508 0.663521 0.727917 0.253133
H6    H     H_    0.255176 0.602520 0.781809 0.191052
C10   C     C_3   0.112822 0.819288 0.802926 -0.291393
C11   C     C_3   0.157523 0.863318 0.714648 0.559286
C12   C     C_3   0.271302 0.745931 0.820547 -0.450208
H7    H     H_    0.244350 0.712426 0.881755 0.138577
H8    H     H_    0.411146 0.779780 0.825388 0.279915
C13   C     C_R   0.259244 0.741529 0.182028 -0.300569
C14   C     C_R   0.120344 0.811775 0.180458 -0.350836
C15   C     C_R   0.002056 0.821554 0.251347 0.758096
C16   C     C_R   0.006611 0.754641 0.315958 -0.337121
H9    H     H_    0.911830 0.761898 0.368913 0.161819
C17   C     C_R   0.144553 0.684007 0.316234 -0.162838
C18   C     C_R   0.270957 0.679670 0.248793 -0.072373
C19   C     C_3   0.483552 0.677728 0.249324 0.193977
C20   C     C_3   0.476319 0.747866 0.178071 1.094310
H10   H     H_    0.540154 0.608654 0.230976 0.037687
C21   C     C_R   0.501729 0.320920 0.744833 0.193965
C22   C     C_R   0.648352 0.318012 0.685458 -0.305613
C23   C     C_R   0.796042 0.253454 0.698401 -0.164348
H11   H     H_    0.915893 0.250131 0.655900 0.133023
C24   C     C_R   0.784382 0.188249 0.763251 -0.172459
H12   H     H_    0.895800 0.136835 0.768545 0.116575
C25   C     C_R   0.624947 0.185839 0.817120 -0.201178
C26   C     C_R   0.490361 0.256893 0.808987 0.098281
C27   C     C_3   0.277985 0.255862 0.806461 -0.579056
C28   C     C_3   0.290964 0.325265 0.735329 0.346593
H13   H     H_    0.213233 0.284242 0.864434 0.223308
H14   H     H_    0.220976 0.188506 0.786553 0.159647
H15   H     H_    0.241212 0.299937 0.673737 0.055924
C29   C     C_R   0.508707 0.244280 0.314814 0.009197
C30   C     C_R   0.650011 0.312228 0.316840 -0.422638
C31   C     C_R   0.789592 0.309512 0.252632 0.680507
C32   C     C_R   0.778451 0.243104 0.187849 -0.335659
H16   H     H_    0.886633 0.242858 0.139546 0.152698
C33   C     C_R   0.622968 0.182246 0.182103 -0.250106
C34   C     C_R   0.493922 0.182354 0.248791 0.076039
C35   C     C_3   0.281743 0.185656 0.250081 -0.457785
C36   C     C_3   0.297642 0.252433 0.322985 0.386416
H17   H     H_    0.218827 0.118019 0.266841 0.197105
H18   H     H_    0.222292 0.218119 0.193091 0.166969
H19   H     H_    0.242930 0.323065 0.310822 0.132830
O11   O     O_R   0.771490 0.080820 0.910070 -0.612814
O12   O     O_R   0.441590 0.092730 0.083780 -0.601445
O13   O     O_R   0.271350 0.913900 0.084390 -0.608886
C37   C     C_R   0.610096 0.114891 0.112451 1.001648
O14   O     O_R   0.441780 0.091820 0.910670 -0.593414
O15   O     O_R   0.271540 0.912980 0.910040 -0.594338
C38   C     C_R   0.610839 0.114677 0.882928 0.898073
O16   O     O_R   0.771300 0.081740 0.084420 -0.581189
O17   O     O_3   0.604960 0.938700 0.997240 -0.262651
V3    V     V_3+5 0.330090 0.008230 0.997220 1.152926
O18   O     O_R   0.941820 0.901930 0.910640 -0.586186
C39   C     C_R   0.109270 0.886332 0.877113 0.935408
O19   O     O_R   0.941630 0.902840 0.083750 -0.522102
C40   C     C_R   0.110894 0.880187 0.111693 0.996292
V4    V     V_3+5 0.830090 0.986410 0.997190 1.203462
O20   O     O_3   0.105080 0.055990 0.997200 -0.294797
O21   O     O_3   0.773474 0.668475 0.680916 -0.625514
C41   C     C_3   0.700137 0.743814 0.636897 0.083438
H20   H     H_    0.789784 0.803294 0.628990 0.002207
H21   H     H_    0.582757 0.771496 0.673687 0.236300
H22   H     H_    0.651619 0.720571 0.574858 0.181538
O22   O     O_3   0.330179 0.792098 0.595915 -0.784704
H23   H     H_    0.328526 0.852168 0.566122 0.322831
O23   O     O_3   0.330980 0.912486 0.717139 -0.613635
C42   C     C_3   0.298325 0.008218 0.709751 -0.327960
H24   H     H_    0.203165 0.033113 0.760536 0.135166
H25   H     H_    0.237107 0.025351 0.647852 0.150390
H26   H     H_    0.435764 0.044817 0.714831 0.160447
O24   O     O_3   0.892649 0.900586 0.258694 -0.596550
C43   C     C_3   0.952970 0.953018 0.327728 -0.336310
H27   H     H_    0.110035 0.962311 0.328496 0.121349
H28   H     H_    0.903259 0.921900 0.387166 0.153521
H29   H     H_    0.887789 0.022674 0.323281 0.197066
O25   O     O_3   0.561223 0.712552 0.323208 -0.747982
H30   H     H_    0.634652 0.661376 0.348813 0.341404
O26   O     O_3   0.569018 0.706594 0.108129 -0.659228
C44   C     C_3   0.466141 0.714792 0.033377 -0.270727
H31   H     H_    0.433755 0.787251 0.018438 0.201142
H32   H     H_    0.334477 0.672772 0.035344 0.123200
H33   H     H_    0.555823 0.687561 0.981798 0.182090
O27   O     O_3   0.560211 0.835412 0.196559 -0.563953
C45   C     C_3   0.465162 0.890074 0.257901 -0.055358
H34   H     H_    0.376651 0.851172 0.302716 0.117562
H35   H     H_    0.378997 0.944497 0.227702 0.095011
H36   H     H_    0.569680 0.926999 0.296251 0.185500
O28   O     O_3   0.219875 0.412211 0.757598 -0.757541
H37   H     H_    0.080463 0.409473 0.748477 0.321350
O29   O     O_3   0.935532 0.372886 0.251914 -0.641271
C46   C     C_3   0.888302 0.444514 0.196345 -0.270325
H38   H     H_    0.999567 0.498291 0.200149 0.178827
H39   H     H_    0.750089 0.477457 0.213350 0.127554
H40   H     H_    0.884813 0.419292 0.130933 0.143965
O30   O     O_3   0.231631 0.213373 0.397458 -0.745511
H41   H     H_    0.250250 0.260827 0.441091 0.325142
O31   O     O_3   0.740062 0.813731 0.796679 -0.634843
C47   C     C_3   0.729071 0.907715 0.771581 -0.005437
H42   H     H_    0.850955 0.952351 0.784120 0.053912
H43   H     H_    0.611803 0.939465 0.807890 0.188345
H44   H     H_    0.692746 0.915430 0.705206 0.114808

loop_
_geom_bond_atom_site_label_1
_geom_bond_atom_site_label_2
_geom_bond_distance
_ccdc_geom_bond_type
C37   O16   1.305892 A    
C35   H17   1.111450 S    
C6    O31   1.434744 S    
O25   H30   0.992350 S    
C20   O27   1.435333 S    
O12   V3    2.017414 S    
C15   C16   1.421404 A    
C8    H6    1.112905 S    
C1    O6    1.306922 A    
C44   H32   1.111117 S    
C43   H27   1.112517 S    
C47   H42   1.096060 S    
C24   C25   1.412237 A    
C15   O24   1.381953 S    
O27   C45   1.425629 S    
C13   C18   1.400721 A    
C7    C11   1.572173 S    
C10   C11   1.585379 S    
H4    C11   1.104131 S    
C8    H5    1.096574 S    
C45   H35   1.105957 S    
O5    C3    1.306975 A    
C12   H7    1.112266 S    
C21   C28   1.490270 S    
C47   H43   1.105326 S    
V3    O20   1.722538 S    
O11   C38   1.305342 A    
O29   C46   1.409312 S    
C46   H38   1.109637 S    
C14   C15   1.412445 A    
O12   C37   1.313915 A    
O13   C40   1.305199 A    
O14   V3    2.004606 S    
C19   O25   1.403358 S    
O8    V2    2.004375 S    
O21   C41   1.399342 S    
C6    H2    1.115784 S    
C7    O22   1.395950 S    
O1    V2    2.006677 S    
C14   C40   1.486377 S    
O7    V1    2.173871 S    
C28   H15   1.113442 S    
C33   C37   1.488593 S    
C23   C24   1.409453 A    
C35   H18   1.111397 S    
C32   H16   1.083046 S    
O9    C4    1.319654 A    
O13   V3    2.001062 S    
C44   H31   1.101522 S    
C43   H28   1.111311 S    
C13   C14   1.407680 A    
C41   H21   1.087034 S    
C32   C33   1.411985 A    
C27   C28   1.525566 S    
C36   H19   1.110546 S    
C8    C9    1.551890 S    
O19   V4    2.004259 S    
C29   C36   1.491975 S    
C45   H36   1.101930 S    
O17   V4    1.730104 S    
O23   C42   1.412177 S    
O4    C2    1.311553 A    
O18   C39   1.309769 A    
C47   H44   1.102481 S    
C1    C22   1.479503 S    
C26   C27   1.492917 S    
C31   C32   1.420621 A    
C28   O28   1.400330 S    
C42   H26   1.107988 S    
C20   O26   1.425420 S    
C27   H13   1.111914 S    
O2    C1    1.308269 A    
C21   C22   1.400387 A    
C34   C35   1.491161 S    
O11   V4    2.000820 S    
O18   V4    2.007011 S    
C19   H10   1.115516 S    
C24   H12   1.082122 S    
O9    V2    2.007050 S    
O24   C43   1.412435 S    
C42   H25   1.112373 S    
C5    H1    1.115273 S    
O15   C39   1.318902 A    
C21   C26   1.389594 A    
O17   V3    2.173863 S    
C6    C10   1.576395 S    
C41   H20   1.078620 S    
O3    C4    1.296835 A    
O14   C38   1.310792 A    
C19   C20   1.532214 S    
V4    O20   2.184939 S    
O6    V2    2.000488 S    
H3    C7    1.093880 S    
C31   O29   1.381262 S    
C29   C34   1.394255 A    
C29   C30   1.403731 A    
O2    V1    2.004628 S    
C11   O23   1.416351 S    
C43   H29   1.110031 S    
O30   H41   0.991949 S    
O28   H37   0.992035 S    
C41   H22   1.107461 S    
C16   H9    1.081986 S    
O1    C2    1.309516 A    
C22   C23   1.410361 A    
O19   C40   1.313158 A    
O5    V1    2.000992 S    
O8    C3    1.309547 A    
O16   V4    2.008342 S    
C36   O30   1.401212 S    
C46   H40   1.112448 S    
C27   H14   1.106304 S    
C5    C9    1.585856 S    
C5    O21   1.417586 S    
C10   C12   1.563109 S    
O7    V2    1.730641 S    
C13   C20   1.529310 S    
O4    V1    2.017470 S    
O3    V1    2.012567 S    
V1    O10   1.722580 S    
C45   H34   1.105730 S    
C12   H8    1.103977 S    
C30   C31   1.419517 A    
C17   C18   1.398017 A    
C16   C17   1.406841 A    
C42   H24   1.110838 S    
C5    C6    1.573043 S    
C46   H39   1.112702 S    
C7    C9    1.563955 S    
C4    C9    1.517742 S    
C3    C17   1.479825 S    
C33   C34   1.399405 A    
C8    C12   1.545433 S    
C35   C36   1.524414 S    
C18   C19   1.493719 S    
C23   H11   1.081937 S    
C10   C39   1.537883 S    
C25   C26   1.401809 A    
O26   C44   1.408645 S    
O15   V3    2.012675 S    
C25   C38   1.480925 S    
O31   C47   1.424252 S    
O22   H23   0.994553 S    
C2    C30   1.492523 S    
C44   H33   1.109371 S    
V2    O10   2.184923 S    
