data_mof_unit_34882.cif
_audit_creation_date              2012-12-10T20:48:45-0500
_audit_creation_method            fapswitch 2.2
_symmetry_space_group_name_H-M    P1
_symmetry_Int_Tables_number       1
_space_group_crystal_system       triclinic
_cell_length_a                    15.782551
_cell_length_b                    8.923294
_cell_length_c                    8.110965
_cell_angle_alpha                 89.966445
_cell_angle_beta                  89.754651
_cell_angle_gamma                 90.002563
_cell_volume                      1142.27553197

loop_
_atom_site_label
_atom_site_type_symbol
_atom_type_description
_atom_site_fract_x
_atom_site_fract_y
_atom_site_fract_z
_atom_type_partial_charge
C1    C     C_R   0.499998 0.218011 0.500031 0.934350
C2    C     C_1   0.825763 0.493292 0.498874 0.016783
C3    C     C_1   0.174238 0.493375 0.502827 0.011527
C4    C     C_R   0.337883 0.500000 0.500378 0.894257
C5    C     C_R   0.662117 0.500021 0.499643 0.892466
C6    C     C_1   0.499997 0.934776 0.499956 -0.195407
C7    C     C_1   0.499997 0.065205 0.500044 -0.195044
C8    C     C_R   0.499999 0.781967 0.499969 0.930808
C9    C     C_3   0.048862 0.445232 0.679918 0.310474
C10   C     C_3   0.049036 0.388305 0.359079 0.369744
C11   C     C_3   0.950776 0.462538 0.680503 0.374067
C12   C     C_3   0.950908 0.374063 0.368240 0.313437
C13   C     C_1   0.750714 0.496940 0.498830 -0.181722
C14   C     C_1   0.249287 0.496951 0.501515 -0.187608
C15   C     C_3   0.083099 0.489020 0.503907 0.054915
C16   C     C_3   0.916891 0.488710 0.500209 0.041650
C17   C     C_3   0.951324 0.646087 0.447058 -0.624352
C18   C     C_3   0.049132 0.650633 0.468209 -0.629009
H1    H     H_    0.065748 0.727967 0.570802 0.205071
H2    H     H_    0.078629 0.698176 0.354668 0.216605
H3    H     H_    0.922045 0.737096 0.522004 0.217296
H4    H     H_    0.934872 0.669887 0.316274 0.208769
H5    H     H_    0.059167 0.459874 0.248000 0.065108
H6    H     H_    0.075357 0.531399 0.766254 0.041346
H7    H     H_    0.924815 0.412950 0.247012 0.065984
H8    H     H_    0.941133 0.573529 0.740904 0.075984
N1    N     N_1   0.500000 0.500030 0.073640 -0.031621
N2    N     N_1   0.500000 0.500030 0.926360 -0.031594
O1    O     O_R   0.500000 0.285340 0.636850 -0.615515
O2    O     O_R   0.500000 0.285340 0.363150 -0.614595
O3    O     O_R   0.377140 0.500000 0.636930 -0.617063
O4    O     O_R   0.377140 0.500000 0.363070 -0.612563
O5    O     O_R   0.622860 0.500000 0.636930 -0.609876
O6    O     O_R   0.622860 0.500000 0.363070 -0.615989
O7    O     O_R   0.500000 0.714650 0.636900 -0.616247
O8    O     O_R   0.500000 0.714650 0.363100 -0.616165
Zn1   Zn    Zn3+2 0.500000 0.499990 0.682780 0.991910
Zn2   Zn    Zn3+2 0.500000 0.499990 0.317220 0.991879
O9    O     O_3   0.905168 0.369129 0.793020 -0.634201
C19   C     C_3   0.887729 0.223161 0.737725 -0.147571
H9    H     H_    0.944477 0.164526 0.690814 0.219580
H10   H     H_    0.834913 0.223291 0.648158 0.195989
H11   H     H_    0.865307 0.156874 0.845074 0.129073
O10   O     O_3   0.924832 0.225561 0.402593 -0.631392
C20   C     C_3   0.902783 0.148522 0.256949 -0.330016
H12   H     H_    0.954969 0.151396 0.164402 0.196686
H13   H     H_    0.843758 0.195776 0.203499 0.177962
H14   H     H_    0.890517 0.029440 0.288261 0.181837
O11   O     O_3   0.074493 0.299609 0.727330 -0.644910
C21   C     C_3   0.094251 0.293689 0.896784 -0.276181
H15   H     H_    0.105546 0.175175 0.931649 0.195745
H16   H     H_    0.041141 0.336230 0.974105 0.193095
H17   H     H_    0.153175 0.357729 0.922466 0.175532
O12   O     O_3   0.094162 0.257094 0.309309 -0.642990
C22   C     C_3   0.111088 0.152436 0.434460 -0.139636
H18   H     H_    0.054159 0.121535 0.506294 0.222398
H19   H     H_    0.164027 0.190808 0.513191 0.192715
H20   H     H_    0.133132 0.047530 0.374863 0.136227

loop_
_geom_bond_atom_site_label_1
_geom_bond_atom_site_label_2
_ccdc_geom_bond_type
C15   C18   S    
C21   H16   S    
C22   H18   S    
C9    H6    S    
C6    C7    T    
O4    Zn2   S    
C10   H5    S    
C2    C16   S    
C11   C16   S    
C5    C13   S    
C17   H4    S    
C12   H7    S    
C5    O6    A    
O8    Zn2   S    
C17   C18   S    
C9    C15   S    
C3    C15   S    
C12   O10   S    
C1    C7    S    
C20   H12   S    
C11   O9    S    
C9    C11   S    
C4    O4    A    
C3    C14   T    
C10   C12   S    
N2    Zn1   S    
C1    O1    A    
C19   H9    S    
O7    Zn1   S    
C21   H15   S    
C18   H2    S    
C10   C15   S    
C22   H19   S    
C4    C14   S    
C10   O12   S    
O5    Zn1   S    
C22   H20   S    
C4    O3    A    
C16   C17   S    
N1    Zn2   S    
C21   H17   S    
O3    Zn1   S    
O9    C19   S    
C9    O11   S    
O10   C20   S    
O2    Zn2   S    
C18   H1    S    
C8    O8    A    
C20   H13   S    
O1    Zn1   S    
N1    N2    T    
O11   C21   S    
C2    C13   T    
O12   C22   S    
C1    O2    A    
C6    C8    S    
C20   H14   S    
C11   H8    S    
O6    Zn2   S    
C19   H11   S    
C17   H3    S    
C12   C16   S    
C19   H10   S    
C8    O7    A    
C5    O5    A    
