data_mof_unit_26209.cif
_audit_creation_date              2012-12-10T17:32:16-0500
_audit_creation_method            fapswitch 2.2
_symmetry_space_group_name_H-M    P1
_symmetry_Int_Tables_number       1
_space_group_crystal_system       triclinic
_cell_length_a                    12.352628
_cell_length_b                    13.183152
_cell_length_c                    15.016802
_cell_angle_alpha                 77.235796
_cell_angle_beta                  100.347128
_cell_angle_gamma                 116.438942
_cell_volume                      2126.29236579

loop_
_atom_site_label
_atom_site_type_symbol
_atom_type_description
_atom_site_fract_x
_atom_site_fract_y
_atom_site_fract_z
_atom_type_partial_charge
C1    C     C_R   0.855169 0.286701 0.507338 0.752552
C2    C     C_R   0.106826 0.562726 0.097191 0.051335
C3    C     C_R   0.778326 0.392591 0.033964 -0.184256
C4    C     C_R   0.778433 0.395611 0.940575 -0.195119
C5    C     C_R   0.887645 0.452232 0.898998 0.123133
C6    C     C_R   0.998276 0.508573 0.951124 0.052936
C7    C     C_R   0.109374 0.566180 0.909754 0.026029
C8    C     C_R   0.218473 0.627119 0.962349 -0.036266
C9    C     C_R   0.215365 0.623839 0.055679 -0.185306
C10   C     C_R   0.888155 0.452382 0.806286 -0.231421
C11   C     C_R   0.998032 0.503044 0.766629 -0.064022
C12   C     C_R   0.998758 0.499769 0.670757 0.787469
C13   C     C_R   0.107696 0.558182 0.817897 -0.198732
C14   C     C_R   0.275566 0.030167 0.398071 -0.170355
C15   C     C_R   0.228877 0.835757 0.474176 -0.067137
C16   C     C_R   0.815938 0.083100 0.559919 -0.172504
C17   C     C_R   0.737557 0.967720 0.576805 -0.131253
C18   C     C_R   0.614371 0.931178 0.548697 -0.156423
C19   C     C_R   0.567045 0.009677 0.498952 0.086029
C20   C     C_R   0.649892 0.125378 0.472784 0.081962
C21   C     C_R   0.440452 0.977426 0.474094 0.082065
C22   C     C_R   0.400008 0.059020 0.419779 0.148420
C23   C     C_R   0.145063 0.713572 0.488480 0.847071
C24   C     C_R   0.484104 0.167571 0.385572 -0.213299
C25   C     C_R   0.607170 0.199011 0.409234 -0.190506
C26   C     C_R   0.352352 0.866679 0.501802 -0.213296
C27   C     C_R   0.190354 0.919228 0.425667 -0.124756
C28   C     C_R   0.773254 0.163622 0.510378 -0.095939
C29   C     C_R   0.336746 0.316213 0.640865 -0.296009
C30   C     C_R   0.753686 0.645113 0.372279 0.442113
C31   C     C_R   0.648456 0.660170 0.340958 -0.288352
C32   C     C_R   0.541281 0.590788 0.378967 0.343937
C33   C     C_R   0.543312 0.520535 0.464387 -0.142379
C34   C     C_R   0.999100 0.497906 0.329314 0.849058
C35   C     C_R   0.650627 0.500699 0.494566 0.165109
C36   C     C_R   0.442929 0.466718 0.519350 0.017857
C37   C     C_R   0.439706 0.377262 0.592033 0.160671
C38   C     C_R   0.540127 0.351627 0.616428 -0.267660
C39   C     C_R   0.644893 0.414984 0.571016 -0.122213
C40   C     C_R   0.347687 0.501876 0.508104 0.129163
C41   C     C_R   0.239190 0.346365 0.618427 0.070333
C42   C     C_R   0.105664 0.559012 0.190392 -0.164262
C43   C     C_R   0.998124 0.497726 0.232429 -0.063109
C44   C     C_R   0.888402 0.443204 0.180560 -0.247253
C45   C     C_R   0.887313 0.446884 0.086678 0.127838
C46   C     C_R   0.997521 0.506038 0.044926 0.066705
Cu1   Cu    Cu3+1 0.098270 0.475420 0.521130 0.985147
Cu2   Cu    Cu3+1 0.901730 0.524580 0.478870 0.983911
H1    H     H_    0.187359 0.606463 0.230065 0.228728
H2    H     H_    0.454705 0.228428 0.339678 0.164100
H3    H     H_    0.244320 0.092788 0.357849 0.160915
H4    H     H_    0.377258 0.801671 0.544014 0.150154
H5    H     H_    0.909858 0.109600 0.587900 0.156590
H6    H     H_    0.559512 0.840608 0.566109 0.128522
H7    H     H_    0.771854 0.906418 0.614817 0.149101
H8    H     H_    0.667766 0.281121 0.375170 0.171635
H9    H     H_    0.158239 0.297568 0.654222 0.130564
H10   H     H_    0.539363 0.284424 0.673304 0.149674
H11   H     H_    0.331501 0.245500 0.695527 0.150950
H12   H     H_    0.804499 0.397860 0.213440 0.133039
H13   H     H_    0.352962 0.579792 0.464152 0.185444
H14   H     H_    0.646634 0.720358 0.278990 0.253922
H15   H     H_    0.718757 0.392527 0.597272 0.195048
H16   H     H_    0.693169 0.347506 0.065024 0.155208
H17   H     H_    0.693262 0.352585 0.901004 0.149244
H18   H     H_    0.803752 0.409761 0.765655 0.131470
H19   H     H_    0.190715 0.594421 0.784842 0.181400
H20   H     H_    0.297891 0.671207 0.095983 0.233134
H21   H     H_    0.095134 0.898049 0.406179 0.217846
N1    N     N_R   0.246280 0.438190 0.553160 -0.196987
N2    N     N_R   0.754320 0.561190 0.447410 -0.263794
O1    O     O_R   0.972510 0.318130 0.526570 -0.582472
O2    O     O_R   0.806530 0.359650 0.490890 -0.613870
O3    O     O_R   0.082980 0.479210 0.647590 -0.588169
O4    O     O_R   0.917000 0.520730 0.611900 -0.600830
O5    O     O_R   0.193470 0.640350 0.509110 -0.597780
O6    O     O_R   0.027490 0.681870 0.473430 -0.533674
O7    O     O_R   0.083000 0.479270 0.388100 -0.537668
O8    O     O_R   0.917020 0.520790 0.352410 -0.554606
S1    S     S_3+6 0.868148 0.734008 0.294653 0.031273
O9    O     O_2   0.889759 0.856047 0.292619 -0.286651
O10   O     O_2   0.989409 0.730584 0.308823 -0.277856
O11   O     O_3   0.806647 0.701117 0.189643 -0.486566
H22   H     H_    0.789900 0.619415 0.194268 0.345038
S2    S     S_3+6 0.410404 0.579891 0.303255 -0.053227
O12   O     O_2   0.384144 0.679632 0.307144 -0.335263
O13   O     O_2   0.437522 0.588973 0.207305 -0.289000
O14   O     O_3   0.289838 0.454420 0.329437 -0.549735
H23   H     H_    0.250690 0.427874 0.270176 0.370900
C47   C     C_2   0.336890 0.697925 0.923220 0.840490
O15   O     O_2   0.342124 0.758009 0.847914 -0.610668
O16   O     O_R   0.443735 0.700196 0.975130 -0.711350
H24   H     H_    0.518921 0.752789 0.942193 0.346759

loop_
_geom_bond_atom_site_label_1
_geom_bond_atom_site_label_2
_ccdc_geom_bond_type
C16   C28   A    
C21   C26   A    
C12   O3    A    
C19   C20   A    
C31   H14   S    
C25   H8    S    
C23   O5    A    
C30   N2    A    
C7    C8    A    
S2    O12   D    
C2    C46   A    
C40   N1    A    
Cu2   O8    S    
C36   C37   A    
C19   C21   A    
C44   H12   S    
Cu1   O5    S    
C4    H17   S    
C16   C17   A    
C20   C25   A    
C33   C36   A    
C18   C19   A    
C16   H5    S    
C38   H10   S    
C47   O16   S    
O11   H22   S    
C8    C9    A    
C1    C28   S    
C14   C27   A    
C17   H7    S    
C27   H21   S    
C30   S1    S    
C15   C23   S    
C35   N2    A    
C21   C22   A    
Cu2   O4    S    
S1    O11   S    
C10   H18   S    
C24   H2    S    
C38   C39   A    
C1    O1    A    
S2    O13   D    
Cu1   Cu2   S    
C29   H11   S    
C36   C40   A    
C24   C25   A    
S1    O10   D    
S1    O9    D    
C15   C26   A    
C20   C28   A    
C45   C46   A    
C3    C45   A    
C40   H13   S    
Cu2   O6    S    
C35   C39   A    
C43   C44   A    
Cu1   N1    S    
C37   C38   A    
C26   H4    S    
C34   O8    A    
C15   C27   A    
C14   H3    S    
C30   C31   A    
C17   C18   A    
C23   O6    A    
C22   C24   A    
C8    C47   S    
C42   C43   A    
Cu2   N2    S    
C3    C4    A    
C44   C45   A    
C13   H19   S    
S2    O14   S    
C6    C46   A    
C29   C41   A    
Cu2   O2    S    
C31   C32   A    
C34   C43   S    
Cu1   O3    S    
C4    C5    A    
C11   C12   S    
C6    C7    A    
C39   H15   S    
C1    O2    A    
C32   C33   A    
C14   C22   A    
C9    H20   S    
C41   H9    S    
C5    C10   A    
C34   O7    A    
C11   C13   A    
C47   O15   D    
C5    C6    A    
C2    C42   A    
C32   S2    S    
O16   H24   S    
C33   C35   A    
C3    H16   S    
Cu1   O1    S    
C10   C11   A    
C18   H6    S    
C42   H1    S    
C7    C13   A    
O14   H23   S    
C12   O4    A    
C29   C37   A    
Cu1   O7    S    
C2    C9    A    
C41   N1    A    
