data_mof_unit_38189.cif
_audit_creation_date              2012-12-10T19:15:24-0500
_audit_creation_method            fapswitch 2.2
_symmetry_space_group_name_H-M    P1
_symmetry_Int_Tables_number       1
_space_group_crystal_system       triclinic
_cell_length_a                    10.663224
_cell_length_b                    9.783631
_cell_length_c                    23.394315
_cell_angle_alpha                 89.928124
_cell_angle_beta                  90.415951
_cell_angle_gamma                 90.099774
_cell_volume                      2440.54315963

loop_
_atom_site_label
_atom_site_type_symbol
_atom_type_description
_atom_site_fract_x
_atom_site_fract_y
_atom_site_fract_z
_atom_type_partial_charge
C1    C     C_R   0.258095 0.500093 0.499172 0.881470
C2    C     C_R   0.347548 0.350012 0.970978 -0.153388
C3    C     C_R   0.349276 0.348201 0.030305 -0.153240
C4    C     C_R   0.443339 0.418282 0.060492 -0.015315
C5    C     C_R   0.537682 0.489320 0.030633 -0.018466
C6    C     C_R   0.631944 0.559754 0.060956 -0.026882
C7    C     C_R   0.726078 0.629162 0.031221 -0.194895
C8    C     C_R   0.727216 0.630814 0.971558 -0.022739
C9    C     C_R   0.444747 0.420417 0.120134 0.510593
C10   C     C_R   0.628582 0.560539 0.120728 0.519374
C11   C     C_R   0.623118 0.436316 0.242691 -0.079303
C12   C     C_R   0.501748 0.500191 0.389585 0.897667
C13   C     C_R   0.614190 0.438057 0.301871 -0.186897
C14   C     C_R   0.511700 0.500915 0.327891 -0.029325
C15   C     C_R   0.420517 0.566429 0.294693 -0.176272
C16   C     C_R   0.429529 0.565637 0.235573 -0.074168
C17   C     C_R   0.530074 0.499141 0.209508 0.287902
C18   C     C_R   0.541527 0.375480 0.761094 -0.088437
C19   C     C_R   0.532822 0.376369 0.701927 -0.198761
C20   C     C_R   0.507330 0.498912 0.672840 -0.022991
C21   C     C_R   0.490407 0.620419 0.703632 -0.199829
C22   C     C_R   0.498251 0.618982 0.762917 -0.088549
C23   C     C_R   0.742033 0.500272 0.500098 0.981148
C24   C     C_R   0.523895 0.496558 0.791607 0.312488
C25   C     C_3   0.073677 0.439846 0.557530 -0.248986
C26   C     C_3   0.070584 0.409708 0.449089 -0.231358
C27   C     C_3   0.927695 0.445673 0.558706 0.189778
C28   C     C_3   0.925719 0.401533 0.452477 0.186939
C29   C     C_3   0.071193 0.648899 0.492385 -0.418746
C30   C     C_3   0.121321 0.500329 0.499468 -0.029222
C31   C     C_3   0.878083 0.500459 0.500019 -0.045032
C32   C     C_3   0.929047 0.647945 0.489288 -0.443535
C33   C     C_3   0.380749 0.080892 0.474065 -0.103678
C34   C     C_3   0.388007 0.919349 0.467789 -0.105045
C35   C     C_3   0.610838 0.080750 0.467966 -0.114664
C36   C     C_3   0.618395 0.919332 0.474522 -0.103206
C37   C     C_3   0.506498 0.080736 0.557886 -0.308231
C38   C     C_3   0.493982 0.918900 0.557875 -0.306521
C39   C     C_R   0.501204 0.499843 0.610600 0.910196
C40   C     C_R   0.625090 0.560798 0.879957 0.504396
C41   C     C_R   0.437970 0.425546 0.881307 0.508262
C42   C     C_R   0.440279 0.421257 0.940773 -0.008401
C43   C     C_R   0.536838 0.490669 0.970461 -0.027270
C44   C     C_R   0.631409 0.561874 0.940235 -0.060619
H1    H     H_    0.273012 0.295768 0.948897 0.196797
H2    H     H_    0.547101 0.281543 0.679046 0.151908
H3    H     H_    0.470461 0.716008 0.682023 0.152181
H4    H     H_    0.483843 0.712525 0.786660 0.145358
H5    H     H_    0.101914 0.330378 0.559605 0.104502
H6    H     H_    0.107676 0.304072 0.454145 0.115432
H7    H     H_    0.893524 0.338797 0.564159 0.118170
H8    H     H_    0.902181 0.295124 0.465705 0.119136
H9    H     H_    0.101927 0.713562 0.529054 0.186937
H10   H     H_    0.108839 0.697264 0.452938 0.188131
H11   H     H_    0.892129 0.722056 0.520954 0.183582
H12   H     H_    0.898228 0.687382 0.446980 0.187800
H13   H     H_    0.276050 0.292829 0.052375 0.196686
H14   H     H_    0.302893 0.102621 0.504275 0.101465
H15   H     H_    0.301755 0.876328 0.487351 0.111672
H16   H     H_    0.596513 0.110991 0.578721 0.158602
H17   H     H_    0.569784 0.874303 0.584926 0.172314
H18   H     H_    0.431142 0.125194 0.584688 0.169983
H19   H     H_    0.404349 0.888507 0.578463 0.159302
H20   H     H_    0.697557 0.124072 0.487515 0.112463
H21   H     H_    0.696495 0.898139 0.505203 0.101316
H22   H     H_    0.799253 0.683147 0.054483 0.194197
H23   H     H_    0.701349 0.385431 0.222589 0.161053
H24   H     H_    0.687391 0.391351 0.327234 0.209673
H25   H     H_    0.341533 0.615809 0.314313 0.171381
H26   H     H_    0.357790 0.614972 0.209897 0.153882
H27   H     H_    0.561558 0.280819 0.783376 0.145175
N1    N     N_R   0.529225 0.494344 0.852481 -0.357141
N2    N     N_R   0.535384 0.492391 0.148759 -0.358513
N3    N     N_3   0.499750 0.138610 0.498760 -0.077427
N4    N     N_3   0.499750 0.861390 0.498760 -0.075781
O1    O     O_R   0.314910 0.616040 0.499990 -0.638308
O2    O     O_R   0.314910 0.383960 0.499990 -0.643225
O3    O     O_R   0.500080 0.616070 0.416130 -0.610141
O4    O     O_R   0.500080 0.383930 0.416130 -0.602839
O5    O     O_R   0.685320 0.616040 0.499970 -0.634664
O6    O     O_R   0.685320 0.383960 0.499970 -0.642643
O7    O     O_R   0.500150 0.616010 0.583820 -0.629615
O8    O     O_R   0.500150 0.383990 0.583820 -0.635670
O9    O     O_2   0.713462 0.624395 0.848636 -0.541419
O10   O     O_2   0.344543 0.362555 0.852234 -0.550254
O11   O     O_2   0.356319 0.351334 0.149480 -0.541545
O12   O     O_2   0.716352 0.630340 0.150665 -0.545258
Zn1   Zn    Zn3+2 0.500150 0.654960 0.499970 0.937699
Zn2   Zn    Zn3+2 0.500150 0.345040 0.499970 0.939856
C45   C     C_1   0.132816 0.505851 0.607989 0.245262
N5    N     N_1   0.179140 0.557374 0.647342 -0.196319
C46   C     C_1   0.113265 0.458129 0.392580 0.270443
N6    N     N_1   0.144815 0.495363 0.348028 -0.203709
O13   O     O_3   0.879147 0.519742 0.605342 -0.743064
H28   H     H_    0.911509 0.614575 0.603641 0.349908
O14   O     O_3   0.864767 0.420832 0.399333 -0.771171
H29   H     H_    0.873983 0.517579 0.387687 0.346092
C47   C     C_1   0.339944 0.151761 0.421247 0.223994
N7    N     N_1   0.306782 0.205015 0.379605 -0.172746
C48   C     C_1   0.382343 0.875702 0.407453 0.218318
N8    N     N_1   0.377009 0.845759 0.359716 -0.195426
C49   C     C_1   0.614736 0.123669 0.407451 0.256795
N9    N     N_1   0.618371 0.152946 0.359592 -0.175142
C50   C     C_1   0.659499 0.847968 0.422190 0.231071
N10   N     N_1   0.693337 0.793951 0.381098 -0.188646
C51   C     C_1   0.828121 0.705556 0.944797 0.288791
N11   N     N_1   0.909129 0.765532 0.923611 -0.152904

loop_
_geom_bond_atom_site_label_1
_geom_bond_atom_site_label_2
_ccdc_geom_bond_type
C22   H4    S    
C37   N3    S    
C35   N3    S    
C33   H14   S    
C1    O2    A    
C41   C42   A    
C40   O9    S    
C35   C36   S    
C35   C49   S    
C37   H18   S    
C19   H2    S    
C7    C8    A    
O2    Zn2   S    
C25   C45   S    
C37   C38   S    
C18   C24   A    
N3    Zn2   S    
C18   C19   A    
C29   C32   S    
C26   H6    S    
C5    C6    A    
C10   N2    A    
C11   C13   A    
C29   H10   S    
C26   C46   S    
C15   C16   A    
C12   O4    A    
C25   C30   S    
C33   C47   S    
C46   N6    T    
C19   C20   A    
C11   H23   S    
C16   C17   A    
C12   O3    A    
C34   C48   S    
C35   H20   S    
C23   O5    A    
C40   N1    A    
O1    Zn1   S    
C32   H11   S    
C34   N4    S    
C38   H17   S    
O6    Zn2   S    
C5    C43   A    
C21   C22   A    
C17   N2    S    
O13   H28   S    
C9    N2    A    
C15   H25   S    
C50   N10   T    
C27   H7    S    
C38   N4    S    
C2    H1    S    
O8    Zn2   S    
C10   O12   S    
C27   C31   S    
C16   H26   S    
C20   C39   S    
C36   H21   S    
C23   C31   S    
C43   C44   A    
C29   C30   S    
C36   N4    S    
C9    O11   S    
N4    Zn1   S    
C31   C32   S    
O14   H29   S    
C33   C34   S    
C41   N1    A    
C3    H13   S    
C12   C14   S    
C26   C30   S    
C34   H15   S    
C22   C24   A    
C42   C43   A    
C3    C4    A    
C24   N1    S    
C38   H19   S    
O3    Zn1   S    
C18   H27   S    
C11   C17   A    
C23   O6    A    
C1    O1    A    
C28   C31   S    
C8    C44   A    
C39   O7    A    
C4    C5    A    
C8    C51   S    
C6    C10   A    
C6    C7    A    
C25   C27   S    
C41   O10   S    
C26   C28   S    
C28   O14   S    
C36   C50   S    
C2    C3    A    
C39   O8    A    
O5    Zn1   S    
C7    H22   S    
C28   H8    S    
C45   N5    T    
C29   H9    S    
C2    C42   A    
O7    Zn1   S    
C1    C30   S    
C49   N9    T    
C25   H5    S    
O4    Zn2   S    
C37   H16   S    
C33   N3    S    
C40   C44   A    
C20   C21   A    
C47   N7    T    
C51   N11   T    
C14   C15   A    
C27   O13   S    
C48   N8    T    
C4    C9    A    
C13   C14   A    
C32   H12   S    
C21   H3    S    
C13   H24   S    
