data_mof_unit_8313.cif
_audit_creation_date              2013-03-05T15:59:02-0500
_audit_creation_method            fapswitch 2.2
_symmetry_space_group_name_H-M    P1
_symmetry_Int_Tables_number       1
_space_group_crystal_system       triclinic
_cell_length_a                    15.117051
_cell_length_b                    13.679618
_cell_length_c                    19.447012
_cell_angle_alpha                 90.622307
_cell_angle_beta                  90.383131
_cell_angle_gamma                 90.214828
_cell_volume                      4021.19775196

loop_
_atom_site_label
_atom_site_type_symbol
_atom_site_description
_atom_site_fract_x
_atom_site_fract_y
_atom_site_fract_z
_atom_type_partial_charge
O1    O     O_R   0.370260 0.582280 0.500020 -0.581903
O2    O     O_R   0.629740 0.417720 0.499980 -0.563122
O3    O     O_R   0.629740 0.582280 0.499980 -0.563940
O4    O     O_R   0.370260 0.417720 0.500020 -0.569964
C1    C     C_R   0.328850 0.499845 0.500503 0.913898
C2    C     C_R   0.671060 0.500208 0.500042 0.938535
O5    O     O_R   0.499990 0.582300 0.400140 -0.569088
O6    O     O_R   0.500010 0.417700 0.599860 -0.573265
O7    O     O_R   0.500010 0.582300 0.599860 -0.533421
O8    O     O_R   0.499990 0.417700 0.400140 -0.540789
C3    C     C_R   0.503132 0.499062 0.367234 0.975205
C4    C     C_R   0.503355 0.500789 0.632677 0.970253
Cu1   Cu    Cu3+1 0.500000 0.597420 0.500000 1.085191
Cu2   Cu    Cu3+1 0.500000 0.402580 0.500000 1.090074
C5    C     C_R   0.544633 0.576651 0.254909 0.245410
C6    C     C_R   0.549462 0.423930 0.744220 0.216018
C7    C     C_R   0.474185 0.581847 0.747088 0.262625
C8    C     C_R   0.482958 0.411513 0.253148 0.248696
C9    C     C_R   0.548639 0.574102 0.182716 0.363389
C10   C     C_R   0.552536 0.424800 0.816478 0.361376
C11   C     C_R   0.465263 0.574446 0.818503 0.325407
C12   C     C_R   0.475526 0.414679 0.181480 0.359685
C13   C     C_R   0.509688 0.495444 0.145527 -0.267130
C14   C     C_R   0.507033 0.497844 0.854047 -0.259355
C15   C     C_R   0.509704 0.495965 0.290967 -0.359033
C16   C     C_R   0.510026 0.502797 0.708799 -0.354011
N1    N     N_R   0.514262 0.411155 0.033001 -0.184966
N2    N     N_R   0.500555 0.581539 0.966732 -0.174295
N3    N     N_R   0.512783 0.411524 0.964662 -0.189513
N4    N     N_R   0.500887 0.581094 0.035061 -0.185442
C17   C     C_R   0.506201 0.496787 0.930118 0.429959
C18   C     C_R   0.508020 0.495874 0.069547 0.421062
C19   C     C_R   0.812646 0.449784 0.448266 0.298842
C20   C     C_R   0.187295 0.544605 0.555341 0.279932
C21   C     C_R   0.767415 0.500834 0.499970 -0.269123
C22   C     C_R   0.232190 0.499352 0.501029 -0.278275
C23   C     C_R   0.813562 0.552500 0.551642 0.282376
C24   C     C_R   0.186089 0.454010 0.446808 0.277519
C25   C     C_R   0.906655 0.544883 0.555896 -0.111873
C26   C     C_R   0.092735 0.458075 0.444050 -0.119622
C27   C     C_R   0.952984 0.500900 0.500326 -0.051300
C28   C     C_R   0.046571 0.499960 0.500670 -0.048045
C29   C     C_R   0.905567 0.457925 0.444328 -0.110842
C30   C     C_R   0.093902 0.540371 0.557821 -0.110761
C31   C     C_R   0.954177 0.577139 0.614943 0.256634
C32   C     C_R   0.044358 0.424037 0.385707 0.263149
C33   C     C_R   0.046701 0.573356 0.616365 0.265488
C34   C     C_R   0.951890 0.425436 0.385507 0.266626
C35   C     C_R   0.441815 0.793647 0.540746 0.110235
C36   C     C_R   0.557247 0.206362 0.458483 0.124055
C37   C     C_R   0.558628 0.793101 0.459804 0.098765
C38   C     C_R   0.442523 0.207180 0.541399 0.099299
N5    N     N_R   0.500000 0.743810 0.500000 -0.216445
N6    N     N_R   0.500000 0.256190 0.500000 -0.204199
C39   C     C_R   0.559538 0.896106 0.458379 -0.013699
C40   C     C_R   0.440938 0.104094 0.542273 -0.002431
C41   C     C_R   0.440642 0.896777 0.542015 -0.014827
C42   C     C_R   0.558891 0.103297 0.457734 -0.017327
C43   C     C_R   0.499975 0.948253 0.500099 0.086892
C44   C     C_R   0.499927 0.051902 0.500032 0.090667
C45   C     C_R   0.618386 0.947925 0.416433 -0.127010
C46   C     C_R   0.382109 0.052185 0.584200 -0.151962
C47   C     C_R   0.381870 0.949417 0.583997 -0.114198
C48   C     C_R   0.617884 0.050642 0.415959 -0.116239
H1    H     H_    0.396670 0.752938 0.572560 0.197838
H2    H     H_    0.601611 0.247055 0.425948 0.188034
H3    H     H_    0.604965 0.752189 0.429049 0.191108
H4    H     H_    0.397831 0.248520 0.573712 0.135634
H5    H     H_    0.664617 0.909026 0.383877 0.181301
H6    H     H_    0.336225 0.091034 0.617074 0.161719
H7    H     H_    0.335818 0.911135 0.616707 0.193794
H8    H     H_    0.663755 0.088876 0.383075 0.194334
N7    N     N_R   0.585030 0.657282 0.291149 0.136056
O9    O     O_R   0.564537 0.746630 0.275442 -0.314988
O10   O     O_R   0.651864 0.641710 0.332049 -0.386389
N8    N     N_R   0.591764 0.345305 0.707581 0.149867
O11   O     O_R   0.652989 0.363782 0.662763 -0.336437
O12   O     O_R   0.576089 0.255050 0.724238 -0.293353
N9    N     N_R   0.450207 0.672011 0.714845 0.175439
O13   O     O_R   0.512627 0.729088 0.692684 -0.296313
O14   O     O_R   0.371187 0.707591 0.722520 -0.285033
N10   N     N_R   0.468821 0.319478 0.285919 0.170442
O15   O     O_R   0.393850 0.300287 0.315111 -0.277495
O16   O     O_R   0.525555 0.249353 0.276803 -0.297400
O17   O     O_3   0.589405 0.650975 0.149193 -0.530068
C49   C     C_3   0.673117 0.621743 0.123734 0.070148
H9    H     H_    0.687032 0.666538 0.077707 0.191298
H10   H     H_    0.675333 0.543893 0.106247 0.124970
C50   C     C_3   0.746091 0.640576 0.177297 -0.303690
H11   H     H_    0.741591 0.716981 0.196954 0.266039
H12   H     H_    0.737363 0.589801 0.220862 0.277336
C51   C     C_3   0.837680 0.624159 0.146834 -0.795777
H13   H     H_    0.844013 0.547633 0.127844 0.269153
H14   H     H_    0.888933 0.637700 0.187020 0.291408
H15   H     H_    0.849269 0.675115 0.103702 0.246641
O18   O     O_3   0.598533 0.351398 0.849730 -0.530976
C52   C     C_3   0.680843 0.387555 0.874807 0.069936
H16   H     H_    0.696336 0.347776 0.922894 0.191531
H17   H     H_    0.680084 0.466882 0.888867 0.124213
C53   C     C_3   0.754426 0.367786 0.822829 -0.298945
H18   H     H_    0.752814 0.289555 0.806806 0.266608
H19   H     H_    0.743726 0.413542 0.776761 0.276057
C54   C     C_3   0.845289 0.391990 0.853310 -0.788886
H20   H     H_    0.848873 0.470443 0.868485 0.271919
H21   H     H_    0.897081 0.377057 0.814404 0.292269
H22   H     H_    0.858566 0.346228 0.899046 0.244247
O19   O     O_3   0.418996 0.646165 0.853603 -0.537171
C55   C     C_3   0.331609 0.612265 0.863874 0.116915
H23   H     H_    0.331277 0.548682 0.899174 0.123594
H24   H     H_    0.299769 0.589934 0.814181 0.202264
C56   C     C_3   0.277106 0.694347 0.896133 -0.288892
H25   H     H_    0.307272 0.716433 0.946255 0.236803
H26   H     H_    0.277508 0.758659 0.861673 0.265737
C57   C     C_3   0.181643 0.662110 0.907706 -0.819557
H27   H     H_    0.149712 0.641328 0.858015 0.305644
H28   H     H_    0.143864 0.723260 0.931163 0.267166
H29   H     H_    0.179556 0.598802 0.942968 0.245801
O20   O     O_3   0.439890 0.334194 0.147125 -0.530763
C58   C     C_3   0.354214 0.356090 0.121475 0.046567
H30   H     H_    0.346851 0.318395 0.070847 0.193090
H31   H     H_    0.342793 0.435423 0.112002 0.120997
C59   C     C_3   0.283037 0.317576 0.169851 -0.282833
H32   H     H_    0.296140 0.239572 0.181510 0.267160
H33   H     H_    0.284768 0.360412 0.218659 0.284630
C60   C     C_3   0.191075 0.326410 0.137668 -0.770246
H34   H     H_    0.175422 0.404321 0.127837 0.262536
H35   H     H_    0.140900 0.296447 0.173148 0.314729
H36   H     H_    0.187396 0.284429 0.088511 0.238369
N11   N     N_R   0.764141 0.386788 0.401810 0.148783
O21   O     O_R   0.778608 0.293093 0.401791 -0.326915
O22   O     O_R   0.703538 0.422130 0.361392 -0.334947
N12   N     N_R   0.237622 0.596473 0.606791 0.157107
O23   O     O_R   0.293060 0.549702 0.645763 -0.366122
O24   O     O_R   0.234384 0.691427 0.609923 -0.312288
N13   N     N_R   0.765476 0.614302 0.598291 0.162618
O25   O     O_R   0.707641 0.577159 0.639912 -0.310534
O26   O     O_R   0.774366 0.708757 0.595006 -0.280855
N14   N     N_R   0.235598 0.404169 0.394830 0.161269
O27   O     O_R   0.242975 0.309538 0.396901 -0.266212
O28   O     O_R   0.283417 0.454030 0.352166 -0.353919
N15   N     N_R   0.909263 0.600675 0.677671 0.178404
O29   O     O_R   0.910219 0.689712 0.701868 -0.233968
O30   O     O_R   0.873785 0.531282 0.713569 -0.329948
N16   N     N_R   0.087786 0.396607 0.323186 0.170918
O31   O     O_R   0.109292 0.463441 0.279192 -0.322801
O32   O     O_R   0.093824 0.304781 0.305829 -0.276358
N17   N     N_R   0.090869 0.591031 0.680911 0.174119
O33   O     O_R   0.092181 0.678256 0.708239 -0.258166
O34   O     O_R   0.121897 0.517849 0.715647 -0.330397
N18   N     N_R   0.906287 0.406228 0.321730 0.181832
O35   O     O_R   0.866680 0.477202 0.290092 -0.327052
O36   O     O_R   0.910793 0.320586 0.292246 -0.240549

loop_
_geom_bond_atom_site_label_1
_geom_bond_atom_site_label_2
_geom_bond_distance
_ccdc_geom_bond_type
C24   C26   1.413229 A    
C34   N18   1.436213 S    
N1    N3    1.329085 A    
C27   C29   1.420492 A    
N7    O9    1.301088 A    
C9    C13   1.414281 A    
N17   O33   1.300952 A    
O3    C2    1.286833 A    
C57   H27   1.111032 S    
N14   O27   1.300755 A    
N13   O25   1.301067 A    
C25   C27   1.421115 A    
O17   C49   1.419262 S    
C55   H23   1.113909 S    
C26   C32   1.419093 A    
C36   N6    1.366465 A    
C35   H1    1.081184 S    
O1    C1    1.287884 A    
C7    C16   1.417624 A    
C21   C23   1.402656 A    
N8    O12   1.301140 A    
C39   C43   1.407093 A    
N15   O30   1.300652 A    
C49   H10   1.115111 S    
C5    C15   1.416394 A    
C3    C15   1.487315 S    
C42   C44   1.408237 A    
C1    C22   1.461307 S    
C52   H16   1.111087 S    
C7    N9    1.436299 S    
C35   C41   1.410904 A    
C2    C21   1.456616 S    
C46   H6    1.083311 S    
N13   O26   1.300881 A    
C27   C28   1.414833 A    
O7    Cu1   1.955194 S    
O20   C58   1.418991 S    
C51   H13   1.110979 S    
C8    N10   1.433235 S    
C54   H21   1.110384 S    
C10   C14   1.414705 A    
N12   O23   1.300825 A    
C60   H36   1.110811 S    
O19   C55   1.414575 S    
C23   N13   1.436289 S    
C50   H12   1.109610 S    
C29   C34   1.413648 A    
C20   C22   1.399261 A    
O3    Cu1   1.972965 S    
C30   C33   1.418129 A    
O6    C4    1.298127 A    
C25   C31   1.415963 A    
C58   H31   1.116619 S    
C10   O18   1.386796 S    
C20   N12   1.433078 S    
C43   C44   1.417902 A    
Cu2   N6    2.002559 S    
C8    C12   1.398655 A    
Cu1   Cu2   2.665335 S    
C31   N15   1.434200 S    
N7    O10   1.301288 A    
O2    C2    1.287684 A    
C8    C15   1.418841 A    
C28   C30   1.423310 A    
C53   H19   1.109758 S    
C52   H17   1.116314 S    
C38   N6    1.367227 A    
C41   C47   1.405764 A    
Cu1   N5    2.002559 S    
C31   C33   1.399937 A    
C6    C16   1.417505 A    
C33   N17   1.435568 S    
C36   C42   1.410121 A    
C20   C30   1.413965 A    
N8    O11   1.301530 A    
N16   O32   1.300851 A    
O8    Cu2   1.955194 S    
N9    O14   1.300496 A    
C49   H9    1.111026 S    
N16   O31   1.300772 A    
C32   N16   1.432731 S    
C42   C48   1.405665 A    
C53   C54   1.526149 S    
C7    C11   1.400952 A    
C40   C44   1.407684 A    
C4    C16   1.483065 S    
C37   N5    1.366537 A    
C19   C29   1.411330 A    
C54   H22   1.110813 S    
C45   C48   1.405306 A    
C5    C9    1.405722 A    
C46   C47   1.405782 A    
N18   O36   1.300942 A    
O5    C3    1.301267 A    
C6    C10   1.405578 A    
O18   C52   1.418710 S    
C51   H14   1.110415 S    
C24   N14   1.430301 S    
C56   H26   1.111723 S    
C37   H3    1.078380 S    
C50   C51   1.526033 S    
C36   H2    1.081888 S    
C11   O19   1.383717 S    
N14   O28   1.301068 A    
N12   O24   1.300818 A    
C5    N7    1.434751 S    
C47   H7    1.083488 S    
N10   O16   1.300667 A    
C60   H34   1.110932 S    
C40   C46   1.406234 A    
O1    Cu1   1.971422 S    
C59   H33   1.110156 S    
C52   C53   1.530873 S    
N11   O21   1.301044 A    
C58   C59   1.529837 S    
C19   N11   1.437347 S    
C12   O20   1.386920 S    
O6    Cu2   1.950726 S    
C56   H25   1.111741 S    
N17   O34   1.300957 A    
N1    C18   1.356814 A    
C6    N8    1.438081 S    
N2    C17   1.357228 A    
O4    C1    1.288101 A    
C9    O17   1.387815 S    
C49   C50   1.531337 S    
C38   H4    1.082567 S    
C57   H28   1.110301 S    
C58   H30   1.111182 S    
N18   O35   1.300805 A    
C55   C56   1.527001 S    
C45   H5    1.083437 S    
C13   C18   1.477720 S    
C59   C60   1.526497 S    
C22   C24   1.398193 A    
C50   H11   1.111490 S    
C14   C17   1.479707 S    
N3    C17   1.355959 A    
N15   O29   1.300946 A    
N4    C18   1.355492 A    
C35   N5    1.366895 A    
C39   C45   1.405998 A    
N2    N4    1.328839 A    
C53   H18   1.111500 S    
C19   C21   1.401333 A    
C55   H24   1.115859 S    
C56   C57   1.526260 S    
C37   C39   1.409649 A    
C51   H15   1.110804 S    
O4    Cu2   1.972965 S    
O2    Cu2   1.971422 S    
O7    C4    1.291747 A    
C57   H29   1.110956 S    
C41   C43   1.407955 A    
O8    C3    1.290735 A    
N9    O13   1.301146 A    
C32   C34   1.398023 A    
O5    Cu1   1.950726 S    
C23   C25   1.413458 A    
N10   O15   1.298189 A    
C11   C14   1.410480 A    
C54   H20   1.110975 S    
C60   H35   1.109145 S    
C26   C28   1.423824 A    
C12   C13   1.411914 A    
C59   H32   1.111545 S    
C38   C40   1.410580 A    
C48   H8    1.083442 S    
N11   O22   1.301071 A    
