data_mof_unit_26704.cif
_audit_creation_date              2012-10-26T18:59:56-0400
_audit_creation_method            fapswitch 2.2
_symmetry_space_group_name_H-M    P1
_symmetry_Int_Tables_number       1
_space_group_crystal_system       triclinic
_cell_length_a                    9.613911
_cell_length_b                    10.85386
_cell_length_c                    17.053491
_cell_angle_alpha                 85.342671
_cell_angle_beta                  93.432524
_cell_angle_gamma                 90.864846
_cell_volume                      1770.34725159

loop_
_atom_site_label
_atom_site_type_symbol
_atom_type_description
_atom_site_fract_x
_atom_site_fract_y
_atom_site_fract_z
_atom_type_partial_charge
C1    C     C_R   0.499829 0.262059 0.502373 0.533574
C2    C     C_R   0.500278 0.127607 0.513383 0.002200
C3    C     C_R   0.375486 0.059520 0.507469 -0.195882
C4    C     C_R   0.515810 0.507034 0.650496 0.537232
C5    C     C_R   0.376670 0.930690 0.516685 -0.172779
C6    C     C_R   0.503044 0.867441 0.519498 -0.006033
C7    C     C_R   0.624199 0.934768 0.537781 -0.041492
C8    C     C_3   0.772326 0.931985 0.516223 -0.265765
C9    C     C_3   0.771248 0.073535 0.516668 0.164586
C10   C     C_R   0.064770 0.543347 0.434539 0.129678
C11   C     C_R   0.080708 0.431148 0.557002 0.338051
C12   C     C_R   0.641380 0.561898 0.776152 -0.220360
C13   C     C_R   0.929717 0.433792 0.558467 0.354426
C14   C     C_R   0.919891 0.543390 0.435014 0.086537
C15   C     C_3   0.907911 0.664728 0.388392 0.161471
C16   C     C_R   0.501633 0.736655 0.505277 0.525626
C17   C     C_3   0.067148 0.657937 0.377829 0.525300
C18   C     C_R   0.483445 0.495309 0.349476 0.535649
C19   C     C_R   0.518745 0.523272 0.736101 -0.000395
C20   C     C_R   0.397011 0.506364 0.778808 0.250060
C21   C     C_R   0.408651 0.498658 0.861115 -0.095946
C22   C     C_R   0.536829 0.522117 0.901429 0.171342
C23   C     C_R   0.600163 0.461881 0.144792 0.275164
C24   C     C_R   0.650923 0.559829 0.858186 -0.140120
C25   C     C_3   0.738190 0.099479 0.375647 -0.004022
C26   C     C_3   0.697684 0.205880 0.316080 -0.356526
C27   C     C_3   0.137940 0.235627 0.610341 0.006757
C28   C     C_3   0.248649 0.165462 0.662930 -0.360317
C29   C     C_3   0.891446 0.385888 0.690054 -0.012800
C30   C     C_3   0.803499 0.304589 0.745283 -0.376085
C31   C     C_3   0.731247 0.759003 0.305970 -0.011754
C32   C     C_3   0.692432 0.789160 0.218705 -0.382727
C33   C     C_3   0.089972 0.709523 0.240786 0.028169
C34   C     C_R   0.602263 0.473913 0.225574 -0.157692
C35   C     C_3   0.032167 0.649351 0.168026 -0.367459
C36   C     C_3   0.770391 0.346742 0.101173 -0.002489
C37   C     C_3   0.896258 0.352182 0.051025 -0.368662
C38   C     C_3   0.103300 0.874544 0.387173 -0.036820
C39   C     C_3   0.210039 0.952795 0.341711 -0.374143
C40   C     C_3   0.189077 0.604611 0.747283 -0.006139
C41   C     C_3   0.211564 0.700104 0.678288 -0.352316
C42   C     C_R   0.470460 0.453053 0.101684 0.219825
C43   C     C_R   0.477924 0.476851 0.264678 -0.050881
C44   C     C_R   0.351199 0.454947 0.222974 -0.170172
C45   C     C_R   0.348106 0.442004 0.142155 -0.172826
C46   C     C_R   0.621895 0.061970 0.536874 0.033819
Cu1   Cu    Cu3+1 0.640670 0.499980 0.500000 1.011883
Cu2   Cu    Cu3+1 0.359330 0.500020 0.500000 1.042020
H1    H     H_    0.702279 0.482680 0.257099 0.198011
H2    H     H_    0.315827 0.478021 0.892949 0.131131
H3    H     H_    0.249347 0.427760 0.110096 0.110126
H4    H     H_    0.277938 0.104200 0.491110 0.126399
H5    H     H_    0.643322 0.041096 0.384002 0.122406
H6    H     H_    0.819657 0.045781 0.350652 0.113861
H7    H     H_    0.788369 0.268933 0.307022 0.163461
H8    H     H_    0.661992 0.169945 0.259055 0.069542
H9    H     H_    0.611285 0.257356 0.338044 0.166316
H10   H     H_    0.139332 0.210102 0.548923 0.128243
H11   H     H_    0.036365 0.205091 0.632591 0.138109
H12   H     H_    0.279123 0.881021 0.514772 0.171537
H13   H     H_    0.237011 0.064673 0.656851 0.085517
H14   H     H_    0.354417 0.196403 0.646903 0.177120
H15   H     H_    0.236698 0.183021 0.725431 0.152370
H16   H     H_    0.872104 0.484451 0.695651 0.121771
H17   H     H_    0.001051 0.368227 0.710357 0.180766
H18   H     H_    0.834664 0.206538 0.744789 0.127804
H19   H     H_    0.819669 0.332993 0.806302 0.102560
H20   H     H_    0.691391 0.311798 0.726352 0.175852
H21   H     H_    0.775923 0.845287 0.327577 0.070289
H22   H     H_    0.635177 0.735491 0.337204 0.170369
H23   H     H_    0.841105 0.886601 0.564448 0.094486
H24   H     H_    0.637631 0.710676 0.192739 0.177706
H25   H     H_    0.621957 0.869969 0.211359 0.088187
H26   H     H_    0.787063 0.812698 0.186213 0.142142
H27   H     H_    0.193657 0.750457 0.228438 0.141957
H28   H     H_    0.017172 0.783935 0.250004 0.138652
H29   H     H_    0.930922 0.603153 0.179766 0.226602
H30   H     H_    0.016182 0.720581 0.117884 0.091553
H31   H     H_    0.105593 0.579963 0.151505 0.137285
H32   H     H_    0.688096 0.289589 0.072143 0.142326
H33   H     H_    0.802102 0.301553 0.160270 0.112715
H34   H     H_    0.781781 0.896763 0.458257 0.111191
H35   H     H_    0.981487 0.406763 0.078844 0.143435
H36   H     H_    0.933889 0.257222 0.045524 0.088929
H37   H     H_    0.867404 0.396075 0.991255 0.160568
H38   H     H_    0.084103 0.917682 0.442252 0.123805
H39   H     H_    0.002575 0.881086 0.352763 0.086476
H40   H     H_    0.317979 0.923969 0.360387 0.177673
H41   H     H_    0.193667 0.944066 0.277557 0.102038
H42   H     H_    0.197923 0.051809 0.351657 0.110024
H43   H     H_    0.211037 0.648155 0.803802 0.102294
H44   H     H_    0.077039 0.579293 0.745866 0.114524
H45   H     H_    0.837008 0.106196 0.566764 0.135152
H46   H     H_    0.147488 0.782880 0.683819 0.069804
H47   H     H_    0.322788 0.729066 0.677932 0.143781
H48   H     H_    0.179727 0.661126 0.621745 0.185135
H49   H     H_    0.878828 0.733709 0.428669 0.050354
H50   H     H_    0.747991 0.586189 0.888193 0.128135
H51   H     H_    0.728775 0.596518 0.744172 0.116511
H52   H     H_    0.254681 0.448177 0.252571 0.186931
N1    N     N_2   0.552125 0.516112 0.984839 -0.176167
N2    N     N_2   0.457763 0.456109 0.018314 -0.267437
N3    N     N_R   0.147870 0.500930 0.499500 -0.273068
N4    N     N_R   0.851960 0.500890 0.499500 -0.266082
O1    O     O_R   0.618810 0.319640 0.500000 -0.422410
O2    O     O_3   0.161420 0.363749 0.614668 -0.499400
O3    O     O_3   0.859263 0.356395 0.611769 -0.539494
O4    O     O_3   0.825191 0.658618 0.317068 -0.563522
O5    O     O_3   0.106288 0.618647 0.304728 -0.536809
O6    O     O_3   0.724663 0.468077 0.108068 -0.550698
O7    O     O_3   0.154020 0.752799 0.407616 -0.555336
O8    O     O_3   0.266524 0.495787 0.740835 -0.517245
O9    O     O_R   0.381230 0.319680 0.499990 -0.510403
O10   O     O_R   0.631790 0.498830 0.613930 -0.490019
O11   O     O_R   0.394210 0.498870 0.613920 -0.413523
O12   O     O_R   0.618770 0.680320 0.500010 -0.526901
O13   O     O_R   0.381190 0.680360 0.500000 -0.470695
O14   O     O_R   0.605790 0.501130 0.386080 -0.490118
O15   O     O_R   0.368210 0.501170 0.386070 -0.463941
O16   O     O_3   0.795050 0.147352 0.445539 -0.531433

loop_
_geom_bond_atom_site_label_1
_geom_bond_atom_site_label_2
_ccdc_geom_bond_type
Cu1   O10   S    
N1    N2    D    
C34   H1    S    
C11   C13   A    
C31   O4    S    
C6    C7    A    
C4    O11   A    
C19   C20   A    
C13   O3    S    
C26   H7    S    
C7    C8    S    
C40   O8    S    
C41   H47   S    
C2    C46   A    
C23   C42   A    
C38   H38   S    
C8    H34   S    
C37   H37   S    
C36   C37   S    
C25   H5    S    
C32   H26   S    
C5    C6    A    
C41   H48   S    
C45   H3    S    
C10   C17   S    
C17   O7    S    
C1    C2    S    
C12   H51   S    
C20   O8    S    
C4    C19   S    
C33   H27   S    
C31   H22   S    
C41   H46   S    
C8    C9    S    
Cu1   O1    S    
C37   H36   S    
C18   O14   A    
C39   H42   S    
C30   H19   S    
C28   H13   S    
C29   H16   S    
C9    C46   S    
C21   C22   A    
C1    O9    A    
C39   H40   S    
C15   H49   S    
C42   N2    S    
C21   H2    S    
Cu2   O15   S    
Cu1   O14   S    
Cu1   O12   S    
C7    C46   A    
C25   H6    S    
C32   H24   S    
C36   H32   S    
C32   H25   S    
C27   O2    S    
C25   C26   S    
Cu2   N3    S    
C35   H29   S    
C26   H8    S    
C42   C45   A    
C15   O4    S    
C43   C44   A    
C29   C30   S    
C33   H28   S    
C14   N4    A    
Cu1   Cu2   S    
C36   H33   S    
C23   C34   A    
C11   O2    S    
C40   H44   S    
C13   N4    A    
C22   N1    S    
C30   H18   S    
Cu2   O11   S    
C29   H17   S    
C40   C41   S    
C36   O6    S    
C24   H50   S    
C33   O5    S    
C25   O16   S    
C9    H45   S    
C44   C45   A    
C4    O10   A    
C15   C17   S    
C23   O6    S    
C10   N3    A    
C8    H23   S    
Cu1   N4    S    
C5    H12   S    
C31   C32   S    
C37   H35   S    
C34   C43   A    
C3    C5    A    
C27   H10   S    
C17   O5    S    
C3    H4    S    
Cu2   O13   S    
C12   C24   A    
C35   H30   S    
C38   H39   S    
C16   O12   A    
C2    C3    A    
C27   H11   S    
C18   C43   S    
C44   H52   S    
C38   C39   S    
C12   C19   A    
C35   H31   S    
C33   C35   S    
C22   C24   A    
C40   H43   S    
C26   H9    S    
C6    C16   S    
C28   H15   S    
C31   H21   S    
C20   C21   A    
C1    O1    A    
C27   C28   S    
C9    O16   S    
C14   C15   S    
C29   O3    S    
C11   N3    A    
C38   O7    S    
C16   O13   A    
C18   O15   A    
C39   H41   S    
C30   H20   S    
C10   C14   A    
Cu2   O9    S    
C28   H14   S    
