data_mof_unit_19582.cif
_audit_creation_date              2012-12-11T18:04:48-0500
_audit_creation_method            fapswitch 2.2
_symmetry_space_group_name_H-M    P1
_symmetry_Int_Tables_number       1
_space_group_crystal_system       triclinic
_cell_length_a                    8.34653
_cell_length_b                    12.790641
_cell_length_c                    22.807141
_cell_angle_alpha                 96.430269
_cell_angle_beta                  88.978667
_cell_angle_gamma                 99.341686
_cell_volume                      2387.42679513

loop_
_atom_site_label
_atom_site_type_symbol
_atom_type_description
_atom_site_fract_x
_atom_site_fract_y
_atom_site_fract_z
_atom_type_partial_charge
Ba1   Ba    Ba6+2 0.856210 0.551220 0.472190 1.651153
Ba2   Ba    Ba6+2 0.333620 0.448870 0.527810 1.655631
C1    C     C_3   0.603416 0.912942 0.297786 -0.365692
C2    C     C_3   0.633237 0.823747 0.332852 0.314893
C3    C     C_3   0.436804 0.245140 0.346192 0.453890
C4    C     C_3   0.545539 0.322499 0.311159 -0.314255
C5    C     C_3   0.038553 0.211674 0.693307 0.390453
C6    C     C_3   0.074406 0.188915 0.756526 -0.248872
C7    C     C_3   0.457843 0.176775 0.683742 0.310094
C8    C     C_3   0.439528 0.093188 0.728360 -0.010470
C9    C     C_R   0.343848 0.526709 0.331557 -0.309763
C10   C     C_R   0.098726 0.596144 0.942603 -0.038641
C11   C     C_R   0.055936 0.591819 0.882274 0.613996
C12   C     C_3   0.122215 0.778851 0.312293 0.321295
C13   C     C_R   0.932286 0.408779 0.882271 0.562804
C14   C     C_R   0.980029 0.409273 0.941389 -0.012780
C15   C     C_R   0.062260 0.503728 0.971911 -0.052682
C16   C     C_R   0.176603 0.690843 0.974515 -0.066384
C17   C     C_R   0.216920 0.693607 0.034086 -0.071506
C18   C     C_R   0.183708 0.601248 0.063495 -0.021973
C19   C     C_R   0.107342 0.505761 0.032090 -0.051827
C20   C     C_R   0.946663 0.316870 0.970717 -0.075485
C21   C     C_R   0.995285 0.318041 0.029112 -0.072071
C22   C     C_R   0.075860 0.412201 0.060589 -0.031786
C23   C     C_3   0.093765 0.809283 0.251241 -0.274734
C24   C     C_R   0.126843 0.414493 0.119658 0.590394
C25   C     C_R   0.226000 0.602186 0.123419 0.568048
C26   C     C_2   0.776176 0.451015 0.771799 -0.081828
C27   C     C_3   0.747650 0.414136 0.707353 -0.048766
C28   C     C_1   0.005335 0.524431 0.686654 0.049369
C29   C     C_2   0.050433 0.529956 0.743242 -0.078478
C30   C     C_2   0.928425 0.494297 0.790022 0.212594
C31   C     C_R   0.418193 0.549712 0.229377 0.011429
C32   C     C_R   0.458811 0.562347 0.290102 -0.010752
C33   C     C_R   0.189536 0.475433 0.314225 0.034564
C34   C     C_3   0.210685 0.781193 0.595533 0.305933
C35   C     C_R   0.142838 0.470342 0.254805 -0.099421
C36   C     C_R   0.254476 0.509943 0.211742 0.223513
C37   C     C_2   0.863787 0.472080 0.666454 -0.293605
C38   C     C_R   0.757309 0.181185 0.528317 -0.271448
C39   C     C_R   0.433732 0.811543 0.477477 -0.298666
C40   C     C_R   0.405498 0.990238 0.461129 -0.093842
C41   C     C_R   0.344476 0.881978 0.456205 -0.008538
C42   C     C_R   0.578122 0.848877 0.508654 0.068359
C43   C     C_R   0.639735 0.960343 0.516262 -0.043270
C44   C     C_R   0.552215 0.031457 0.491317 -0.061760
C45   C     C_3   0.156808 0.889549 0.604699 -0.298921
C46   C     C_R   0.613226 0.142038 0.497378 0.050855
C47   C     C_R   0.849434 0.112175 0.549892 0.000941
C48   C     C_R   0.787774 0.002918 0.546020 -0.064202
C49   C     C_3   0.964203 0.224380 0.406625 0.303658
C50   C     C_3   0.915902 0.104735 0.391061 -0.357601
C51   C     C_3   0.706067 0.681510 0.645590 0.326985
C52   C     C_3   0.690689 0.698308 0.712624 -0.009828
H1    H     H_    0.709519 0.858302 0.371940 0.061357
H2    H     H_    0.227353 0.941587 0.640330 0.143133
H3    H     H_    0.173982 0.928115 0.563533 0.094851
H4    H     H_    0.027170 0.879797 0.617703 0.143526
H5    H     H_    0.857909 0.258375 0.424797 0.005725
H6    H     H_    0.062212 0.238927 0.440092 0.070949
H7    H     H_    0.812258 0.089085 0.359927 0.130269
H8    H     H_    0.880072 0.064918 0.430890 0.068490
H9    H     H_    0.019267 0.069886 0.370425 0.179013
H10   H     H_    0.828735 0.665079 0.633141 -0.007536
H11   H     H_    0.614572 0.611433 0.630001 0.056003
H12   H     H_    0.546095 0.972260 0.326649 0.121694
H13   H     H_    0.579563 0.732484 0.725491 0.153155
H14   H     H_    0.680736 0.621441 0.730980 0.038718
H15   H     H_    0.512726 0.785769 0.348365 -0.046444
H16   H     H_    0.520861 0.879962 0.260191 0.146960
H17   H     H_    0.349448 0.287873 0.372599 0.013695
H18   H     H_    0.647154 0.285155 0.290599 0.151960
H19   H     H_    0.475044 0.346939 0.275756 0.069331
H20   H     H_    0.594944 0.393798 0.341341 0.111340
H21   H     H_    0.719870 0.952792 0.280387 0.139617
H22   H     H_    0.061694 0.736088 0.220072 0.109698
H23   H     H_    0.098850 0.294370 0.688148 0.070633
H24   H     H_    0.204082 0.203911 0.766076 0.142237
H25   H     H_    0.026376 0.246943 0.788723 0.140395
H26   H     H_    0.575874 0.184042 0.662585 -0.021484
H27   H     H_    0.375690 0.146886 0.646128 0.103014
H28   H     H_    0.309935 0.060348 0.732401 0.119071
H29   H     H_    0.022153 0.714745 0.321561 0.110347
H30   H     H_    0.968564 0.244820 0.049667 0.131578
H31   H     H_    0.884046 0.242685 0.948356 0.125897
H32   H     H_    0.275959 0.768375 0.056926 0.128793
H33   H     H_    0.205858 0.763542 0.953601 0.132214
H34   H     H_    0.175851 0.559206 0.755769 0.127753
H35   H     H_    0.681995 0.426813 0.803221 0.115008
H36   H     H_    0.020029 0.434976 0.241990 0.123378
H37   H     H_    0.378198 0.533636 0.377529 0.084606
H38   H     H_    0.239854 0.748787 0.312551 -0.038967
H39   H     H_    0.844405 0.448877 0.619555 0.079149
H40   H     H_    0.334048 0.040988 0.442126 0.124489
H41   H     H_    0.858810 0.952463 0.564887 0.104226
H42   H     H_    0.804795 0.265545 0.531453 0.056151
H43   H     H_    0.385118 0.727276 0.472816 0.064872
H44   H     H_    0.991803 0.855472 0.252316 0.152474
H45   H     H_    0.204863 0.858544 0.235617 0.153024
H46   H     H_    0.343743 0.792037 0.589715 0.010682
H47   H     H_    0.150171 0.738081 0.554893 0.050255
N1    N     N_R   0.973628 0.498605 0.852344 -0.426428
N2    N     N_R   0.201251 0.508867 0.150756 -0.428407
O1    O     O_2   0.890290 0.440320 0.360790 -0.460043
O2    O     O_3   0.678528 0.773350 0.621719 -0.598100
O3    O     O_3   0.122826 0.868639 0.353713 -0.595300
O4    O     O_2   0.299410 0.559720 0.639240 -0.452459
O5    O     O_3   0.058870 0.558650 0.568170 -0.510743
O6    O     O_3   0.517310 0.362160 0.604450 -0.473194
O7    O     O_3   0.171799 0.730604 0.646433 -0.581062
O8    O     O_3   0.614910 0.369290 0.471050 -0.472349
O9    O     O_3   0.099190 0.306290 0.575790 -0.484682
O10   O     O_2   0.184378 0.117923 0.539568 -0.490344
O11   O     O_3   0.095232 0.138071 0.650176 -0.613505
O12   O     O_3   0.130840 0.441440 0.431840 -0.501220
O13   O     O_3   0.574800 0.630800 0.528960 -0.493803
O14   O     O_2   0.344900 0.234690 0.472540 -0.473196
O15   O     O_3   0.534373 0.193432 0.379206 -0.648399
O16   O     O_2   0.445459 0.475522 0.704840 -0.490034
O17   O     O_3   0.419596 0.274208 0.710878 -0.616699
O18   O     O_2   0.089765 0.671613 0.856830 -0.551258
O19   O     O_2   0.853387 0.327643 0.857491 -0.636449
O20   O     O_2   0.106873 0.331980 0.143099 -0.572610
O21   O     O_2   0.286789 0.686144 0.151095 -0.616452
O22   O     O_3   0.672400 0.637930 0.395560 -0.476839
O23   O     O_2   0.796856 0.563473 0.293565 -0.506750
O24   O     O_3   0.017421 0.269309 0.355214 -0.605386
O25   O     O_3   0.715856 0.752877 0.296943 -0.603659
O26   O     O_2   0.844800 0.765340 0.527490 -0.477363
O27   O     O_3   0.090520 0.693800 0.424220 -0.498053
O28   O     O_2   0.011794 0.883908 0.460697 -0.486359
P1    P     P_3+3 0.057140 0.408270 0.369700 1.002145
P2    P     P_3+3 0.667360 0.749400 0.544670 0.992363
P3    P     P_3+3 0.142233 0.831861 0.424570 0.943765
P4    P     P_3+3 0.132580 0.591820 0.630310 1.017264
P5    P     P_3+3 0.056902 0.167696 0.578342 0.942186
P6    P     P_3+3 0.661391 0.625130 0.318609 0.939793
P7    P     P_3+3 0.527887 0.234705 0.455126 0.944468
P8    P     P_3+3 0.533997 0.382691 0.681438 0.943419
I1    I     I_    0.898893 0.795693 0.753109 -0.394323
I2    I     I_    0.300094 0.126154 0.285246 -0.450974
C53   C     C_3   0.857960 0.203645 0.687536 -0.387775
H48   H     H_    0.831199 0.248075 0.650988 0.034513
H49   H     H_    0.804921 0.118943 0.677096 0.153713
H50   H     H_    0.803764 0.236019 0.728668 0.100077
C54   C     C_3   0.003613 0.076395 0.769979 -0.333010
H51   H     H_    0.032127 0.017193 0.733677 0.191004
H52   H     H_    0.056280 0.059854 0.811689 0.144732
H53   H     H_    0.870083 0.067690 0.775308 0.171523
I3    I     I_    0.543898 0.957136 0.697059 -0.534288
C55   C     C_3   0.505664 0.135928 0.790251 -0.315208
H54   H     H_    0.456800 0.208613 0.808148 0.132706
H55   H     H_    0.469312 0.074412 0.820766 0.147025
H56   H     H_    0.639404 0.154297 0.790362 0.154540
C56   C     C_3   0.550849 0.573030 0.184474 -0.288176
H57   H     H_    0.651667 0.529248 0.191960 0.105237
H58   H     H_    0.509826 0.546019 0.138560 0.107741
H59   H     H_    0.597626 0.659843 0.188335 0.150380

loop_
_geom_bond_atom_site_label_1
_geom_bond_atom_site_label_2
_ccdc_geom_bond_type
Ba2   O6    S    
C13   O19   D    
C56   H58   S    
C17   C18   A    
Ba1   P1    S    
C5    C6    S    
O23   P6    D    
C51   C52   S    
C4    H18   S    
Ba2   O9    S    
C35   C36   A    
C35   H36   S    
C5    O11   S    
C26   C27   S    
C33   C35   A    
Ba1   O22   S    
C16   C17   A    
Ba1   O26   S    
C50   H7    S    
C28   C29   D    
C8    C55   S    
C51   H10   S    
C48   H41   S    
C20   H31   S    
C52   H14   S    
O1    P1    D    
C38   C47   A    
Ba2   O4    S    
C34   C45   S    
Ba1   Ba2   S    
C40   C44   A    
C55   H56   S    
Ba2   O5    S    
O24   P1    S    
C37   H39   S    
O4    P4    D    
Ba2   O13   S    
C23   H45   S    
C52   I1    S    
O14   P7    D    
C14   C15   A    
O10   P5    D    
C10   C15   A    
C6    H25   S    
C21   C22   A    
C26   H35   S    
Ba1   O13   S    
C51   H11   S    
C7    C8    S    
C5    H23   S    
O28   P3    D    
C13   N1    Am   
C56   H59   S    
C6    H24   S    
C39   C41   A    
C53   H50   S    
O7    P4    S    
O27   P3    S    
C12   H29   S    
O9    P5    S    
Ba1   P2    S    
C2    H15   S    
Ba2   O14   S    
C4    H20   S    
C54   H52   S    
O12   P1    S    
C20   C21   A    
C27   P8    S    
C44   C46   A    
Ba2   O8    S    
C21   H30   S    
C2    O25   S    
C49   C50   S    
C26   C30   D    
C1    H16   S    
O5    P4    S    
Ba1   O27   S    
O13   P2    S    
O22   P6    S    
C43   C44   A    
C8    H28   S    
C15   C19   A    
C34   H47   S    
C7    H26   S    
C41   P3    S    
O25   P6    S    
C36   N2    S    
C9    H37   S    
C24   N2    Am   
C45   H3    S    
C54   H53   S    
C11   O18   D    
Ba2   O12   S    
C3    I2    S    
C29   C30   S    
O3    P3    S    
C55   H54   S    
C27   C37   S    
C31   C32   A    
C34   H46   S    
O17   P8    S    
C10   C11   A    
Ba1   O1    S    
C12   H38   S    
O26   P2    D    
C47   P5    S    
C47   C48   A    
C17   H32   S    
C2    H1    S    
C34   O7    S    
C39   C42   A    
C39   H43   S    
C1    H12   S    
C49   H5    S    
C24   O20   D    
C1    C2    S    
C53   H49   S    
C1    H21   S    
C42   C43   A    
C4    H19   S    
O2    P2    S    
C54   H51   S    
C42   P2    S    
C38   C46   A    
C14   C20   A    
C29   H34   S    
C40   H40   S    
C9    C32   A    
C6    C54   S    
Ba2   P4    S    
C22   C24   A    
C50   H9    S    
C25   O21   D    
C31   C56   S    
C52   H13   S    
C18   C25   A    
C32   P6    S    
C16   H33   S    
C46   P7    S    
C3    O15   S    
O6    P8    S    
C23   H22   S    
C49   O24   S    
C9    C33   A    
C38   H42   S    
O16   P8    D    
C3    H17   S    
C50   H8    S    
C8    I3    S    
C45   H4    S    
C3    C4    S    
C43   C48   A    
C25   N2    Am   
C28   C37   D    
C30   N1    S    
C55   H55   S    
C12   C23   S    
Ba1   O5    S    
C51   O2    S    
C23   H44   S    
C12   O3    S    
C18   C19   A    
C28   P4    S    
C40   C41   A    
C19   C22   A    
C10   C16   A    
C56   H57   S    
C7    O17   S    
O11   P5    S    
C53   H48   S    
C31   C36   A    
C49   H6    S    
Ba1   O12   S    
C11   N1    Am   
O15   P7    S    
C33   P1    S    
C5    C53   S    
Ba1   O8    S    
C13   C14   A    
O8    P7    S    
C7    H27   S    
C45   H2    S    
