data_mof_unit_39172.cif
_audit_creation_date              2012-12-11T15:34:53-0500
_audit_creation_method            fapswitch 2.2
_symmetry_space_group_name_H-M    P1
_symmetry_Int_Tables_number       1
_space_group_crystal_system       triclinic
_cell_length_a                    30.686155
_cell_length_b                    7.248287
_cell_length_c                    25.919982
_cell_angle_alpha                 89.998246
_cell_angle_beta                  111.733302
_cell_angle_gamma                 90.000257
_cell_volume                      5355.37268097

loop_
_atom_site_label
_atom_site_type_symbol
_atom_type_description
_atom_site_fract_x
_atom_site_fract_y
_atom_site_fract_z
_atom_type_partial_charge
O1    O     O_R   0.295360 0.592990 0.320420 -0.532331
O2    O     O_R   0.704640 0.407010 0.679580 -0.532331
O3    O     O_R   0.204640 0.092990 0.179580 -0.532331
O4    O     O_R   0.795360 0.907010 0.820420 -0.532331
O5    O     O_R   0.294060 0.265620 0.213230 -0.502730
O6    O     O_R   0.705940 0.734380 0.786770 -0.502730
O7    O     O_R   0.205940 0.765620 0.286770 -0.502731
O8    O     O_R   0.794060 0.234380 0.713230 -0.502731
C1    C     C_R   0.304243 0.432250 0.199467 0.786502
C2    C     C_R   0.695757 0.567750 0.800533 0.786502
C3    C     C_R   0.195756 0.932247 0.300533 0.786504
C4    C     C_R   0.804243 0.067753 0.699467 0.786505
O9    O     O_R   0.300850 0.263360 0.322080 -0.548748
O10   O     O_R   0.699150 0.736640 0.677920 -0.548748
O11   O     O_R   0.199150 0.763360 0.177920 -0.548744
O12   O     O_R   0.800850 0.236640 0.822080 -0.548745
O13   O     O_R   0.211480 0.091820 0.289210 -0.508629
O14   O     O_R   0.788520 0.908180 0.710790 -0.508630
O15   O     O_R   0.288520 0.591820 0.210790 -0.508630
O16   O     O_R   0.711480 0.408180 0.789210 -0.508631
C5    C     C_R   0.313262 0.431535 0.343021 0.696153
C6    C     C_R   0.686738 0.568465 0.656979 0.696153
C7    C     C_R   0.186739 0.931539 0.156979 0.696162
C8    C     C_R   0.813261 0.068461 0.843021 0.696162
O17   O     O_3   0.220670 0.426670 0.239090 -0.363697
O18   O     O_3   0.779330 0.573330 0.760910 -0.363697
O19   O     O_3   0.279330 0.926670 0.260910 -0.363700
O20   O     O_3   0.720670 0.073330 0.739090 -0.363700
V1    V     V_3+5 0.255440 0.152290 0.252020 1.645042
V2    V     V_3+5 0.744560 0.847710 0.747980 1.645041
V3    V     V_3+5 0.244560 0.652290 0.247980 1.645045
V4    V     V_3+5 0.755440 0.347710 0.752020 1.645045
C9    C     C_R   0.850916 0.063134 0.898755 -0.088621
C10   C     C_R   0.149084 0.936866 0.101245 -0.088622
C11   C     C_R   0.649083 0.563144 0.601244 -0.088613
C12   C     C_R   0.350917 0.436856 0.398756 -0.088613
C13   C     C_R   0.873343 0.115150 0.997458 -0.051090
C14   C     C_R   0.126656 0.884850 0.002542 -0.051090
C15   C     C_R   0.626660 0.615150 0.502535 -0.051106
C16   C     C_R   0.373340 0.384849 0.497465 -0.051106
C17   C     C_R   0.840067 0.123024 0.943638 -0.180399
C18   C     C_R   0.159933 0.876976 0.056362 -0.180399
C19   C     C_R   0.659933 0.623031 0.556358 -0.180383
C20   C     C_R   0.340067 0.376969 0.443642 -0.180383
C21   C     C_R   0.897120 0.005660 0.907173 -0.114438
C22   C     C_R   0.102880 0.994340 0.092827 -0.114438
C23   C     C_R   0.602879 0.505671 0.592831 -0.114448
C24   C     C_R   0.397121 0.494329 0.407169 -0.114448
C25   C     C_R   0.933856 0.025235 0.960955 0.044726
C26   C     C_R   0.066144 0.974765 0.039045 0.044726
C27   C     C_R   0.566145 0.525242 0.539045 0.044735
C28   C     C_R   0.433855 0.474758 0.460955 0.044735
C29   C     C_R   0.920026 0.062207 0.006685 0.074234
C30   C     C_R   0.079974 0.937793 0.993315 0.074234
C31   C     C_R   0.579976 0.562206 0.493312 0.074242
C32   C     C_R   0.420024 0.437794 0.506688 0.074242
C33   C     C_R   0.983380 0.005801 0.971982 0.056846
C34   C     C_R   0.016620 0.994199 0.028018 0.056846
C35   C     C_R   0.516619 0.505807 0.528019 0.056836
C36   C     C_R   0.483381 0.494193 0.471981 0.056836
C37   C     C_R   0.998861 0.992577 0.070831 -0.157160
C38   C     C_R   0.001139 0.007423 0.929169 -0.157160
C39   C     C_R   0.501141 0.492560 0.429167 -0.157145
C40   C     C_R   0.498859 0.507440 0.570833 -0.157145
C41   C     C_R   0.952578 0.037675 0.060878 -0.158980
C42   C     C_R   0.047422 0.962325 0.939122 -0.158980
C43   C     C_R   0.547425 0.537661 0.439118 -0.158970
C44   C     C_R   0.452575 0.462339 0.560882 -0.158970
H1    H     H_    0.942058 0.046483 0.096334 0.158725
H2    H     H_    0.057942 0.953516 0.903666 0.158725
H3    H     H_    0.557947 0.546461 0.403659 0.158714
H4    H     H_    0.442053 0.453539 0.596341 0.158714
H5    H     H_    0.195369 0.831774 0.063216 0.144825
H6    H     H_    0.804631 0.168226 0.936784 0.144825
H7    H     H_    0.304629 0.331768 0.436790 0.144823
H8    H     H_    0.695371 0.668232 0.563210 0.144823
H9    H     H_    0.019908 0.953505 0.112747 0.153220
H10   H     H_    0.980092 0.046494 0.887253 0.153220
H11   H     H_    0.480098 0.453477 0.387248 0.153216
H12   H     H_    0.519902 0.546523 0.612752 0.153216
C45   C     C_R   0.089861 0.047967 0.475726 0.668182
C46   C     C_R   0.910138 0.952032 0.524274 0.668182
C47   C     C_R   0.410140 0.547999 0.024275 0.668180
C48   C     C_R   0.589860 0.452000 0.975725 0.668180
N1    N     N_R   0.073053 0.971495 0.423706 -0.551800
N2    N     N_R   0.926947 0.028504 0.576294 -0.551800
N3    N     N_R   0.426947 0.471506 0.076293 -0.551799
N4    N     N_R   0.573053 0.528494 0.923707 -0.551800
C49   C     C_R   0.028062 0.905559 0.400929 0.673114
C50   C     C_R   0.971938 0.094441 0.599071 0.673114
C51   C     C_R   0.471936 0.405544 0.099069 0.673113
C52   C     C_R   0.528064 0.594456 0.900931 0.673113
C53   C     C_R   0.997833 0.914867 0.430839 -0.158944
C54   C     C_R   0.002167 0.085133 0.569161 -0.158945
C55   C     C_R   0.502164 0.414847 0.069159 -0.158942
C56   C     C_R   0.497836 0.585153 0.930840 -0.158941
C57   C     C_R   0.014715 0.994112 0.484431 -0.088905
C58   C     C_R   0.985285 0.005888 0.515569 -0.088904
C59   C     C_R   0.485285 0.494114 0.015569 -0.088902
C60   C     C_R   0.514715 0.505885 0.984431 -0.088902
C61   C     C_R   0.061014 0.061527 0.507010 -0.103828
C62   C     C_R   0.938986 0.938472 0.492990 -0.103828
C63   C     C_R   0.438988 0.561556 0.992991 -0.103829
C64   C     C_R   0.561012 0.438443 0.007008 -0.103828
C65   C     C_R   0.951394 0.847591 0.408915 0.676843
C66   C     C_R   0.048606 0.152408 0.591085 0.676843
C67   C     C_R   0.548601 0.347545 0.091082 0.676841
C68   C     C_R   0.451399 0.652455 0.908918 0.676841
C69   C     C_R   0.922523 0.859605 0.439710 -0.184363
C70   C     C_R   0.077477 0.140395 0.560290 -0.184363
C71   C     C_R   0.577473 0.359554 0.060287 -0.184366
C72   C     C_R   0.422527 0.640446 0.939713 -0.184366
O21   O     O_2   0.134475 0.109713 0.497259 -0.488821
O22   O     O_2   0.865525 0.890286 0.502741 -0.488822
O23   O     O_2   0.365529 0.609768 0.002742 -0.488820
O24   O     O_2   0.634471 0.390232 0.997258 -0.488820
O25   O     O_2   0.012782 0.831361 0.349573 -0.447289
O26   O     O_2   0.987217 0.168639 0.650427 -0.447289
O27   O     O_2   0.487212 0.331325 0.150424 -0.447290
O28   O     O_2   0.512787 0.668674 0.849576 -0.447290
H13   H     H_    0.887079 0.806570 0.421519 0.207875
H14   H     H_    0.112921 0.193430 0.578481 0.207875
H15   H     H_    0.612915 0.306498 0.078478 0.207874
H16   H     H_    0.387085 0.693502 0.921522 0.207874
C73   C     C_R   0.891478 0.888781 0.637948 -0.135237
C74   C     C_R   0.108522 0.111218 0.362052 -0.135236
C75   C     C_R   0.608524 0.388772 0.862055 -0.135235
C76   C     C_R   0.391476 0.611228 0.137945 -0.135235
H17   H     H_    0.910763 0.763225 0.638502 0.182878
H18   H     H_    0.089237 0.236774 0.361498 0.182877
H19   H     H_    0.589238 0.263217 0.861502 0.182881
H20   H     H_    0.410762 0.736783 0.138497 0.182881
C77   C     C_R   0.861809 0.896804 0.667887 0.570975
C78   C     C_R   0.138191 0.103196 0.332113 0.570974
C79   C     C_R   0.638193 0.396796 0.832116 0.570976
C80   C     C_R   0.361807 0.603204 0.167883 0.570976
C81   C     C_R   0.836440 0.059321 0.668118 -0.325455
C82   C     C_R   0.163560 0.940679 0.331882 -0.325456
C83   C     C_R   0.663561 0.559314 0.831883 -0.325460
C84   C     C_R   0.336439 0.440686 0.168117 -0.325461
C85   C     C_R   0.841780 0.213133 0.637354 0.528026
C86   C     C_R   0.158221 0.786867 0.362646 0.528026
C87   C     C_R   0.658222 0.713122 0.862646 0.528032
C88   C     C_R   0.341778 0.286878 0.137354 0.528032
C89   C     C_R   0.871565 0.203962 0.607231 -0.150842
C90   C     C_R   0.128435 0.796038 0.392769 -0.150841
C91   C     C_R   0.628437 0.703949 0.892769 -0.150839
C92   C     C_R   0.371563 0.296050 0.107231 -0.150839
C93   C     C_R   0.896563 0.041073 0.607449 0.150000
C94   C     C_R   0.103437 0.958927 0.392550 0.149999
C95   C     C_R   0.603438 0.541062 0.892552 0.149994
C96   C     C_R   0.396561 0.458938 0.107448 0.149994
F1    F     F_    0.817188 0.370861 0.635216 -0.630191
F2    F     F_    0.182812 0.629139 0.364784 -0.630193
F3    F     F_    0.682814 0.870849 0.864783 -0.630187
F4    F     F_    0.317186 0.129151 0.135217 -0.630187
C97   C     C_1   0.875792 0.361562 0.575378 0.488251
N5    N     N_1   0.879243 0.487521 0.549735 -0.298986
C98   C     C_1   0.124208 0.638438 0.424622 0.488252
N6    N     N_1   0.120758 0.512479 0.450265 -0.298985
C99   C     C_1   0.624210 0.861545 0.924622 0.488255
N7    N     N_1   0.620760 0.987501 0.950264 -0.298978
C100  C     C_1   0.375789 0.138455 0.075378 0.488255
N8    N     N_1   0.379240 0.012499 0.049736 -0.298977
C101  C     C_1   0.096271 0.094699 0.137721 0.266953
N9    N     N_1   0.091355 0.175492 0.173709 -0.266103
C102  C     C_1   0.903729 0.905301 0.862279 0.266954
N10   N     N_1   0.908645 0.824508 0.826291 -0.266104
C103  C     C_1   0.403730 0.594684 0.362270 0.266924
N11   N     N_1   0.408649 0.675473 0.326275 -0.266076
C104  C     C_1   0.596270 0.405316 0.637730 0.266924
N12   N     N_1   0.591351 0.324526 0.673725 -0.266076
C105  C     C_1   0.858567 0.166065 0.042436 0.331098
N13   N     N_1   0.846709 0.206867 0.078385 -0.260497
C106  C     C_1   0.141433 0.833935 0.957564 0.331098
N14   N     N_1   0.153291 0.793133 0.921615 -0.260497
C107  C     C_1   0.641436 0.666056 0.457554 0.331072
N15   N     N_1   0.653296 0.706849 0.421601 -0.260474
C108  C     C_1   0.358564 0.333944 0.542446 0.331072
N16   N     N_1   0.346704 0.293150 0.578399 -0.260474
F5    F     F_    0.933456 0.769742 0.357691 -0.598989
F6    F     F_    0.066544 0.230258 0.642309 -0.598989
F7    F     F_    0.566536 0.269673 0.142305 -0.598991
F8    F     F_    0.433463 0.730327 0.857695 -0.598990
F9    F     F_    0.858635 0.745630 0.697206 -0.607413
F10   F     F_    0.141364 0.254370 0.302793 -0.607413
F11   F     F_    0.641367 0.245623 0.802800 -0.607409
F12   F     F_    0.358633 0.754377 0.197200 -0.607409

loop_
_geom_bond_atom_site_label_1
_geom_bond_atom_site_label_2
_ccdc_geom_bond_type
O17   V3    S    
C59   C63   A    
C104  N12   T    
C25   C29   A    
O1    C5    A    
C101  N9    T    
C22   C101  S    
N3    C51   A    
O19   V1    S    
C9    C21   A    
C103  N11   T    
C78   F10   S    
O3    C7    A    
C100  N8    T    
C10   C18   A    
O1    V3    S    
C88   C92   A    
C11   C23   A    
C99   N7    T    
C14   C106  S    
C25   C33   A    
C33   C38   A    
C5    C12   S    
C45   C61   A    
C105  N13   T    
C77   C81   A    
C6    C11   S    
C35   C40   A    
C97   N5    T    
C47   C63   A    
C36   C39   A    
C50   O26   S    
O9    V1    S    
C3    C82   S    
C75   C79   A    
C72   H16   S    
C76   C80   A    
C66   C70   A    
O4    C8    A    
C1    C84   S    
C55   C59   A    
C44   H4    S    
C92   C96   A    
C54   C58   A    
C57   C58   A    
C52   C56   A    
O13   V1    S    
O2    V4    S    
O3    V1    S    
C86   C90   A    
N1    C94   S    
C66   F6    S    
C65   C69   A    
C28   C36   A    
C75   C95   A    
C17   H6    S    
C90   C94   A    
C83   C87   A    
C80   C84   A    
C1    O15   A    
C60   C64   A    
C15   C31   A    
C98   N6    T    
C37   H9    S    
C16   C32   A    
O2    C6    A    
C10   C22   A    
C11   C19   A    
C16   C20   A    
C43   H3    S    
C77   F9    S    
C13   C29   A    
C34   C37   A    
O11   C7    A    
C56   C68   A    
O15   V3    S    
C35   C36   A    
O12   C8    A    
C80   F12   S    
C13   C17   A    
C23   C104  S    
C40   H12   S    
O10   V2    S    
C76   H20   S    
C79   F11   S    
C15   C107  S    
C76   C96   A    
C45   N1    A    
C50   C54   A    
O5    V1    S    
C39   C43   A    
O7    V3    S    
C38   C42   A    
C71   H15   S    
C26   C34   A    
C47   O23   S    
C46   O22   S    
C91   C99   S    
N2    C93   S    
C2    O16   A    
C102  N10   T    
C74   H18   S    
N1    C49   A    
O18   V4    S    
C15   C19   A    
C90   C98   S    
C61   C70   A    
C58   C62   A    
C13   C105  S    
C68   C72   A    
C67   F7    S    
C63   C72   A    
O8    V4    S    
C88   F4    S    
C20   H7    S    
C87   C91   A    
O5    C1    A    
C23   C27   A    
C16   C108  S    
C89   C97   S    
C53   C57   A    
O7    C3    A    
C59   C60   A    
C14   C30   A    
C21   C25   A    
O8    C4    A    
C7    C10   S    
C57   C61   A    
C46   C62   A    
O9    C5    A    
N4    C52   A    
C86   F2    S    
O11   V3    S    
C21   C102  S    
C55   C67   A    
O14   V2    S    
O6    V2    S    
C49   O25   S    
N3    C96   S    
C82   C86   A    
C48   C64   A    
N4    C95   S    
C51   O27   S    
C12   C20   A    
C27   C35   A    
C2    C83   S    
C45   O21   S    
C40   C44   A    
C26   C30   A    
C29   C41   A    
O16   V4    S    
C73   C77   A    
C19   H8    S    
C81   C85   A    
C3    O13   A    
C18   H5    S    
C92   C100  S    
C67   C71   A    
C38   H10   S    
C48   N4    A    
C47   N3    A    
C78   C82   A    
C64   C71   A    
C31   C43   A    
C14   C18   A    
C39   H11   S    
C68   F8    S    
C85   C89   A    
C108  N16   T    
O12   V4    S    
C22   C26   A    
C8    C9    S    
C87   F3    S    
C79   C83   A    
C9    C17   A    
O10   C6    A    
O20   V2    S    
C52   O28   S    
C53   C65   A    
C106  N14   T    
C32   C44   A    
C70   H14   S    
C46   N2    A    
C74   C94   A    
C85   F1    S    
C33   C34   A    
C42   H2    S    
C41   H1    S    
C91   C95   A    
C56   C60   A    
N2    C50   A    
C12   C24   A    
C27   C31   A    
C37   C41   A    
C49   C53   A    
C73   C93   A    
C75   H19   S    
C54   C66   A    
O6    C2    A    
C51   C55   A    
C24   C103  S    
C73   H17   S    
C24   C28   A    
C74   C78   A    
C48   O24   S    
C107  N15   T    
C4    O14   A    
C89   C93   A    
C4    C81   S    
C62   C69   A    
C69   H13   S    
C65   F5    S    
C84   C88   A    
C30   C42   A    
O4    V2    S    
C28   C32   A    
