data_mof_unit_21233.cif
_audit_creation_date              2012-12-11T17:36:24-0500
_audit_creation_method            fapswitch 2.2
_symmetry_space_group_name_H-M    P1
_symmetry_Int_Tables_number       1
_space_group_crystal_system       triclinic
_cell_length_a                    25.669465
_cell_length_b                    6.927774
_cell_length_c                    21.89882
_cell_angle_alpha                 90.000022
_cell_angle_beta                  96.308316
_cell_angle_gamma                 90.0
_cell_volume                      3870.73646528

loop_
_atom_site_label
_atom_site_type_symbol
_atom_type_description
_atom_site_fract_x
_atom_site_fract_y
_atom_site_fract_z
_atom_type_partial_charge
O1    O     O_R   0.208650 0.594520 0.175450 -0.527920
O2    O     O_R   0.791350 0.405480 0.824550 -0.527920
O3    O     O_R   0.291350 0.094520 0.324550 -0.527920
O4    O     O_R   0.708650 0.905480 0.675450 -0.527920
O5    O     O_R   0.192980 0.260780 0.300160 -0.514660
O6    O     O_R   0.807020 0.739220 0.699840 -0.514661
O7    O     O_R   0.307020 0.760780 0.199840 -0.514660
O8    O     O_R   0.692980 0.239220 0.800160 -0.514660
C1    C     C_R   0.179003 0.432259 0.318762 0.719440
C2    C     C_R   0.820997 0.567741 0.681238 0.719441
C3    C     C_R   0.320997 0.932259 0.181238 0.719441
C4    C     C_R   0.679003 0.067741 0.818762 0.719441
O9    O     O_R   0.202550 0.264660 0.174420 -0.547558
O10   O     O_R   0.797450 0.735340 0.825580 -0.547558
O11   O     O_R   0.297450 0.764660 0.325580 -0.547558
O12   O     O_R   0.702550 0.235340 0.674420 -0.547558
O13   O     O_R   0.300990 0.096480 0.197920 -0.543459
O14   O     O_R   0.699010 0.903520 0.802080 -0.543458
O15   O     O_R   0.199010 0.596480 0.302080 -0.543458
O16   O     O_R   0.800990 0.403520 0.697920 -0.543459
C5    C     C_R   0.191228 0.433660 0.151076 0.686376
C6    C     C_R   0.808772 0.566340 0.848924 0.686374
C7    C     C_R   0.308772 0.933660 0.348924 0.686375
C8    C     C_R   0.691228 0.066340 0.651076 0.686376
O17   O     O_3   0.282290 0.427760 0.257860 -0.368735
O18   O     O_3   0.717710 0.572240 0.742140 -0.368735
O19   O     O_3   0.217710 0.927760 0.242140 -0.368735
O20   O     O_3   0.782290 0.072240 0.757860 -0.368735
V1    V     V_3+5 0.244010 0.152080 0.248540 1.444014
V2    V     V_3+5 0.755990 0.847920 0.751460 1.444014
V3    V     V_3+5 0.255990 0.652080 0.251460 1.444014
V4    V     V_3+5 0.744010 0.347920 0.748540 1.444015
C9    C     C_R   0.659126 0.057114 0.590697 -0.154325
C10   C     C_R   0.340874 0.942886 0.409303 -0.154325
C11   C     C_R   0.840874 0.557114 0.909303 -0.154325
C12   C     C_R   0.159126 0.442886 0.090697 -0.154325
C13   C     C_R   0.649586 0.084720 0.479991 -0.148487
C14   C     C_R   0.350414 0.915281 0.520009 -0.148487
C15   C     C_R   0.850414 0.584721 0.020009 -0.148486
C16   C     C_R   0.149586 0.415280 0.979991 -0.148487
C17   C     C_R   0.682038 0.075655 0.535340 0.352302
C18   C     C_R   0.317962 0.924346 0.464660 0.352302
C19   C     C_R   0.817962 0.575656 0.964659 0.352302
C20   C     C_R   0.182038 0.424345 0.035340 0.352302
C21   C     C_R   0.604531 0.035082 0.588314 -0.253326
C22   C     C_R   0.395468 0.964917 0.411686 -0.253326
C23   C     C_R   0.895469 0.535082 0.911686 -0.253327
C24   C     C_R   0.104531 0.464917 0.088314 -0.253326
C25   C     C_R   0.571569 0.023806 0.531770 0.075950
C26   C     C_R   0.428431 0.976194 0.468230 0.075950
C27   C     C_R   0.928431 0.523806 0.968230 0.075950
C28   C     C_R   0.071569 0.476194 0.031770 0.075950
C29   C     C_R   0.594466 0.067899 0.477537 -0.007040
C30   C     C_R   0.405534 0.932102 0.522463 -0.007041
C31   C     C_R   0.905534 0.567899 0.022463 -0.007040
C32   C     C_R   0.094466 0.432101 0.977537 -0.007041
C33   C     C_R   0.516365 0.980209 0.527943 -0.010400
C34   C     C_R   0.483635 0.019791 0.472057 -0.010400
C35   C     C_R   0.983635 0.480208 0.972057 -0.010400
C36   C     C_R   0.016365 0.519791 0.027943 -0.010400
C37   C     C_R   0.506951 0.106450 0.422426 -0.044588
C38   C     C_R   0.493049 0.893550 0.577573 -0.044588
C39   C     C_R   0.993049 0.606450 0.077574 -0.044588
C40   C     C_R   0.006951 0.393549 0.922427 -0.044588
C41   C     C_R   0.562036 0.109015 0.422848 -0.045223
C42   C     C_R   0.437964 0.890986 0.577152 -0.045222
C43   C     C_R   0.937964 0.609014 0.077152 -0.045222
C44   C     C_R   0.062036 0.390985 0.922848 -0.045223
H1    H     H_    0.411780 0.960452 0.368508 0.131965
H2    H     H_    0.588220 0.039547 0.631492 0.131966
H3    H     H_    0.088220 0.460452 0.131492 0.131966
H4    H     H_    0.911780 0.539546 0.868508 0.131966
H5    H     H_    0.668337 0.109746 0.438783 0.156171
H6    H     H_    0.331663 0.890256 0.561217 0.156171
H7    H     H_    0.831663 0.609748 0.061217 0.156171
H8    H     H_    0.168337 0.390254 0.938783 0.156171
C45   C     C_R   0.433156 0.800336 0.085548 -0.212684
C46   C     C_R   0.566844 0.199664 0.914451 -0.212685
C47   C     C_R   0.066844 0.300336 0.414452 -0.212684
C48   C     C_R   0.933156 0.699664 0.585548 -0.212685
H9    H     H_    0.456773 0.676636 0.075845 0.103779
H10   H     H_    0.543227 0.323363 0.924155 0.103780
H11   H     H_    0.043227 0.176637 0.424155 0.103779
H12   H     H_    0.956773 0.823363 0.575845 0.103780
C49   C     C_R   0.393695 0.780876 0.125477 0.348805
C50   C     C_R   0.606305 0.219124 0.874523 0.348805
C51   C     C_R   0.106305 0.280876 0.374523 0.348805
C52   C     C_R   0.893695 0.719124 0.625477 0.348805
C53   C     C_R   0.362906 0.943030 0.138380 -0.089013
C54   C     C_R   0.637094 0.056970 0.861620 -0.089013
C55   C     C_R   0.137094 0.443030 0.361620 -0.089014
C56   C     C_R   0.862906 0.556970 0.638380 -0.089013
C57   C     C_R   0.372202 0.119502 0.109267 -0.238288
C58   C     C_R   0.627798 0.880498 0.890733 -0.238288
C59   C     C_R   0.127798 0.619502 0.390733 -0.238289
C60   C     C_R   0.872202 0.380498 0.609267 -0.238288
H13   H     H_    0.348769 0.245360 0.116744 0.175732
H14   H     H_    0.651231 0.754640 0.883256 0.175731
H15   H     H_    0.151231 0.745360 0.383256 0.175732
H16   H     H_    0.848769 0.254640 0.616744 0.175732
C61   C     C_R   0.411376 0.136480 0.069705 -0.145529
C62   C     C_R   0.588624 0.863520 0.930295 -0.145529
C63   C     C_R   0.088624 0.636481 0.430295 -0.145529
C64   C     C_R   0.911376 0.363520 0.569705 -0.145529
H17   H     H_    0.417513 0.274298 0.048228 0.125364
H18   H     H_    0.582487 0.725702 0.951771 0.125364
H19   H     H_    0.082487 0.774298 0.451772 0.125364
H20   H     H_    0.917513 0.225702 0.548228 0.125364
C65   C     C_R   0.442209 0.977214 0.057858 0.092671
C66   C     C_R   0.557791 0.022786 0.942142 0.092671
C67   C     C_R   0.057791 0.477214 0.442142 0.092671
C68   C     C_R   0.942209 0.522786 0.557858 0.092671
C69   C     C_1   0.482944 0.993721 0.017022 -0.038694
C70   C     C_1   0.517056 0.006278 0.982978 -0.038694
C71   C     C_1   0.017056 0.493722 0.482978 -0.038694
C72   C     C_1   0.982944 0.506278 0.517022 -0.038694
C73   C     C_R   0.585702 0.172984 0.367405 0.095210
C74   C     C_R   0.600238 0.035214 0.325516 -0.156084
C75   C     C_R   0.622542 0.093640 0.273109 -0.115568
C76   C     C_R   0.630691 0.289746 0.262507 -0.086597
C77   C     C_R   0.616611 0.427605 0.304345 -0.114019
C78   C     C_R   0.594191 0.369782 0.356806 -0.108117
H21   H     H_    0.593870 0.883283 0.333431 0.106900
H22   H     H_    0.633494 0.986968 0.240738 0.113689
H23   H     H_    0.647988 0.334889 0.221926 0.111903
H24   H     H_    0.623179 0.579046 0.296039 0.103627
H25   H     H_    0.583337 0.477487 0.388969 0.109306
C79   C     C_R   0.414298 0.827019 0.632594 0.095210
C80   C     C_R   0.405808 0.630220 0.643194 -0.108118
C81   C     C_R   0.383388 0.572399 0.695655 -0.114020
C82   C     C_R   0.369309 0.710259 0.737493 -0.086596
C83   C     C_R   0.377458 0.906365 0.726891 -0.115568
C84   C     C_R   0.399762 0.964790 0.674484 -0.156084
H26   H     H_    0.416662 0.522515 0.611030 0.109306
H27   H     H_    0.376820 0.420957 0.703960 0.103627
H28   H     H_    0.352011 0.665117 0.778074 0.111903
H29   H     H_    0.366508 0.013038 0.759262 0.113689
H30   H     H_    0.406131 0.116721 0.666569 0.106900
C85   C     C_R   0.914298 0.672979 0.132595 0.095208
C86   C     C_R   0.899761 0.535206 0.174483 -0.156084
C87   C     C_R   0.877457 0.593628 0.226891 -0.115567
C88   C     C_R   0.869310 0.789734 0.237495 -0.086597
C89   C     C_R   0.883391 0.927596 0.195658 -0.114019
C90   C     C_R   0.905810 0.869777 0.143196 -0.108117
H31   H     H_    0.906128 0.383275 0.166566 0.106900
H32   H     H_    0.866505 0.486953 0.259260 0.113688
H33   H     H_    0.852013 0.834874 0.278076 0.111903
H34   H     H_    0.876824 0.079038 0.203966 0.103626
H35   H     H_    0.916665 0.977485 0.111035 0.109306
C91   C     C_R   0.085702 0.327016 0.867406 0.095211
C92   C     C_R   0.094193 0.130218 0.856808 -0.108118
C93   C     C_R   0.116613 0.072394 0.804347 -0.114020
C94   C     C_R   0.130692 0.210254 0.762508 -0.086595
C95   C     C_R   0.122541 0.406359 0.773108 -0.115567
C96   C     C_R   0.100237 0.464786 0.825515 -0.156085
H36   H     H_    0.083340 0.022513 0.888971 0.109306
H37   H     H_    0.123182 0.920953 0.796042 0.103628
H38   H     H_    0.147989 0.165110 0.721927 0.111902
H39   H     H_    0.133491 0.513032 0.740737 0.113689
H40   H     H_    0.093868 0.616716 0.833429 0.106900
O21   O     O_3   0.264594 0.905961 0.467180 -0.643353
H41   H     H_    0.245499 0.923782 0.425831 0.283535
O22   O     O_3   0.735406 0.094040 0.532820 -0.643353
H42   H     H_    0.754501 0.076219 0.574169 0.283535
O23   O     O_3   0.235406 0.405960 0.032820 -0.643353
H43   H     H_    0.254501 0.423781 0.074169 0.283535
O24   O     O_3   0.764594 0.594042 0.967180 -0.643353
H44   H     H_    0.745499 0.576221 0.925831 0.283535
C97   C     C_R   0.475130 0.229168 0.376677 0.103726
C98   C     C_R   0.471301 0.188819 0.313308 -0.146356
C99   C     C_R   0.438390 0.299248 0.271961 -0.130543
C100  C     C_R   0.408842 0.448770 0.293568 -0.065615
C101  C     C_R   0.412358 0.488855 0.356238 -0.137774
C102  C     C_R   0.445898 0.382087 0.397631 -0.116399
H45   H     H_    0.492109 0.067918 0.296249 0.122654
H46   H     H_    0.435071 0.266290 0.223417 0.124814
H47   H     H_    0.382612 0.532493 0.262172 0.174354
H48   H     H_    0.388370 0.600191 0.372937 0.130329
H49   H     H_    0.447977 0.414797 0.446229 0.114052
C103  C     C_R   0.524870 0.770831 0.623323 0.103726
C104  C     C_R   0.554102 0.617912 0.602369 -0.116399
C105  C     C_R   0.587641 0.511145 0.643761 -0.137774
C106  C     C_R   0.591158 0.551229 0.706431 -0.065615
C107  C     C_R   0.561610 0.700751 0.728039 -0.130542
C108  C     C_R   0.528698 0.811180 0.686691 -0.146357
H50   H     H_    0.552023 0.585203 0.553771 0.114052
H51   H     H_    0.611629 0.399809 0.627063 0.130329
H52   H     H_    0.617388 0.467505 0.737827 0.174353
H53   H     H_    0.564928 0.733708 0.776582 0.124814
H54   H     H_    0.507891 0.932081 0.703751 0.122654
C109  C     C_R   0.024870 0.729168 0.123323 0.103725
C110  C     C_R   0.028698 0.688819 0.186692 -0.146357
C111  C     C_R   0.061610 0.799247 0.228039 -0.130544
C112  C     C_R   0.091158 0.948769 0.206432 -0.065614
C113  C     C_R   0.087642 0.988854 0.143762 -0.137774
C114  C     C_R   0.054102 0.882087 0.102369 -0.116399
H55   H     H_    0.007891 0.567918 0.203751 0.122655
H56   H     H_    0.064928 0.766290 0.276583 0.124814
H57   H     H_    0.117388 0.032493 0.237828 0.174353
H58   H     H_    0.111629 0.100191 0.127063 0.130329
H59   H     H_    0.052023 0.914797 0.053771 0.114052
C115  C     C_R   0.975130 0.270831 0.876677 0.103726
C116  C     C_R   0.945898 0.117912 0.897631 -0.116398
C117  C     C_R   0.912358 0.011144 0.856239 -0.137775
C118  C     C_R   0.908842 0.051228 0.793569 -0.065615
C119  C     C_R   0.938390 0.200750 0.771961 -0.130543
C120  C     C_R   0.971301 0.311179 0.813309 -0.146357
H60   H     H_    0.947977 0.085203 0.946229 0.114052
H61   H     H_    0.888370 0.899808 0.872937 0.130330
H62   H     H_    0.882612 0.967504 0.762172 0.174353
H63   H     H_    0.935072 0.233707 0.723418 0.124814
H64   H     H_    0.992109 0.432080 0.796249 0.122654
O25   O     O_3   0.384868 0.604911 0.151783 -0.664354
H65   H     H_    0.411598 0.511575 0.140887 0.268041
O26   O     O_3   0.615131 0.395088 0.848217 -0.664354
H66   H     H_    0.588402 0.488425 0.859113 0.268041
O27   O     O_3   0.115131 0.104911 0.348217 -0.664355
H67   H     H_    0.088402 0.011575 0.359113 0.268042
O28   O     O_3   0.884868 0.895088 0.651783 -0.664355
H68   H     H_    0.911598 0.988425 0.640887 0.268042

loop_
_geom_bond_atom_site_label_1
_geom_bond_atom_site_label_2
_ccdc_geom_bond_type
C100  H47   S    
O17   V3    S    
C116  C117  A    
C25   C29   A    
O1    C5    A    
O23   H43   S    
C51   C55   A    
O19   V1    S    
C9    C21   A    
C97   C98   A    
C78   H25   S    
O3    C7    A    
O22   H42   S    
C10   C18   A    
C56   C60   A    
C48   H12   S    
C11   C23   A    
C79   C80   A    
C1    C55   S    
C47   C51   A    
O21   H41   S    
C18   O21   S    
C25   C33   A    
C33   C38   A    
C5    C12   S    
C84   H30   S    
C104  C105  A    
C103  C104  A    
O7    C3    A    
C6    C11   S    
C35   C40   A    
C26   C30   A    
C36   C39   A    
C40   C44   A    
O9    V1    S    
C14   C18   A    
C38   C103  S    
O4    C8    A    
C59   H15   S    
C68   C72   S    
C98   C99   A    
C58   H14   S    
C61   C65   A    
C111  H56   S    
O1    V3    S    
O13   V1    S    
C107  C108  A    
O2    V4    S    
C94   H38   S    
O3    V1    S    
C46   H10   S    
C50   O26   S    
C22   H1    S    
C13   H5    S    
C28   C36   A    
C109  C114  A    
C119  H63   S    
C1    O15   A    
C15   C31   A    
C52   C56   A    
C2    O16   A    
C83   C84   A    
C16   C32   A    
C117  H61   S    
O2    C6    A    
C106  H52   S    
C92   C93   A    
C12   C24   A    
C10   C22   A    
C15   H7    S    
C11   C19   A    
C66   C70   S    
C16   C20   A    
C111  C112  A    
C65   C69   S    
C20   O23   S    
C13   C29   A    
C46   C50   A    
C34   C37   A    
O11   C7    A    
C112  C113  A    
C21   H2    S    
C76   C77   A    
O15   V3    S    
C35   C36   A    
O12   C8    A    
C101  C102  A    
C74   C75   A    
C61   H17   S    
O10   V2    S    
O16   V4    S    
C59   C63   A    
C54   C58   A    
O5    V1    S    
C98   H45   S    
O17   V1    S    
C89   H34   S    
C39   C43   A    
O7    V3    S    
C115  C116  A    
C38   C42   A    
O19   V3    S    
C109  C110  A    
O8    V4    S    
O20   V4    S    
C104  H50   S    
C44   C91   S    
C86   C87   A    
C69   C70   T    
C82   H28   S    
C50   C54   A    
C57   C61   A    
O24   H44   S    
C64   C68   A    
C49   C53   A    
C119  C120  A    
C23   C27   A    
C113  C114  A    
C83   H29   S    
C75   H22   S    
C55   C59   A    
C53   C57   A    
C16   H8    S    
C77   H24   S    
C26   C34   A    
C97   C102  A    
C73   C78   A    
C106  C107  A    
O5    C1    A    
C90   H35   S    
C49   O25   S    
C43   C85   S    
C67   C71   S    
C85   C90   A    
C3    C53   S    
C112  H57   S    
C14   C30   A    
O25   H65   S    
O8    C4    A    
C7    C10   S    
C48   C68   A    
C21   C25   A    
C95   C96   A    
O9    C5    A    
C46   C66   A    
C92   H36   S    
C117  C118  A    
C75   C76   A    
C45   C65   A    
C105  C106  A    
C99   C100  A    
C77   C78   A    
C87   H32   S    
C37   C41   A    
O14   V2    S    
C118  C119  A    
C118  H62   S    
O6    V2    S    
C81   H27   S    
O18   V2    S    
C115  C120  A    
C17   O22   S    
C120  H64   S    
C12   C20   A    
C27   C35   A    
C24   H3    S    
C82   C83   A    
C57   H13   S    
C64   H20   S    
C29   C41   A    
C100  C101  A    
C105  H51   S    
C113  H58   S    
C14   H6    S    
C4    C54   S    
O28   H68   S    
C40   C115  S    
C93   H37   S    
C3    O13   A    
C96   H40   S    
C76   H23   S    
C88   H33   S    
C86   H31   S    
O6    C2    A    
C31   C43   A    
C85   C86   A    
O11   V3    S    
C30   C42   A    
C63   C67   A    
C19   O24   S    
O12   V4    S    
C99   H46   S    
C22   C26   A    
C73   C74   A    
C8    C9    S    
C91   C92   A    
C52   O28   S    
C47   C67   A    
C91   C96   A    
C9    C17   A    
C110  C111  A    
O10   C6    A    
C60   C64   A    
C81   C82   A    
C80   C81   A    
C95   H39   S    
C48   C52   A    
C32   C44   A    
C87   C88   A    
C110  H55   S    
C47   H11   S    
C33   C34   A    
C101  H48   S    
C45   C49   A    
C39   C109  S    
C60   H16   S    
O27   H67   S    
O20   V2    S    
C42   C79   S    
C62   H18   S    
C116  H60   S    
C27   C31   A    
C74   H21   S    
C51   O27   S    
O26   H66   S    
C13   C17   A    
C23   H4    S    
C62   C66   A    
C103  C108  A    
C2    C56   S    
C80   H26   S    
C28   C32   A    
C108  H54   S    
C24   C28   A    
C37   C97   S    
C93   C94   A    
C58   C62   A    
C45   H9    S    
C15   C19   A    
C4    O14   A    
C41   C73   S    
C88   C89   A    
C63   H19   S    
C71   C72   T    
C114  H59   S    
C79   C84   A    
C102  H49   S    
C107  H53   S    
O18   V4    S    
O4    V2    S    
C89   C90   A    
C94   C95   A    
