data_mof_unit_16063.cif
_audit_creation_date              2012-12-11T18:00:02-0500
_audit_creation_method            fapswitch 2.2
_symmetry_space_group_name_H-M    P1
_symmetry_Int_Tables_number       1
_space_group_crystal_system       triclinic
_cell_length_a                    8.333824
_cell_length_b                    12.889383
_cell_length_c                    18.625574
_cell_angle_alpha                 96.110678
_cell_angle_beta                  93.215398
_cell_angle_gamma                 99.618416
_cell_volume                      1955.80868473

loop_
_atom_site_label
_atom_site_type_symbol
_atom_type_description
_atom_site_fract_x
_atom_site_fract_y
_atom_site_fract_z
_atom_type_partial_charge
Ba1   Ba    Ba6+2 0.851480 0.550950 0.465800 1.784350
Ba2   Ba    Ba6+2 0.338350 0.449140 0.534210 1.759495
C1    C     C_3   0.696272 0.703041 0.097461 -0.296242
C2    C     C_3   0.588698 0.712378 0.161163 0.284182
C3    C     C_3   0.511940 0.285419 0.310238 0.354953
C4    C     C_3   0.573135 0.254963 0.235931 -0.273855
C5    C     C_3   0.018376 0.186454 0.733487 0.560739
C6    C     C_3   0.101959 0.229750 0.808282 0.388198
C7    C     C_3   0.561548 0.173037 0.706168 0.302857
C8    C     C_3   0.595963 0.086353 0.751163 -0.269172
C9    C     C_2   0.308443 0.505544 0.293272 -0.084907
C10   C     C_3   0.447342 0.494617 0.246368 -0.076069
C11   C     C_2   0.390293 0.471190 0.166167 -0.133227
C12   C     C_3   0.081831 0.804717 0.272886 0.740468
C13   C     C_2   0.229450 0.455824 0.143472 0.025530
C14   C     C_2   0.107496 0.448072 0.199937 -0.054111
C15   C     C_1   0.158956 0.459440 0.269465 0.001381
C16   C     C_R   0.061683 0.466388 0.925813 0.478195
C17   C     C_R   0.174647 0.453693 0.065095 0.543605
C18   C     C_R   0.095626 0.522265 0.799239 -0.080794
C19   C     C_R   0.034058 0.523230 0.727109 0.095543
C20   C     C_R   0.771801 0.431178 0.755286 0.008334
C21   C     C_R   0.831496 0.430718 0.827151 -0.106283
C22   C     C_R   0.996015 0.474079 0.850013 -0.081804
C23   C     C_3   0.020215 0.847760 0.205342 -0.312830
C24   C     C_R   0.874543 0.474098 0.705542 -0.256748
C25   C     C_R   0.766581 0.180742 0.531522 -0.169047
C26   C     C_R   0.431141 0.812204 0.473521 -0.229641
C27   C     C_R   0.399320 0.989259 0.452798 -0.052416
C28   C     C_R   0.337409 0.881770 0.448602 0.056065
C29   C     C_R   0.582117 0.849657 0.510879 0.030429
C30   C     C_R   0.644973 0.961204 0.520509 -0.052536
C31   C     C_R   0.552804 0.031181 0.488589 -0.049822
C32   C     C_R   0.615369 0.141216 0.493781 0.079795
C33   C     C_R   0.859145 0.113822 0.562799 0.020777
C34   C     C_3   0.242222 0.778236 0.618382 0.328187
C35   C     C_R   0.796945 0.004991 0.558955 -0.066100
C36   C     C_3   0.247610 0.896926 0.634679 -0.239603
C37   C     C_3   0.077445 0.214595 0.303496 0.281839
C38   C     C_3   0.996368 0.099689 0.280363 0.375318
C39   C     C_3   0.730455 0.692629 0.683019 0.260702
C40   C     C_3   0.730334 0.717017 0.765923 0.255059
H1    H     H_    0.541330 0.786092 0.155557 0.137266
H2    H     H_    0.326426 0.927557 0.684741 0.163437
H3    H     H_    0.297517 0.938944 0.589944 0.004428
H4    H     H_    0.122926 0.913592 0.642369 0.153856
H5    H     H_    0.178474 0.215188 0.344653 0.061594
H6    H     H_    0.124949 0.247411 0.254499 -0.115396
H7    H     H_    0.921230 0.093283 0.228392 0.002971
H8    H     H_    0.094784 0.053128 0.273435 0.016913
H9    H     H_    0.851365 0.675205 0.669191 0.003482
H10   H     H_    0.635962 0.621589 0.665361 -0.018786
H11   H     H_    0.791651 0.773331 0.097661 0.076381
H12   H     H_    0.750810 0.645297 0.790648 -0.057188
H13   H     H_    0.484168 0.649642 0.150736 0.061285
H14   H     H_    0.617082 0.703887 0.047474 0.113156
H15   H     H_    0.396635 0.315589 0.303603 -0.184769
H16   H     H_    0.602849 0.350805 0.338237 0.081732
H17   H     H_    0.636535 0.327885 0.215656 0.037381
H18   H     H_    0.664499 0.202195 0.241153 0.122973
H19   H     H_    0.102710 0.919574 0.193792 0.117165
H20   H     H_    0.960697 0.251374 0.714114 -0.446285
H21   H     H_    0.922673 0.117568 0.738174 0.026033
H22   H     H_    0.205171 0.294444 0.803095 0.051282
H23   H     H_    0.012356 0.262870 0.841537 -0.043305
H24   H     H_    0.678090 0.205682 0.683989 -0.070154
H25   H     H_    0.471770 0.137720 0.660100 0.060016
H26   H     H_    0.644106 0.024344 0.716927 0.095133
H27   H     H_    0.483614 0.049220 0.773587 0.210736
H28   H     H_    0.995933 0.732101 0.281028 0.052294
H29   H     H_    0.686069 0.120514 0.797295 0.144534
H30   H     H_    0.480967 0.468872 0.127207 0.117681
H31   H     H_    0.977681 0.432179 0.184065 0.113384
H32   H     H_    0.220645 0.557555 0.815284 0.140608
H33   H     H_    0.750229 0.394813 0.864453 0.132001
H34   H     H_    0.336600 0.539036 0.349465 0.064978
H35   H     H_    0.827513 0.473416 0.650121 0.049043
H36   H     H_    0.323328 0.039113 0.429646 0.125711
H37   H     H_    0.870721 0.955537 0.583950 0.100087
H38   H     H_    0.816820 0.264056 0.533115 0.049598
H39   H     H_    0.380374 0.728533 0.468423 0.060911
H40   H     H_    0.019297 0.788576 0.157884 0.141468
H41   H     H_    0.896987 0.867257 0.210453 0.153773
H42   H     H_    0.365628 0.762969 0.607797 -0.028908
H43   H     H_    0.155885 0.748775 0.570140 0.022802
N1    N     N_R   0.216802 0.511777 0.951031 -0.202646
N2    N     N_R   0.271848 0.505682 0.019092 -0.198927
N3    N     N_R   0.021132 0.406788 0.039436 -0.228471
N4    N     N_R   0.966550 0.412483 0.971431 -0.222672
O1    O     O_2   0.866600 0.438960 0.328790 -0.469709
O2    O     O_3   0.699158 0.780276 0.649404 -0.603376
O3    O     O_3   0.093664 0.882907 0.331890 -0.581553
O4    O     O_2   0.323100 0.561070 0.671250 -0.479289
O5    O     O_3   0.070470 0.559320 0.583840 -0.517213
O6    O     O_3   0.535090 0.363180 0.628460 -0.493810
O7    O     O_3   0.193142 0.731068 0.679438 -0.560942
O8    O     O_3   0.609990 0.369010 0.464390 -0.500358
O9    O     O_3   0.112090 0.307030 0.593210 -0.451621
O10   O     O_2   0.195207 0.121604 0.552348 -0.467735
O11   O     O_3   0.132223 0.153474 0.687101 -0.586047
O12   O     O_3   0.119240 0.440770 0.416170 -0.478818
O13   O     O_3   0.579720 0.631080 0.535620 -0.500012
O14   O     O_2   0.340230 0.234420 0.466230 -0.460259
O15   O     O_3   0.486544 0.196934 0.348826 -0.609716
O16   O     O_2   0.438901 0.443052 0.753755 -0.468853
O17   O     O_3   0.495534 0.249044 0.749833 -0.544527
O18   O     O_3   0.654630 0.636910 0.371550 -0.452146
O19   O     O_2   0.782123 0.560588 0.254982 -0.476336
O20   O     O_3   0.964482 0.271169 0.334632 -0.580000
O21   O     O_3   0.665744 0.722773 0.232332 -0.533130
O22   O     O_2   0.849480 0.765610 0.533810 -0.473333
O23   O     O_3   0.077620 0.693060 0.406790 -0.493533
O24   O     O_2   0.014854 0.881958 0.464183 -0.446991
P1    P     P_3+3 0.034960 0.407000 0.339750 1.009201
P2    P     P_3+3 0.674960 0.749840 0.554930 0.990327
P3    P     P_3+3 0.128098 0.831910 0.413612 1.082166
P4    P     P_3+3 0.154750 0.593090 0.660260 1.022081
P5    P     P_3+3 0.071925 0.170568 0.598252 1.053429
P6    P     P_3+3 0.628162 0.604937 0.274730 1.077362
P7    P     P_3+3 0.518425 0.234629 0.442739 1.018798
P8    P     P_3+3 0.560007 0.374305 0.722896 1.004630
S1    S     S_3+6 0.871023 0.047991 0.347317 -0.066307
O25   O     O_2   0.971157 0.066288 0.418315 -0.316041
O26   O     O_2   0.732244 0.106761 0.352428 -0.318317
O27   O     O_3   0.791948 0.918892 0.326858 -0.473656
H44   H     H_    0.721450 0.901082 0.366428 0.369673
S2    S     S_3+6 0.892746 0.821572 0.802605 -0.020045
O28   O     O_2   0.910102 0.908540 0.754463 -0.261049
O29   O     O_2   0.855574 0.865044 0.876794 -0.253760
O30   O     O_3   0.067566 0.773562 0.809638 -0.528834
H45   H     H_    0.148561 0.832819 0.835238 0.391267
C41   C     C_2   0.570521 0.744130 0.788954 0.915346
O31   O     O_2   0.516331 0.817505 0.765638 -0.584371
O32   O     O_R   0.489533 0.688917 0.840680 -0.740661
H46   H     H_    0.390517 0.719378 0.856030 0.321551
C42   C     C_2   0.436929 0.201010 0.180963 0.898879
O33   O     O_2   0.412345 0.240388 0.125512 -0.548978
O34   O     O_R   0.340421 0.105123 0.191018 -0.744588
H47   H     H_    0.372585 0.078568 0.237922 0.317100
C43   C     C_2   0.761696 0.601712 0.088837 0.886573
O35   O     O_2   0.887520 0.593637 0.122896 -0.586206
O36   O     O_R   0.679716 0.517656 0.039620 -0.730203
H48   H     H_    0.721592 0.449241 0.044327 0.338049
S3    S     S_3+6 0.173061 0.131072 0.855908 -0.010386
O37   O     O_2   0.200704 0.039368 0.804223 -0.271993
O38   O     O_2   0.330478 0.179497 0.899118 -0.252921
O39   O     O_3   0.032778 0.088166 0.912380 -0.454994
H49   H     H_    0.086621 0.043650 0.942931 0.388338
S4    S     S_3+6 0.275863 0.774484 0.255380 -0.136663
O40   O     O_2   0.348520 0.727743 0.316935 -0.377600
O41   O     O_2   0.248882 0.695192 0.189053 -0.391226
O42   O     O_3   0.402287 0.885488 0.241815 -0.505710
H50   H     H_    0.373290 0.897728 0.191515 0.339668

loop_
_geom_bond_atom_site_label_1
_geom_bond_atom_site_label_2
_ccdc_geom_bond_type
C19   C24   A    
Ba1   O1    S    
C39   C40   S    
O39   H49   S    
C7    H25   S    
C5    C6    S    
C28   P3    S    
C13   C17   S    
C35   H37   S    
C16   N1    A    
C3    H16   S    
C16   C22   S    
Ba2   O6    S    
C33   C35   A    
C43   O36   S    
C17   N2    A    
C9    H34   S    
S4    O41   D    
Ba1   O23   S    
C3    C4    S    
O5    P4    S    
Ba2   O13   S    
N3    N4    A    
C13   C14   S    
C27   C31   A    
O17   P8    S    
Ba1   Ba2   S    
O18   P6    S    
C18   C22   A    
C7    H24   S    
C36   H3    S    
C19   P4    S    
O13   P2    S    
C27   H36   S    
O14   P7    D    
Ba2   O8    S    
C14   C15   D    
C4    C42   S    
C21   C22   A    
C7    C8    S    
C39   H10   S    
O24   P3    D    
C8    H29   S    
O6    P8    S    
C3    O15   S    
C6    H23   S    
O12   P1    S    
C12   H28   S    
O19   P6    D    
O4    P4    D    
S3    O39   S    
C29   P2    S    
Ba2   P4    S    
C15   P1    S    
O9    P5    S    
Ba2   O4    S    
C25   C32   A    
C32   P7    S    
C24   H35   S    
C5    O11   S    
C18   H32   S    
C14   H31   S    
C4    H18   S    
O7    P4    S    
Ba2   O5    S    
C43   O35   D    
S3    O38   D    
C25   H38   S    
S4    O42   S    
Ba1   O8    S    
C37   C38   S    
N1    N2    A    
C41   O31   D    
Ba2   O12   S    
C25   C33   A    
C7    O17   S    
C1    C2    S    
S2    O29   D    
C5    H20   S    
C36   H2    S    
C27   C28   A    
C10   P6    S    
C1    H14   S    
C34   O7    S    
C29   C30   A    
C5    H21   S    
C31   C32   A    
O16   P8    D    
C6    S3    S    
C23   H19   S    
C30   C35   A    
C10   C11   S    
O3    P3    S    
C12   O3    S    
O20   P1    S    
Ba1   O18   S    
C40   S2    S    
C42   O34   S    
C39   O2    S    
C11   H30   S    
C6    H22   S    
C17   N3    A    
C11   C13   D    
C2    H13   S    
O27   H44   S    
O11   P5    S    
Ba1   P1    S    
S1    O26   D    
S2    O28   D    
Ba1   O12   S    
O23   P3    S    
C20   P8    S    
C37   H5    S    
C2    O21   S    
C9    C15   D    
C26   H39   S    
C20   C21   A    
C16   N4    A    
C4    H17   S    
C26   C29   A    
C34   H42   S    
C21   H33   S    
C42   O33   D    
O21   P6    S    
Ba1   O5    S    
O22   P2    D    
C9    C10   S    
O32   H46   S    
C1    C43   S    
C2    H1    S    
C8    H26   S    
C34   H43   S    
C38   S1    S    
C3    H15   S    
S3    O37   D    
C30   C31   A    
S1    O27   S    
C26   C28   A    
O30   H45   S    
S2    O30   S    
S4    O40   D    
Ba1   O22   S    
O10   P5    D    
C1    H11   S    
C23   H40   S    
Ba2   O14   S    
O8    P7    S    
C38   H8    S    
C12   S4    S    
C34   C36   S    
O2    P2    S    
O1    P1    D    
C12   C23   S    
C36   H4    S    
O34   H47   S    
C8    H27   S    
C37   O20   S    
C18   C19   A    
Ba2   O9    S    
C41   O32   S    
C20   C24   A    
C23   H41   S    
O36   H48   S    
C33   P5    S    
C40   C41   S    
O42   H50   S    
Ba1   P2    S    
S1    O25   D    
Ba1   O13   S    
C39   H9    S    
C40   H12   S    
C38   H7    S    
C37   H6    S    
O15   P7    S    
