data_mof_unit_55815.cif
_audit_creation_date              2013-03-05T15:46:57-0500
_audit_creation_method            fapswitch 2.2
_symmetry_space_group_name_H-M    P1
_symmetry_Int_Tables_number       1
_space_group_crystal_system       triclinic
_cell_length_a                    10.187081
_cell_length_b                    10.86558
_cell_length_c                    14.918789
_cell_angle_alpha                 89.929063
_cell_angle_beta                  80.562055
_cell_angle_gamma                 95.960996
_cell_volume                      1619.89706812

loop_
_atom_site_label
_atom_site_type_symbol
_atom_site_description
_atom_site_fract_x
_atom_site_fract_y
_atom_site_fract_z
_atom_type_partial_charge
O1    O     O_R   0.431060 0.692470 0.507460 -0.635748
O2    O     O_R   0.568940 0.307530 0.492540 -0.629272
O3    O     O_R   0.651120 0.659650 0.483670 -0.567077
O4    O     O_R   0.348880 0.340350 0.516330 -0.573423
C1    C     C_R   0.557311 0.732387 0.493474 0.881208
C2    C     C_R   0.442676 0.267522 0.506674 0.879245
O5    O     O_R   0.389960 0.516440 0.644050 -0.601793
O6    O     O_R   0.610040 0.483560 0.355950 -0.592557
O7    O     O_R   0.610030 0.483620 0.620260 -0.606524
O8    O     O_R   0.389970 0.516380 0.379740 -0.613139
C3    C     C_R   0.500102 0.501152 0.672663 0.940179
C4    C     C_R   0.500075 0.498805 0.327327 0.940221
Zn1   Zn    Zn3+2 0.353060 0.521920 0.515880 1.038437
Zn2   Zn    Zn3+2 0.646940 0.478080 0.484120 1.044115
C5    C     C_R   0.472942 0.382813 0.189874 0.272729
C6    C     C_R   0.524243 0.617434 0.810545 0.275685
C7    C     C_R   0.501047 0.495402 0.231945 -0.162875
C8    C     C_R   0.501759 0.504346 0.767766 -0.163963
C9    C     C_R   0.532013 0.606429 0.183920 -0.222941
C10   C     C_R   0.483564 0.392087 0.814328 -0.223944
C11   C     C_R   0.533782 0.608512 0.091300 0.082157
C12   C     C_R   0.484247 0.389690 0.906674 0.081437
C13   C     C_R   0.508250 0.496911 0.045982 0.016906
C14   C     C_R   0.509066 0.501295 0.952108 0.016023
C15   C     C_R   0.481829 0.381444 0.094604 -0.106745
C16   C     C_R   0.534700 0.616808 0.903585 -0.103831
C17   C     C_R   0.564646 0.720970 0.043688 -0.198535
C18   C     C_R   0.463600 0.276214 0.953100 -0.199505
C19   C     C_R   0.569536 0.726243 0.950093 0.317965
C20   C     C_R   0.465290 0.270163 0.045946 0.318584
H1    H     H_    0.553440 0.691545 0.219398 0.172560
H2    H     H_    0.466891 0.306535 0.778295 0.170519
H3    H     H_    0.590056 0.805069 0.079054 0.213764
H4    H     H_    0.450053 0.190918 0.916403 0.215046
H5    H     H_    0.600757 0.105098 0.451035 0.225290
H6    H     H_    0.401462 0.894930 0.553666 0.220834
C21   C     C_2   0.593396 0.864713 0.486851 0.159074
C22   C     C_2   0.406953 0.135010 0.514278 0.148694
C23   C     C_2   0.495506 0.935637 0.514821 -0.176429
C24   C     C_2   0.505944 0.064319 0.488723 -0.164988
H7    H     H_    0.110810 0.421898 0.446464 0.181419
H8    H     H_    0.889428 0.578905 0.552916 0.183620
N1    N     N_2   0.842700 0.448880 0.462930 -0.160917
N2    N     N_2   0.157300 0.551120 0.537070 -0.159505
C25   C     C_2   0.927483 0.509981 0.505890 -0.091382
C26   C     C_2   0.072635 0.490422 0.493803 -0.089516
N3    N     N_R   0.426671 0.273867 0.245213 0.213243
O9    O     O_R   0.302369 0.227217 0.252835 -0.320514
O10   O     O_R   0.504330 0.229263 0.295306 -0.376842
N4    N     N_R   0.527070 0.730701 0.760315 0.212429
O11   O     O_R   0.430831 0.800933 0.780351 -0.331634
O12   O     O_R   0.618845 0.758060 0.689657 -0.368632
N5    N     N_R   0.621695 0.840895 0.903544 0.248605
O13   O     O_R   0.576356 0.943532 0.933078 -0.300957
O14   O     O_R   0.733121 0.846240 0.846124 -0.291216
N6    N     N_R   0.460477 0.150163 0.087100 0.255852
O15   O     O_R   0.366780 0.064064 0.074726 -0.292515
O16   O     O_R   0.564745 0.119295 0.118288 -0.297797
N7    N     N_R   0.272997 0.084873 0.552957 0.220620
O17   O     O_R   0.204493 0.142102 0.618348 -0.327886
O18   O     O_R   0.212446 0.993726 0.513846 -0.313406
N8    N     N_R   0.726637 0.914568 0.446402 0.221317
O19   O     O_R   0.791729 0.858825 0.378660 -0.331616
O20   O     O_R   0.790309 0.003198 0.485983 -0.311330
C27   C     C_1   0.116449 0.642194 0.597935 0.373200
N9    N     N_1   0.082911 0.717969 0.648527 -0.103590
C28   C     C_1   0.883318 0.357029 0.402697 0.375185
N10   N     N_1   0.916664 0.280607 0.352633 -0.103620

loop_
_geom_bond_atom_site_label_1
_geom_bond_atom_site_label_2
_geom_bond_distance
_ccdc_geom_bond_type
C4    C7    1.421947 S    
N4    O12   1.300744 A    
O7    Zn2   2.006165 S    
C2    C22   1.447622 S    
C3    C8    1.422118 S    
N8    O19   1.301183 A    
C21   C23   1.336546 D    
C1    C21   1.445732 S    
C17   C19   1.389928 A    
N1    C25   1.288798 D    
N8    O20   1.301571 A    
N3    O9    1.301007 A    
O6    C4    1.288387 A    
C13   C14   1.399861 A    
C9    H1    1.086413 S    
C18   C20   1.389648 A    
H5    C24   1.085235 S    
C11   C17   1.393305 A    
C18   H4    1.084983 S    
N7    O17   1.301444 A    
N3    O10   1.300725 A    
C12   C18   1.392993 A    
C25   C26   1.497361 S    
C17   H3    1.085016 S    
O5    C3    1.290105 A    
O7    C3    1.288055 A    
C14   C16   1.426607 A    
N2    C27   1.393119 S    
O2    C2    1.297148 A    
H7    C26   1.084315 S    
C19   N5    1.433830 S    
O3    Zn2   1.968875 S    
O1    C1    1.296793 A    
O8    C4    1.289656 A    
C6    C8    1.400377 A    
C22   C24   1.337083 D    
C6    N4    1.435378 S    
N4    O11   1.301042 A    
C8    C10   1.383259 A    
N5    O14   1.301139 A    
C11   C13   1.410444 A    
C6    C16   1.409500 A    
O2    Zn2   1.934446 S    
C12   C14   1.410135 A    
C5    C15   1.409490 A    
O1    Zn1   1.934444 S    
C10   C12   1.379075 A    
C7    C9    1.383062 A    
C22   N7    1.441704 S    
O5    Zn1   2.010282 S    
C13   C15   1.426978 A    
N6    O15   1.301184 A    
C16   C19   1.419998 A    
O4    C2    1.293102 A    
C27   N9    1.157449 T    
C10   H2    1.086423 S    
N7    O18   1.301667 A    
C23   C24   1.439465 S    
C5    C7    1.400198 A    
C21   N8    1.441461 S    
C5    N3    1.434973 S    
C15   C20   1.420321 A    
N1    C28   1.393118 S    
O6    Zn2   2.010279 S    
N2    C26   1.288798 D    
C9    C11   1.379075 A    
Zn1   N2    2.025447 S    
N5    O13   1.301001 A    
C20   N6    1.433289 S    
H8    C25   1.084311 S    
H6    C23   1.085629 S    
C28   N10   1.157444 T    
O4    Zn1   1.968877 S    
N6    O16   1.301119 A    
Zn2   N1    2.025447 S    
O3    C1    1.292510 A    
O8    Zn1   2.006162 S    
