data_mof_unit_9082.cif
_audit_creation_date              2012-12-10T17:45:33-0500
_audit_creation_method            fapswitch 2.2
_symmetry_space_group_name_H-M    P1
_symmetry_Int_Tables_number       1
_space_group_crystal_system       triclinic
_cell_length_a                    11.5236
_cell_length_b                    10.649543
_cell_length_c                    9.984282
_cell_angle_alpha                 89.84876
_cell_angle_beta                  89.353778
_cell_angle_gamma                 92.335502
_cell_volume                      1224.1802527

loop_
_atom_site_label
_atom_site_type_symbol
_atom_type_description
_atom_site_fract_x
_atom_site_fract_y
_atom_site_fract_z
_atom_type_partial_charge
C1    C     C_R   0.506497 0.261083 0.500302 0.974849
C2    C     C_R   0.511942 0.871715 0.499111 -0.037982
C3    C     C_R   0.371217 0.316227 0.147599 -0.105155
C4    C     C_R   0.282411 0.503093 0.500353 0.900579
C5    C     C_R   0.332055 0.206183 0.087940 -0.280476
C6    C     C_R   0.336425 0.196980 0.950897 -0.259606
C7    C     C_R   0.367007 0.303681 0.872768 0.590739
C8    C     C_R   0.435720 0.405714 0.930761 0.028746
C9    C     C_R   0.436296 0.408388 0.075033 0.003396
C10   C     C_R   0.563230 0.587122 0.070537 0.572334
C11   C     C_R   0.560877 0.588153 0.927179 -0.222445
C12   C     C_R   0.792989 0.067582 0.681933 -0.187438
C13   C     C_R   0.502280 0.739194 0.499738 0.829821
C14   C     C_R   0.717833 0.503284 0.499266 0.952668
C15   C     C_1   0.162037 0.508806 0.500393 -0.210323
C16   C     C_1   0.059813 0.511059 0.499464 -0.020952
C17   C     C_1   0.940976 0.510230 0.498277 -0.006154
C18   C     C_1   0.838580 0.507435 0.498005 -0.146131
C19   C     C_R   0.704034 0.133164 0.623736 0.594156
C20   C     C_3   0.199811 0.298328 0.748838 -0.315152
C21   C     C_3   0.744599 0.668327 0.115421 -0.298535
C22   C     C_R   0.790208 0.937266 0.679624 -0.250495
C23   C     C_R   0.698292 0.871592 0.619132 -0.184992
C24   C     C_R   0.605784 0.935993 0.561720 0.039839
C25   C     C_R   0.608084 0.068126 0.563301 -0.044558
C26   C     C_R   0.515322 0.128689 0.500720 -0.083640
C27   C     C_R   0.426256 0.061944 0.435760 -0.206649
C28   C     C_R   0.424716 0.933646 0.434596 -0.186420
F1    F     F_    0.715787 0.259578 0.624773 -0.695573
H1    H     H_    0.356026 0.109581 0.388499 0.132319
H2    H     H_    0.164010 0.380215 0.801861 0.172660
H3    H     H_    0.164115 0.209078 0.793235 0.143227
H4    H     H_    0.167996 0.297761 0.644729 0.182641
H5    H     H_    0.769704 0.700616 0.012825 0.146049
H6    H     H_    0.771825 0.570378 0.132348 0.163303
H7    H     H_    0.793005 0.729535 0.187140 0.191915
H8    H     H_    0.300358 0.112278 0.904981 0.162497
H9    H     H_    0.608847 0.661266 0.872104 0.160797
H10   H     H_    0.865563 0.118430 0.727503 0.157764
H11   H     H_    0.860257 0.886889 0.723361 0.161709
H12   H     H_    0.701756 0.770382 0.616265 0.147778
H13   H     H_    0.353772 0.882209 0.386087 0.144392
H14   H     H_    0.349185 0.325901 0.250575 0.207146
H15   H     H_    0.291654 0.130879 0.147321 0.167252
N1    N     N_R   0.498930 0.498800 0.142780 -0.147570
N2    N     N_R   0.498900 0.498720 0.857170 -0.120454
O1    O     O_R   0.500000 0.316780 0.614690 -0.518953
O2    O     O_3   0.624648 0.680195 0.139113 -0.575792
O3    O     O_R   0.499990 0.316750 0.385360 -0.656615
O4    O     O_R   0.334450 0.500030 0.614670 -0.552876
O5    O     O_R   0.334440 0.500000 0.385330 -0.648562
O6    O     O_R   0.500010 0.683250 0.614640 -0.638509
O7    O     O_R   0.500000 0.683220 0.385310 -0.563579
O8    O     O_R   0.665560 0.500000 0.614670 -0.574002
O9    O     O_R   0.665550 0.499970 0.385330 -0.607551
O10   O     O_3   0.323027 0.307230 0.745329 -0.575202
Zn1   Zn    Zn3+2 0.500010 0.500020 0.653130 1.013342
Zn2   Zn    Zn3+2 0.499990 0.499980 0.346870 0.980419

loop_
_geom_bond_atom_site_label_1
_geom_bond_atom_site_label_2
_ccdc_geom_bond_type
C11   H9    S    
C23   C24   A    
C9    N1    A    
C6    C7    A    
C21   H6    S    
O7    Zn2   S    
O1    Zn1   S    
C13   O6    A    
C14   C18   S    
C23   H12   S    
C20   O10   S    
C21   O2    S    
C22   H11   S    
C12   H10   S    
C17   C18   T    
C6    H8    S    
C7    C8    A    
N2    Zn1   S    
O5    Zn2   S    
C27   H1    S    
C10   O2    S    
C3    H14   S    
C26   C27   A    
C5    C6    A    
C7    O10   S    
C10   N1    A    
C3    C9    A    
C20   H4    S    
C12   C19   A    
C28   H13   S    
C14   O8    A    
C5    H15   S    
C20   H3    S    
C14   O9    A    
C13   O7    A    
C4    C15   S    
C2    C24   A    
C1    C26   S    
C19   C25   A    
C8    N2    A    
N1    Zn2   S    
C16   C17   S    
O6    Zn1   S    
C4    O5    A    
C15   C16   T    
C19   F1    S    
C12   C22   A    
C24   C25   A    
C10   C11   A    
O9    Zn2   S    
C27   C28   A    
C21   H7    S    
C2    C13   S    
C22   C23   A    
C1    O1    A    
C11   N2    A    
C2    C28   A    
C21   H5    S    
C25   C26   A    
O4    Zn1   S    
C1    O3    A    
C20   H2    S    
O3    Zn2   S    
C4    O4    A    
C8    C9    A    
C3    C5    A    
O8    Zn1   S    
