data_mof_unit_5900.cif
_audit_creation_date              2012-12-10T17:42:16-0500
_audit_creation_method            fapswitch 2.2
_symmetry_space_group_name_H-M    P1
_symmetry_Int_Tables_number       1
_space_group_crystal_system       triclinic
_cell_length_a                    15.049636
_cell_length_b                    13.896736
_cell_length_c                    10.821596
_cell_angle_alpha                 90.267256
_cell_angle_beta                  87.238319
_cell_angle_gamma                 90.199538
_cell_volume                      2260.57226707

loop_
_atom_site_label
_atom_site_type_symbol
_atom_type_description
_atom_site_fract_x
_atom_site_fract_y
_atom_site_fract_z
_atom_type_partial_charge
C1    C     C_R   0.328962 0.499579 0.495041 0.817408
C2    C     C_3   0.602075 0.502890 0.924412 0.005703
C3    C     C_R   0.813222 0.444104 0.406151 -0.170238
C4    C     C_R   0.767201 0.501920 0.492845 -0.039234
C5    C     C_R   0.812750 0.564875 0.567944 -0.228713
C6    C     C_R   0.905345 0.566986 0.560627 0.118914
C7    C     C_R   0.952884 0.505066 0.476668 0.073869
C8    C     C_R   0.906593 0.444050 0.396904 0.010420
C9    C     C_R   0.950914 0.630235 0.636139 -0.178107
C10   C     C_R   0.043267 0.631763 0.630588 -0.184128
C11   C     C_R   0.091133 0.568717 0.551252 0.127881
C12   C     C_R   0.497397 0.499805 0.260108 0.799476
C13   C     C_R   0.046358 0.504896 0.473114 0.075284
C14   C     C_R   0.094837 0.440572 0.393554 -0.075480
C15   C     C_R   0.048381 0.388081 0.302448 -0.081416
C16   C     C_R   0.954050 0.388675 0.305979 -0.038619
C17   C     C_R   0.183294 0.568538 0.550480 -0.250538
C18   C     C_R   0.232124 0.499227 0.483332 -0.053896
C19   C     C_R   0.187970 0.431221 0.408988 -0.083413
C20   C     C_R   0.442075 0.795067 0.578193 0.142003
C21   C     C_R   0.435364 0.205746 0.567382 0.128366
C22   C     C_R   0.559454 0.793692 0.422414 0.146192
C23   C     C_R   0.560402 0.206039 0.424404 0.188966
C24   C     C_R   0.554184 0.896343 0.408404 -0.144441
C25   C     C_R   0.554747 0.103381 0.409419 -0.056188
C26   C     C_R   0.670816 0.500374 0.499280 0.815458
C27   C     C_R   0.494898 0.948372 0.488018 0.079974
C28   C     C_R   0.494695 0.051636 0.487752 0.060085
C29   C     C_R   0.436789 0.897486 0.570538 0.013958
C30   C     C_R   0.434119 0.103102 0.566491 -0.007768
C31   C     C_R   0.605369 0.948761 0.316404 -0.070016
C32   C     C_R   0.604930 0.050908 0.316468 0.015717
C33   C     C_R   0.373081 0.050479 0.642294 -0.154893
C34   C     C_R   0.373453 0.950479 0.642716 -0.129664
C35   C     C_R   0.501603 0.500141 0.739540 0.768817
C36   C     C_3   0.445154 0.587997 0.072268 -0.188799
C37   C     C_3   0.453569 0.405981 0.070254 -0.151370
C38   C     C_3   0.448670 0.587016 0.929729 -0.390110
C39   C     C_3   0.453657 0.409087 0.928021 -0.501427
C40   C     C_3   0.596337 0.504870 0.069428 -0.447594
C41   C     C_3   0.498537 0.499677 0.121372 -0.061213
C42   C     C_3   0.503258 0.500224 0.877308 0.045511
Cu1   Cu    Cu3+1 0.499990 0.597420 0.500010 1.011287
Cu2   Cu    Cu3+1 0.499990 0.402580 0.500010 0.986848
H1    H     H_    0.915069 0.678380 0.699750 0.162365
N1    N     N_R   0.499930 0.743810 0.499950 -0.224432
N2    N     N_R   0.499930 0.256190 0.499950 -0.246000
O1    O     O_R   0.370250 0.582280 0.500040 -0.621787
O2    O     O_R   0.370250 0.417720 0.500040 -0.538043
O3    O     O_R   0.499970 0.582270 0.317700 -0.522580
O4    O     O_R   0.499970 0.417730 0.317700 -0.580556
O5    O     O_R   0.629730 0.582260 0.499980 -0.559416
O6    O     O_R   0.629730 0.417740 0.499980 -0.590630
O7    O     O_R   0.500000 0.582270 0.682320 -0.554092
O8    O     O_R   0.500000 0.417730 0.682320 -0.642413
C43   C     C_2   0.476569 0.685778 0.114728 0.507396
H2    H     H_    0.542806 0.710700 0.087224 0.087536
O9    O     O_2   0.427100 0.738134 0.177185 -0.522404
C44   C     C_2   0.495737 0.312627 0.108476 0.468722
H3    H     H_    0.565102 0.298319 0.083895 0.088393
O10   O     O_2   0.451649 0.251835 0.165043 -0.464387
H4    H     H_    0.077375 0.681078 0.690228 0.156895
H5    H     H_    0.217056 0.619094 0.608863 0.131828
C45   C     C_2   0.235755 0.344729 0.360540 0.424009
H6    H     H_    0.206866 0.273941 0.376525 0.132085
O11   O     O_2   0.304710 0.351874 0.297565 -0.534641
C46   C     C_2   0.097681 0.339919 0.196973 0.436506
H7    H     H_    0.152967 0.376734 0.149307 0.078253
O12   O     O_2   0.079017 0.258100 0.165456 -0.486344
C47   C     C_2   0.904733 0.335028 0.211372 0.471933
H8    H     H_    0.852757 0.284419 0.239706 0.096153
O13   O     O_2   0.920327 0.349194 0.101169 -0.472139
C48   C     C_2   0.393125 0.745554 0.682040 0.355571
H9    H     H_    0.358332 0.678980 0.669893 0.097961
O14   O     O_2   0.392833 0.779169 0.786511 -0.569509
C49   C     C_2   0.366245 0.258113 0.641854 0.412419
H10   H     H_    0.383722 0.305275 0.716102 0.076300
O15   O     O_2   0.287800 0.247871 0.620676 -0.560210
C50   C     C_2   0.641453 0.745166 0.375991 0.423497
H11   H     H_    0.704058 0.763609 0.416032 0.073064
O16   O     O_2   0.641384 0.688865 0.289416 -0.584348
C51   C     C_2   0.637977 0.257354 0.369601 0.367266
H12   H     H_    0.630318 0.314980 0.304244 0.071348
O17   O     O_2   0.712540 0.234644 0.398160 -0.591186
C52   C     C_2   0.651286 0.898373 0.209921 0.412324
H13   H     H_    0.616508 0.843335 0.160197 0.108153
O18   O     O_2   0.728357 0.917326 0.178434 -0.524114
C53   C     C_2   0.646042 0.100265 0.206600 0.421672
H14   H     H_    0.716012 0.119595 0.203692 0.129019
O19   O     O_2   0.602323 0.115199 0.116680 -0.521402
H15   H     H_    0.324599 0.085657 0.703924 0.186676
H16   H     H_    0.322372 0.915623 0.700264 0.187514
H17   H     H_    0.374333 0.579613 0.105794 0.165535
H18   H     H_    0.382932 0.405361 0.105149 0.207370
H19   H     H_    0.379545 0.583691 0.897376 0.162960
H20   H     H_    0.383537 0.409790 0.899339 0.175120
H21   H     H_    0.477473 0.654916 0.892402 0.257344
H22   H     H_    0.483282 0.342459 0.886455 0.172933
H23   H     H_    0.628031 0.570820 0.105728 0.194940
H24   H     H_    0.634930 0.445306 0.109042 0.171175
C54   C     C_2   0.657774 0.589373 0.880150 0.309183
H25   H     H_    0.725074 0.596839 0.911080 0.130415
O20   O     O_2   0.630407 0.650808 0.811614 -0.548499
C55   C     C_2   0.654236 0.414544 0.879391 0.283641
H26   H     H_    0.628476 0.366182 0.810878 0.116426
O21   O     O_2   0.728031 0.398063 0.916657 -0.504676
H27   H     H_    0.774876 0.401881 0.343836 0.138638
H28   H     H_    0.775979 0.611452 0.632665 0.168402

loop_
_geom_bond_atom_site_label_1
_geom_bond_atom_site_label_2
_ccdc_geom_bond_type
Cu2   O2    S    
C9    H1    S    
C54   H25   S    
C31   C52   S    
C23   C51   S    
C27   C29   A    
C48   H9    S    
C24   C27   A    
C6    C9    A    
C55   O21   D    
C7    C8    A    
C52   H13   S    
C25   C28   A    
C21   C49   S    
C1    C18   S    
C49   O15   D    
C22   C50   S    
C38   C42   S    
C33   H15   S    
C5    C6    A    
Cu1   O5    S    
C15   C16   A    
C32   C53   S    
C43   H2    S    
C18   C19   A    
C35   C42   S    
Cu2   O6    S    
C38   H19   S    
C20   C48   S    
C47   H8    S    
C9    C10   A    
Cu2   N2    S    
C25   C32   A    
C44   H3    S    
C8    C16   A    
C13   C14   A    
C35   O7    A    
C48   O14   D    
C36   C41   S    
C10   H4    S    
C40   H23   S    
C38   H21   S    
C36   H17   S    
C55   H26   S    
C17   C18   A    
C39   C42   S    
C20   C29   A    
C52   O18   D    
C44   O10   D    
C23   N2    A    
C35   O8    A    
C46   H7    S    
C16   C47   S    
C49   H10   S    
C3    C8    A    
C50   O16   D    
C39   H22   S    
C2    C54   S    
C3    H27   S    
C29   C34   A    
C46   O12   D    
C45   O11   D    
Cu1   Cu2   S    
C12   C41   S    
C36   C43   S    
C26   O5    A    
Cu1   O7    S    
C12   O3    A    
C31   C32   A    
C2    C55   S    
C19   C45   S    
C15   C46   S    
C33   C34   A    
C1    O1    A    
C37   C44   S    
Cu2   O4    S    
C40   C41   S    
C22   N1    A    
C53   O19   D    
C51   O17   D    
C22   C24   A    
C3    C4    A    
C26   O6    A    
C12   O4    A    
Cu1   O1    S    
C11   C17   A    
C30   C33   A    
C14   C19   A    
C4    C5    A    
C40   H24   S    
C4    C26   S    
Cu1   O3    S    
C6    C7    A    
C21   C30   A    
C45   H6    S    
C36   C38   S    
C24   C31   A    
C37   C39   S    
C17   H5    S    
C11   C13   A    
Cu2   O8    S    
C2    C42   S    
C28   C30   A    
C43   O9    D    
C37   H18   S    
C23   C25   A    
C37   C41   S    
Cu1   N1    S    
C34   H16   S    
C39   H20   S    
C10   C11   A    
C50   H11   S    
C2    C40   S    
C7    C13   A    
C53   H14   S    
C54   O20   D    
C51   H12   S    
C27   C28   A    
C14   C15   A    
C47   O13   D    
C1    O2    A    
C20   N1    A    
C21   N2    A    
C5    H28   S    
