data_mof_unit_24887.cif
_audit_creation_date              2013-03-05T16:42:13-0500
_audit_creation_method            fapswitch 2.2
_symmetry_space_group_name_H-M    P1
_symmetry_Int_Tables_number       1
_space_group_crystal_system       triclinic
_cell_length_a                    14.935873
_cell_length_b                    10.75013
_cell_length_c                    9.922726
_cell_angle_alpha                 89.593888
_cell_angle_beta                  90.483899
_cell_angle_gamma                 89.942203
_cell_volume                      1593.12070138

loop_
_atom_site_label
_atom_site_type_symbol
_atom_site_description
_atom_site_fract_x
_atom_site_fract_y
_atom_site_fract_z
_atom_type_partial_charge
O1    O     O_R   0.500010 0.316790 0.614690 -0.598132
O2    O     O_R   0.500000 0.316760 0.385350 -0.592822
C1    C     C_R   0.500748 0.260487 0.500369 0.907236
O3    O     O_R   0.367850 0.499990 0.614680 -0.600862
O4    O     O_R   0.367840 0.499950 0.385340 -0.580584
C2    C     C_R   0.327346 0.499463 0.499555 0.949839
Zn1   Zn    Zn3+2 0.500010 0.500020 0.653130 1.015290
Zn2   Zn    Zn3+2 0.499990 0.499980 0.346870 1.066809
O5    O     O_R   0.500000 0.683240 0.614650 -0.632575
O6    O     O_R   0.499990 0.683210 0.385310 -0.571504
O7    O     O_R   0.632160 0.500050 0.614660 -0.635421
O8    O     O_R   0.632150 0.500010 0.385320 -0.629694
C3    C     C_R   0.497726 0.739929 0.498846 0.931130
C4    C     C_R   0.672538 0.498250 0.500387 0.851929
C5    C     C_R   0.813699 0.598410 0.532014 -0.202290
C6    C     C_R   0.767730 0.491426 0.499602 -0.090717
C7    C     C_R   0.811053 0.383939 0.454704 -0.070449
C8    C     C_R   0.905119 0.385773 0.438910 -0.025126
C9    C     C_R   0.952471 0.494633 0.478265 0.048517
C10   C     C_R   0.905521 0.601146 0.521511 0.085347
C11   C     C_R   0.953245 0.284959 0.383439 0.263096
C12   C     C_R   0.046991 0.286697 0.383335 -0.158637
C13   C     C_R   0.094383 0.388729 0.439929 0.048025
C14   C     C_R   0.046435 0.497521 0.476655 0.001777
C15   C     C_R   0.092026 0.609190 0.513897 -0.078192
C16   C     C_R   0.042010 0.718963 0.539163 0.334772
C17   C     C_R   0.949814 0.711737 0.548843 -0.230083
C18   C     C_R   0.187920 0.387661 0.459268 -0.048293
C19   C     C_R   0.231534 0.497227 0.497049 -0.161873
C20   C     C_R   0.185630 0.606837 0.525611 0.289757
H1    H     H_    0.777159 0.680681 0.563138 0.143508
H2    H     H_    0.912067 0.794961 0.572525 0.198475
C21   C     C_R   0.482642 0.062523 0.618253 0.118293
C22   C     C_R   0.494054 0.129084 0.499212 -0.174767
C23   C     C_R   0.488339 0.067837 0.375509 -0.200250
H3    H     H_    0.489847 0.118404 0.280744 0.239350
C24   C     C_R   0.483179 0.939664 0.371971 0.328437
C25   C     C_R   0.486429 0.872018 0.495045 -0.198909
C26   C     C_R   0.478082 0.935949 0.615707 0.080755
C27   C     C_3   0.523374 0.921093 0.749465 -0.331610
C28   C     C_3   0.530158 0.062865 0.752275 -0.227433
H4    H     H_    0.587922 0.869447 0.745433 0.172103
H5    H     H_    0.491130 0.107807 0.833148 0.233808
C29   C     C_R   0.426344 0.538113 0.069155 0.125641
N1    N     N_R   0.499390 0.499140 0.142800 -0.094764
C30   C     C_R   0.575072 0.469432 0.072904 -0.046033
H6    H     H_    0.635242 0.442884 0.127229 0.158728
C31   C     C_R   0.575081 0.469551 0.929435 -0.069162
H7    H     H_    0.635242 0.443111 0.876943 0.156825
N2    N     N_R   0.499390 0.499180 0.857150 -0.091712
C32   C     C_R   0.426700 0.537701 0.927428 0.030026
C33   C     C_3   0.332389 0.491760 0.915635 -0.013846
C34   C     C_3   0.330358 0.491437 0.070403 0.334859
H8    H     H_    0.287054 0.560951 0.866809 0.182767
N3    N     N_R   0.476787 0.881350 0.243234 0.222682
O9    O     O_R   0.404706 0.819913 0.212321 -0.286207
O10   O     O_R   0.533383 0.910143 0.149093 -0.410325
C35   C     C_1   0.459634 0.870954 0.847507 0.403071
N4    N     N_1   0.408249 0.831780 0.923106 -0.033599
C36   C     C_1   0.623127 0.107829 0.744893 0.243080
N5    N     N_1   0.696137 0.143319 0.739584 -0.158011
N6    N     N_R   0.324668 0.367939 0.855451 0.270697
O11   O     O_R   0.252385 0.339070 0.788776 -0.342570
O12   O     O_R   0.385514 0.283153 0.876252 -0.355064
N7    N     N_R   0.267105 0.583998 0.122792 0.213483
O13   O     O_R   0.200992 0.549871 0.198956 -0.340112
O14   O     O_R   0.268733 0.698179 0.078525 -0.294998
C37   C     C_1   0.757479 0.272849 0.433668 0.273286
N8    N     N_1   0.714359 0.184768 0.417045 -0.153302
N9    N     N_R   0.316735 0.366708 0.129074 0.235377
O15   O     O_R   0.383685 0.300868 0.174285 -0.368453
O16   O     O_R   0.238894 0.313574 0.116916 -0.320534
N10   N     N_R   0.908049 0.184152 0.317398 0.198029
O17   O     O_R   0.870076 0.202687 0.200456 -0.353131
O18   O     O_R   0.915665 0.071314 0.364534 -0.345294
C38   C     C_1   0.091656 0.188428 0.310002 0.409429
N11   N     N_1   0.126363 0.109862 0.250639 -0.003867
C39   C     C_1   0.239964 0.273315 0.455617 0.282534
N12   N     N_1   0.281571 0.182477 0.453633 -0.100318
N13   N     N_R   0.234870 0.711501 0.576209 0.208194
O19   O     O_R   0.291651 0.769186 0.499323 -0.341447
O20   O     O_R   0.228308 0.742686 0.702189 -0.345633
N14   N     N_R   0.081945 0.840113 0.544926 0.251002
O21   O     O_R   0.059409 0.916696 0.639841 -0.307536
O22   O     O_R   0.123695 0.883230 0.439999 -0.291818

loop_
_geom_bond_atom_site_label_1
_geom_bond_atom_site_label_2
_geom_bond_distance
_ccdc_geom_bond_type
N3    O9    1.299257 A    
C16   N14   1.434325 S    
C8    C11   1.416947 A    
N10   O18   1.301499 A    
N10   O17   1.301251 A    
C23   H3    1.083221 S    
C12   C38   1.451958 S    
N1    C30   1.369832 A    
C29   N1    1.371534 A    
Zn1   O7    2.013512 S    
C16   C17   1.383405 A    
C21   C26   1.362864 A    
C18   C19   1.398538 A    
C23   C24   1.380796 A    
C24   C25   1.417365 A    
C22   C23   1.399026 A    
O4    C2    1.289090 A    
O7    C4    1.289044 A    
C5    C6    1.378642 A    
C11   N10   1.436505 S    
C8    C9    1.423267 A    
O5    C3    1.297039 A    
Zn2   N1    2.024959 S    
N6    O12   1.300675 A    
C29   C34   1.519516 S    
C9    C10   1.413295 A    
C37   N8    1.157681 T    
N7    O14   1.301073 A    
C13   C14   1.422054 A    
N9    O15   1.299466 A    
C19   C20   1.394708 A    
C18   C39   1.454559 S    
C20   N13   1.436086 S    
C27   H4    1.113184 S    
C11   C12   1.400328 A    
C28   H5    1.109059 S    
O3    Zn1   2.007295 S    
C34   N9    1.472990 S    
C33   H8    1.111225 S    
C21   C22   1.388515 A    
C5    C10   1.376599 A    
C30   C31   1.423593 A    
C27   C35   1.467144 S    
C32   C33   1.497085 S    
C14   C15   1.430043 A    
C28   C36   1.472993 S    
N13   O20   1.301001 A    
C26   C27   1.492085 S    
C39   N12   1.157333 T    
C6    C7    1.401071 A    
C1    C22   1.416352 S    
N2    C32   1.361057 A    
C35   N4    1.155421 T    
C36   N5    1.157149 T    
O1    C1    1.289657 A    
N6    O11   1.300434 A    
N14   O21   1.301495 A    
Zn2   O8    2.007293 S    
C7    C8    1.415136 A    
C13   C18   1.408585 A    
C38   N11   1.157740 T    
C3    C25   1.429992 S    
C29   C32   1.406409 A    
O3    C2    1.288182 A    
C27   C28   1.527966 S    
N14   O22   1.300917 A    
O8    C4    1.286831 A    
N3    O10   1.301053 A    
C4    C6    1.423695 S    
C34   N7    1.471932 S    
C33   C34   1.536250 S    
C15   C20   1.402091 A    
Zn1   O5    2.003647 S    
C30   H6    1.081101 S    
C31   H7    1.081193 S    
C7    C37   1.453507 S    
C17   H2    1.085221 S    
O1    Zn1   2.008990 S    
O2    Zn2   2.003647 S    
Zn1   N2    2.024491 S    
N13   O19   1.300428 A    
O6    C3    1.285481 A    
O4    Zn2   2.013512 S    
C5    H1    1.086824 S    
C10   C17   1.388424 A    
C21   C28   1.502121 S    
O2    C1    1.287878 A    
C15   C16   1.420941 A    
C33   N6    1.467022 S    
C25   C26   1.391185 A    
C31   N2    1.369785 A    
C9    C14   1.404029 A    
C24   N3    1.429442 S    
C2    C19   1.431274 S    
Zn2   O6    2.008991 S    
N7    O13   1.300093 A    
C12   C13   1.422346 A    
N9    O16   1.300948 A    
