data_mof_unit_54902.cif
_audit_creation_date              2012-12-10T20:27:17-0500
_audit_creation_method            fapswitch 2.2
_symmetry_space_group_name_H-M    P1
_symmetry_Int_Tables_number       1
_space_group_crystal_system       triclinic
_cell_length_a                    10.689057
_cell_length_b                    10.652414
_cell_length_c                    9.86269
_cell_angle_alpha                 89.674369
_cell_angle_beta                  104.299972
_cell_angle_gamma                 90.700714
_cell_volume                      1088.1269719

loop_
_atom_site_label
_atom_site_type_symbol
_atom_type_description
_atom_site_fract_x
_atom_site_fract_y
_atom_site_fract_z
_atom_type_partial_charge
C1    C     C_R   0.505531 0.259866 0.501739 0.886798
C2    C     C_R   0.530751 0.128926 0.508888 -0.106645
C3    C     C_R   0.553707 0.066117 0.392777 -0.220938
C4    C     C_R   0.554078 0.936242 0.392554 -0.231727
C5    C     C_R   0.531732 0.871343 0.508550 -0.097996
C6    C     C_R   0.536883 0.935247 0.632658 0.118636
C7    C     C_3   0.449979 0.925527 0.730137 -0.499855
C8    C     C_3   0.447554 0.067567 0.728545 -0.409585
C9    C     C_R   0.430591 0.411721 0.053456 0.150914
C10   C     C_R   0.577615 0.579920 0.092245 -0.128968
C11   C     C_R   0.577630 0.579935 0.948220 -0.152332
C12   C     C_R   0.258429 0.504639 0.441230 0.946808
C13   C     C_R   0.430416 0.411488 0.910999 0.184434
C14   C     C_3   0.287494 0.389582 0.868206 0.301717
C15   C     C_3   0.288518 0.390660 0.022849 -0.571602
C16   C     C_R   0.506046 0.740116 0.501343 0.862833
C17   C     C_R   0.741610 0.508926 0.558552 0.797632
C18   C     C_2   0.121048 0.523757 0.406590 -0.411318
C19   C     C_2   0.069249 0.569228 0.505391 -0.146420
C20   C     C_2   0.878870 0.539249 0.592094 0.293929
C21   C     C_2   0.931740 0.564532 0.485130 -0.269439
C22   C     C_R   0.535898 0.063419 0.632623 0.104163
H1    H     H_    0.873817 0.568589 0.377700 0.160054
H2    H     H_    0.494453 0.110424 0.831338 0.216943
H3    H     H_    0.638254 0.646195 0.162426 0.136324
H4    H     H_    0.638269 0.646184 0.909639 0.138733
H5    H     H_    0.236777 0.472123 0.052214 0.183459
H6    H     H_    0.263984 0.298603 0.063900 0.215477
H7    H     H_    0.128691 0.595993 0.607332 0.197655
H8    H     H_    0.560706 0.115869 0.298773 0.173379
H9    H     H_    0.561112 0.887851 0.298438 0.167235
H10   H     H_    0.500118 0.885724 0.833466 0.202495
N1    N     N_R   0.499160 0.499140 0.142600 -0.096351
N2    N     N_R   0.499160 0.499180 0.856960 -0.133110
O1    O     O_R   0.500020 0.316790 0.614700 -0.595011
O2    O     O_R   0.500000 0.316760 0.385350 -0.614386
O3    O     O_R   0.317820 0.500020 0.571850 -0.619831
O4    O     O_R   0.317800 0.499980 0.342510 -0.605124
O5    O     O_R   0.500000 0.683240 0.614650 -0.625431
O6    O     O_R   0.499980 0.683210 0.385300 -0.621766
O7    O     O_R   0.682200 0.500020 0.657490 -0.599722
O8    O     O_R   0.682180 0.499980 0.428150 -0.637793
Zn1   Zn    Zn3+2 0.500010 0.500020 0.653140 0.942802
Zn2   Zn    Zn3+2 0.499990 0.499980 0.346860 0.934576
H11   H     H_    0.235745 0.469624 0.806794 0.102174
O9    O     O_3   0.259756 0.268690 0.809113 -0.646700
C23   C     C_3   0.130097 0.258274 0.730300 0.108994
H12   H     H_    0.124863 0.178062 0.657562 0.145648
H13   H     H_    0.098306 0.341692 0.662927 0.170682
C24   C     C_3   0.038425 0.230650 0.824740 -0.342330
H14   H     H_    0.078079 0.153475 0.898558 0.220425
H15   H     H_    0.029954 0.315527 0.886610 0.240804
C25   C     C_3   0.904084 0.192134 0.739194 -0.909499
H16   H     H_    0.863078 0.266421 0.662238 0.269172
H17   H     H_    0.838942 0.177432 0.809995 0.260651
H18   H     H_    0.908804 0.103094 0.682638 0.253707
O10   O     O_3   0.953831 0.530736 0.728522 -0.668591
C26   C     C_3   0.931628 0.634969 0.807790 0.101389
H19   H     H_    0.933787 0.600613 0.914911 0.158939
H20   H     H_    0.835715 0.679840 0.767242 0.125606
C27   C     C_3   0.038919 0.733541 0.817514 -0.379492
H21   H     H_    0.134329 0.689307 0.860009 0.220001
H22   H     H_    0.035898 0.770975 0.711404 0.218479
C28   C     C_3   0.023733 0.842506 0.911722 -0.959399
H23   H     H_    0.930291 0.890181 0.869197 0.264737
H24   H     H_    0.103330 0.911648 0.916869 0.270791
H25   H     H_    0.027833 0.808143 0.019260 0.263111
H26   H     H_    0.062444 0.497697 0.303776 0.153777
H27   H     H_    0.354679 0.881632 0.681023 0.205723
H28   H     H_    0.351396 0.105154 0.675629 0.229551

loop_
_geom_bond_atom_site_label_1
_geom_bond_atom_site_label_2
_ccdc_geom_bond_type
C2    C22   A    
C3    H8    S    
C8    C22   S    
O3    Zn1   S    
C6    C7    S    
C14   H11   S    
O1    Zn1   S    
C15   H5    S    
C23   H12   S    
C14   C15   S    
C23   C24   S    
C25   H16   S    
C28   H23   S    
C26   C27   S    
C25   H17   S    
C24   H14   S    
C9    C15   S    
C7    C8    S    
C23   H13   S    
C13   C14   S    
C27   C28   S    
C9    N1    A    
C4    H9    S    
O7    Zn1   S    
C15   H6    S    
C5    C6    A    
O8    Zn2   S    
C16   O6    A    
C10   H3    S    
C8    H28   S    
C8    H2    S    
O4    Zn2   S    
C2    C3    A    
C10   N1    A    
O10   C26   S    
C21   H1    S    
C12   O4    A    
C27   H21   S    
C17   O7    A    
O2    Zn2   S    
C24   C25   S    
C6    C22   A    
C10   C11   A    
C16   O5    A    
C26   H20   S    
C3    C4    A    
C19   H7    S    
C28   H25   S    
O6    Zn2   S    
C17   C20   S    
C7    H27   S    
C20   C21   D    
C1    O1    A    
C14   O9    S    
C1    C2    S    
C12   O3    A    
C25   H18   S    
C12   C18   S    
C24   H15   S    
C27   H22   S    
C9    C13   A    
C17   O8    A    
C18   C19   D    
C5    C16   S    
C13   N2    A    
C7    H10   S    
C11   H4    S    
C19   C21   S    
C20   O10   S    
O9    C23   S    
C26   H19   S    
C18   H26   S    
O5    Zn1   S    
C11   N2    A    
N2    Zn1   S    
C1    O2    A    
C4    C5    A    
N1    Zn2   S    
C28   H24   S    
