data_mof_unit_51701.cif
_audit_creation_date              2012-12-10T18:57:04-0500
_audit_creation_method            fapswitch 2.2
_symmetry_space_group_name_H-M    P1
_symmetry_Int_Tables_number       1
_space_group_crystal_system       triclinic
_cell_length_a                    10.734385
_cell_length_b                    9.896579
_cell_length_c                    10.915314
_cell_angle_alpha                 89.990094
_cell_angle_beta                  93.827095
_cell_angle_gamma                 89.999101
_cell_volume                      1156.9882253

loop_
_atom_site_label
_atom_site_type_symbol
_atom_type_description
_atom_site_fract_x
_atom_site_fract_y
_atom_site_fract_z
_atom_type_partial_charge
C1    C     C_R   0.260093 0.499922 0.500850 0.887508
C2    C     C_R   0.739907 0.499922 0.499140 0.887587
C3    C     C_R   0.591843 0.073933 0.564624 0.104355
C4    C     C_R   0.408172 0.073965 0.435359 0.104038
C5    C     C_R   0.595972 0.929971 0.560106 -0.038916
C6    C     C_R   0.404030 0.930005 0.439897 -0.039237
C7    C     C_R   0.503266 0.499334 0.260654 0.922967
C8    C     C_R   0.496817 0.499311 0.739357 0.922637
C9    C     C_R   0.497157 0.613645 0.061511 -0.011867
C10   C     C_R   0.503147 0.613630 0.938444 -0.011517
C11   C     C_R   0.506317 0.494937 0.129341 -0.135472
C12   C     C_R   0.494111 0.494884 0.870699 -0.135609
C13   C     C_R   0.511770 0.369855 0.064324 -0.094719
C14   C     C_R   0.489143 0.369795 0.935818 -0.094836
C15   C     C_3   0.506071 0.765836 0.929458 0.167779
C16   C     C_3   0.493326 0.765835 0.070280 0.167430
C17   C     C_R   0.063861 0.376820 0.501345 -0.177249
C18   C     C_R   0.936135 0.376820 0.498524 -0.176984
C19   C     C_R   0.872414 0.499876 0.498187 -0.010929
C20   C     C_R   0.127584 0.499876 0.501776 -0.010959
C21   C     C_R   0.936157 0.622896 0.498497 -0.175411
C22   C     C_R   0.063842 0.622896 0.501534 -0.175401
H1    H     H_    0.112014 0.280825 0.503335 0.160089
H2    H     H_    0.887981 0.280828 0.496462 0.160169
H3    H     H_    0.888084 0.718913 0.496328 0.152127
H4    H     H_    0.111917 0.718912 0.503763 0.152129
N1    N     N_R   0.500000 0.857200 0.500000 -0.123107
N2    N     N_R   0.500000 0.142810 0.500000 -0.056393
O1    O     O_R   0.316770 0.614620 0.499990 -0.603389
O2    O     O_R   0.683230 0.614620 0.500010 -0.603488
O3    O     O_R   0.316800 0.385290 0.500000 -0.605970
O4    O     O_R   0.683200 0.385290 0.500000 -0.605853
O5    O     O_R   0.500000 0.614690 0.316780 -0.583876
O6    O     O_R   0.500000 0.614690 0.683220 -0.583830
O7    O     O_R   0.500020 0.385360 0.316780 -0.585565
O8    O     O_R   0.499980 0.385360 0.683220 -0.585462
Zn1   Zn    Zn3+2 0.500000 0.653120 0.500000 1.013742
Zn2   Zn    Zn3+2 0.500000 0.346880 0.500000 1.036658
C23   C     C_2   0.544077 0.238779 0.125709 0.439564
H5    H     H_    0.484274 0.151257 0.109997 0.029119
O9    O     O_2   0.641229 0.226592 0.189623 -0.556024
C24   C     C_2   0.457257 0.238578 0.874567 0.439963
H6    H     H_    0.517494 0.151385 0.890155 0.028359
O10   O     O_2   0.359972 0.225881 0.810956 -0.555934
N3    N     N_3   0.625384 0.820054 0.894245 -0.377241
H7    H     H_    0.631962 0.921404 0.920979 0.185248
H8    H     H_    0.700244 0.767409 0.938063 0.204662
N4    N     N_3   0.373691 0.819267 0.105401 -0.376974
H9    H     H_    0.366575 0.920588 0.078627 0.185750
H10   H     H_    0.299144 0.766145 0.061580 0.204540
N5    N     N_3   0.399415 0.824588 0.856231 -0.454477
H11   H     H_    0.324841 0.756328 0.849169 0.172312
H12   H     H_    0.424966 0.841693 0.766804 0.236466
N6    N     N_3   0.599616 0.825361 0.143453 -0.454925
H13   H     H_    0.674690 0.757733 0.150372 0.172471
H14   H     H_    0.574034 0.842031 0.232930 0.236441
N7    N     N_3   0.681589 0.149469 0.639602 -0.395688
H15   H     H_    0.681316 0.113992 0.729796 0.156110
H16   H     H_    0.770054 0.133635 0.608102 0.149972
N8    N     N_3   0.318494 0.149532 0.360299 -0.395673
H17   H     H_    0.318884 0.114108 0.270106 0.156229
H18   H     H_    0.229984 0.133686 0.391695 0.149996
C25   C     C_2   0.708578 0.864003 0.617679 0.432847
H19   H     H_    0.799736 0.908300 0.607945 0.001314
O11   O     O_2   0.702200 0.763875 0.681222 -0.530907
C26   C     C_2   0.291416 0.864075 0.382342 0.432626
H20   H     H_    0.200264 0.908398 0.392046 0.001471
O12   O     O_2   0.297785 0.763931 0.318858 -0.530794

loop_
_geom_bond_atom_site_label_1
_geom_bond_atom_site_label_2
_ccdc_geom_bond_type
C26   O12   D    
C25   O11   D    
N6    H14   S    
O4    Zn2   S    
O6    Zn1   S    
C11   C13   A    
C9    C10   A    
N6    H13   S    
C6    N1    A    
O3    Zn2   S    
C8    C12   S    
C14   C24   S    
C4    N8    S    
N4    H10   S    
C17   C18   A    
C3    C5    A    
N8    H17   S    
C23   O9    D    
C8    O6    A    
C21   C22   A    
C7    C11   S    
C7    O5    A    
C16   N4    S    
N7    H15   S    
C17   H1    S    
C6    C26   S    
C24   O10   D    
N1    Zn1   S    
C18   H2    S    
C10   C12   A    
C2    O4    A    
O8    Zn2   S    
N4    H9    S    
C19   C21   A    
C9    C16   S    
C12   C14   A    
C3    N7    S    
C26   H20   S    
C15   N5    S    
C10   C15   S    
C9    C11   A    
C8    O8    A    
N2    Zn2   S    
C16   N6    S    
N7    H16   S    
C4    C6    A    
C13   C23   S    
C24   H6    S    
C1    O1    A    
C15   C16   S    
N3    H7    S    
C1    O3    A    
C17   C20   A    
C2    O2    A    
C5    C25   S    
N8    H18   S    
C18   C19   A    
C22   H4    S    
N3    H8    S    
O1    Zn1   S    
C23   H5    S    
C15   N3    S    
O7    Zn2   S    
C3    N2    A    
C1    C20   S    
C21   H3    S    
C13   C14   A    
C4    N2    A    
C2    C19   S    
C5    N1    A    
C7    O7    A    
O5    Zn1   S    
N5    H11   S    
O2    Zn1   S    
C20   C22   A    
C25   H19   S    
N5    H12   S    
