data_mof_unit_30877.cif
_audit_creation_date              2012-12-10T18:58:39-0500
_audit_creation_method            fapswitch 2.2
_symmetry_space_group_name_H-M    P1
_symmetry_Int_Tables_number       1
_space_group_crystal_system       triclinic
_cell_length_a                    10.708027
_cell_length_b                    9.774616
_cell_length_c                    17.052831
_cell_angle_alpha                 90.658136
_cell_angle_beta                  90.124749
_cell_angle_gamma                 90.070231
_cell_volume                      1784.74276368

loop_
_atom_site_label
_atom_site_type_symbol
_atom_type_description
_atom_site_fract_x
_atom_site_fract_y
_atom_site_fract_z
_atom_type_partial_charge
C1    C     C_R   0.259674 0.499959 0.499834 0.868749
C2    C     C_R   0.740323 0.500058 0.499869 0.856483
C3    C     C_1   0.355687 0.446279 0.966454 -0.041156
C4    C     C_1   0.358355 0.442893 0.036498 -0.037266
C5    C     C_R   0.063734 0.379732 0.479578 -0.192244
C6    C     C_R   0.936258 0.620599 0.519057 -0.191341
C7    C     C_R   0.935793 0.379829 0.479470 -0.202925
C8    C     C_R   0.064155 0.620550 0.519077 -0.207607
C9    C     C_R   0.505074 0.499181 0.351434 0.886565
C10   C     C_R   0.499692 0.501298 0.648776 0.881284
C11   C     C_R   0.872615 0.500174 0.499424 -0.013334
C12   C     C_R   0.127367 0.500029 0.499525 -0.014244
C13   C     C_R   0.372326 0.592460 0.851487 0.149032
C14   C     C_R   0.461942 0.345154 0.150558 0.127758
C15   C     C_R   0.370709 0.575723 0.157617 0.158110
C16   C     C_R   0.433174 0.350450 0.843655 0.160407
C17   C     C_R   0.422012 0.613734 0.775401 0.093554
C18   C     C_R   0.521581 0.368378 0.223966 0.107574
C19   C     C_R   0.445393 0.605077 0.223677 0.121457
C20   C     C_R   0.502770 0.377988 0.775700 0.141265
C21   C     C_R   0.480939 0.501618 0.735255 -0.227479
C22   C     C_R   0.498911 0.494287 0.264530 -0.193502
C23   C     C_R   0.577573 0.073219 0.548997 -0.079499
C24   C     C_R   0.422517 0.926733 0.450921 -0.087633
C25   C     C_R   0.422555 0.071100 0.450899 -0.093248
C26   C     C_R   0.577533 0.928888 0.549025 -0.080921
C27   C     C_R   0.376526 0.460160 0.883964 -0.017920
C28   C     C_R   0.386059 0.449080 0.118650 -0.017854
H1    H     H_    0.112499 0.286428 0.463615 0.149624
H2    H     H_    0.887542 0.713931 0.535030 0.150031
H3    H     H_    0.886668 0.286604 0.463392 0.156900
H4    H     H_    0.113180 0.713916 0.534982 0.154398
N1    N     N_R   0.500000 0.857200 0.500000 -0.070578
N2    N     N_R   0.500000 0.142800 0.500000 -0.072737
O1    O     O_R   0.316770 0.614620 0.500000 -0.627603
O2    O     O_R   0.683230 0.385380 0.500000 -0.625459
O3    O     O_R   0.683230 0.614620 0.500000 -0.623273
O4    O     O_R   0.316770 0.385380 0.500000 -0.617742
O5    O     O_R   0.500010 0.614710 0.389120 -0.624613
O6    O     O_R   0.499990 0.385290 0.610880 -0.613928
O7    O     O_R   0.499990 0.614710 0.610880 -0.604032
O8    O     O_R   0.500010 0.385290 0.389120 -0.609182
Zn1   Zn    Zn3+2 0.500000 0.653120 0.500000 0.926168
Zn2   Zn    Zn3+2 0.500000 0.346880 0.500000 0.932162
C29   C     C_3   0.311990 0.708730 0.898541 -0.385016
C30   C     C_3   0.407867 0.784564 0.949566 -0.913732
H5    H     H_    0.450837 0.713823 0.992225 0.271171
H6    H     H_    0.483301 0.829214 0.913453 0.257029
H7    H     H_    0.361131 0.868731 0.982432 0.245880
H8    H     H_    0.262551 0.781825 0.860470 0.201158
H9    H     H_    0.236637 0.668625 0.936500 0.195709
C31   C     C_3   0.471846 0.207998 0.107387 -0.401865
C32   C     C_3   0.585634 0.202823 0.053397 -0.883181
H10   H     H_    0.578953 0.283300 0.008238 0.264996
H11   H     H_    0.673604 0.218681 0.086691 0.265323
H12   H     H_    0.589676 0.101499 0.023400 0.244927
H13   H     H_    0.472763 0.121572 0.148944 0.190137
H14   H     H_    0.386721 0.188490 0.071655 0.198919
C33   C     C_3   0.270614 0.676673 0.131642 -0.407782
C34   C     C_3   0.164192 0.682545 0.191120 -0.893168
H15   H     H_    0.120385 0.579995 0.196551 0.263600
H16   H     H_    0.198428 0.716524 0.249660 0.255248
H17   H     H_    0.092071 0.755927 0.171112 0.251053
H18   H     H_    0.309235 0.780678 0.123724 0.214582
H19   H     H_    0.228373 0.646833 0.074649 0.216750
C35   C     C_3   0.413040 0.203359 0.870103 -0.413358
C36   C     C_3   0.321494 0.129867 0.815233 -0.894066
H20   H     H_    0.232403 0.187669 0.811919 0.265205
H21   H     H_    0.361025 0.118819 0.755379 0.262177
H22   H     H_    0.300945 0.026619 0.838180 0.253518
H23   H     H_    0.501571 0.145177 0.872645 0.213933
H24   H     H_    0.372901 0.198444 0.929789 0.219015
C37   C     C_3   0.418533 0.756969 0.740380 -0.363752
C38   C     C_3   0.301117 0.779836 0.690899 -0.820876
H25   H     H_    0.285896 0.694630 0.648575 0.275079
H26   H     H_    0.217307 0.787334 0.728772 0.228711
H27   H     H_    0.310504 0.876701 0.658011 0.244458
H28   H     H_    0.423402 0.837912 0.785948 0.199892
H29   H     H_    0.504444 0.778876 0.706804 0.210525
C39   C     C_3   0.616468 0.265464 0.256286 -0.379178
C40   C     C_3   0.743499 0.331879 0.272818 -0.849480
H30   H     H_    0.779096 0.381890 0.219119 0.256374
H31   H     H_    0.737621 0.408918 0.320877 0.251354
H32   H     H_    0.811362 0.252289 0.290834 0.238974
H33   H     H_    0.580996 0.214276 0.309337 0.224127
H34   H     H_    0.635797 0.180090 0.215332 0.205205
C41   C     C_3   0.482845 0.753356 0.241275 -0.387136
C42   C     C_3   0.565797 0.810063 0.176221 -0.910856
H35   H     H_    0.650363 0.745338 0.169204 0.269735
H36   H     H_    0.516272 0.814010 0.119270 0.259223
H37   H     H_    0.596110 0.915482 0.192102 0.244166
H38   H     H_    0.399437 0.819088 0.249525 0.199323
H39   H     H_    0.540294 0.765157 0.294585 0.240035
C43   C     C_3   0.610185 0.283140 0.752384 -0.387102
C44   C     C_3   0.715787 0.290060 0.812917 -0.915930
H40   H     H_    0.754452 0.395524 0.816044 0.264096
H41   H     H_    0.683573 0.261314 0.872184 0.258954
H42   H     H_    0.791741 0.219012 0.795142 0.251246
H43   H     H_    0.577146 0.176221 0.744625 0.205962
H44   H     H_    0.654631 0.312609 0.696561 0.216299
H45   H     H_    0.639644 0.129136 0.587878 0.118311
H46   H     H_    0.360805 0.870696 0.411806 0.123154
H47   H     H_    0.360931 0.125418 0.411737 0.121450
H48   H     H_    0.639418 0.874589 0.588021 0.115297

loop_
_geom_bond_atom_site_label_1
_geom_bond_atom_site_label_2
_ccdc_geom_bond_type
C41   C42   S    
C37   C38   S    
C14   C18   A    
C44   H40   S    
C40   H30   S    
C44   H42   S    
C32   H10   S    
C15   C19   A    
C30   H7    S    
C33   H18   S    
C38   H26   S    
C34   H17   S    
C43   H43   S    
C34   H16   S    
C19   C41   S    
C9    C22   S    
C29   H9    S    
C9    O5    A    
C10   O6    A    
C23   C26   A    
C39   H34   S    
C26   H48   S    
C35   H24   S    
C38   H27   S    
C37   H28   S    
O1    Zn1   S    
C16   C20   A    
C25   N2    A    
C16   C27   A    
C35   C36   S    
C33   C34   S    
C41   H38   S    
C10   O7    A    
C17   C37   S    
O7    Zn1   S    
C1    C12   S    
O8    Zn2   S    
C2    C11   S    
C4    C28   S    
C5    H1    S    
C32   H11   S    
C10   C21   S    
C37   H29   S    
C30   H6    S    
C7    H3    S    
C38   H25   S    
C36   H20   S    
N1    Zn1   S    
C19   C22   A    
N2    Zn2   S    
C24   C25   A    
C5    C12   A    
C6    C11   A    
C5    C7    A    
C25   H47   S    
C6    C8    A    
C29   C30   S    
C17   C21   A    
C34   H15   S    
C36   H21   S    
C8    H4    S    
O3    Zn1   S    
C7    C11   A    
O4    Zn2   S    
C39   H33   S    
C26   N1    A    
C35   H23   S    
C42   H37   S    
C43   H44   S    
C8    C12   A    
C23   N2    A    
C9    O8    A    
C42   H35   S    
C31   H14   S    
C1    O4    A    
C6    H2    S    
C42   H36   S    
O2    Zn2   S    
C16   C35   S    
C3    C4    T    
C40   H32   S    
C31   C32   S    
C1    O1    A    
C32   H12   S    
C2    O2    A    
C20   C43   S    
C30   H5    S    
C18   C22   A    
C15   C33   S    
C39   C40   S    
C40   H31   S    
O5    Zn1   S    
C44   H41   S    
C24   N1    A    
C13   C17   A    
C36   H22   S    
C3    C27   S    
C33   H19   S    
C13   C29   S    
C2    O3    A    
C15   C28   A    
C23   H45   S    
C29   H8    S    
C41   H39   S    
C14   C31   S    
C24   H46   S    
C43   C44   S    
C31   H13   S    
O6    Zn2   S    
C20   C21   A    
C18   C39   S    
C13   C27   A    
C14   C28   A    
