data_mof_unit_20881.cif
_audit_creation_date              2012-10-26T19:04:45-0400
_audit_creation_method            fapswitch 2.2
_symmetry_space_group_name_H-M    P1
_symmetry_Int_Tables_number       1
_space_group_crystal_system       triclinic
_cell_length_a                    9.603674
_cell_length_b                    10.890579
_cell_length_c                    13.575712
_cell_angle_alpha                 94.78748
_cell_angle_beta                  73.674614
_cell_angle_gamma                 91.101905
_cell_volume                      1357.86227722

loop_
_atom_site_label
_atom_site_type_symbol
_atom_type_description
_atom_site_fract_x
_atom_site_fract_y
_atom_site_fract_z
_atom_type_partial_charge
C1    C     C_R   0.503385 0.737443 0.495280 0.548315
C2    C     C_R   0.384158 0.503925 0.811650 -0.000624
C3    C     C_R   0.296422 0.875438 0.412655 0.032836
C4    C     C_R   0.423762 0.496962 0.698852 0.539559
C5    C     C_R   0.157929 0.926079 0.429403 -0.117174
C6    C     C_R   0.120978 0.037551 0.488047 -0.142524
C7    C     C_R   0.226383 0.105132 0.520871 -0.105389
C8    C     C_R   0.368704 0.058010 0.500387 0.005420
C9    C     C_R   0.393542 0.932979 0.464883 0.024055
C10   C     C_R   0.509421 0.871793 0.487819 -0.001577
C11   C     C_R   0.617660 0.943348 0.519373 -0.030158
C12   C     C_R   0.459349 0.525633 0.969200 0.012550
C13   C     C_R   0.610371 0.070772 0.523297 -0.146191
C14   C     C_R   0.487783 0.129514 0.513733 -0.028993
C15   C     C_R   0.904594 0.329722 0.365333 -0.109000
C16   C     C_R   0.495427 0.263113 0.506325 0.532397
C17   C     C_R   0.997432 0.239915 0.304455 -0.161278
C18   C     C_R   0.139295 0.233528 0.308571 -0.028114
C19   C     C_R   0.188639 0.320911 0.372506 -0.090349
C20   C     C_R   0.097359 0.412955 0.436461 0.111146
C21   C     C_R   0.948953 0.415107 0.434704 0.135887
C22   C     C_R   0.901050 0.580108 0.562578 0.007383
C23   C     C_R   0.487905 0.479413 0.865337 0.022273
C24   C     C_R   0.048228 0.581763 0.563111 0.104333
C25   C     C_R   0.577207 0.498982 0.300032 0.531002
C26   C     C_R   0.811223 0.483146 0.023476 -0.146847
C27   C     C_R   0.621085 0.499110 0.185923 0.005458
C28   C     C_R   0.251426 0.561194 0.864982 -0.145217
C29   C     C_R   0.225082 0.605301 0.967279 -0.154109
C30   C     C_R   0.330148 0.592282 0.017855 -0.124247
C31   C     C_3   0.342727 0.774716 0.326870 -0.358078
C32   C     C_3   0.238645 0.135981 0.241197 -0.406865
C33   C     C_3   0.889445 0.389003 0.804909 -0.399410
C34   C     C_R   0.560741 0.503729 0.023385 0.027471
C35   C     C_3   0.084512 0.678537 0.637792 -0.355159
C36   C     C_3   0.373288 0.429547 0.172549 -0.381010
C37   C     C_3   0.626781 0.302358 0.742381 -0.360426
C38   C     C_3   0.740287 0.889555 0.551894 -0.378544
C39   C     C_R   0.706106 0.476830 0.968635 0.035871
C40   C     C_R   0.737276 0.430856 0.864145 0.003241
C41   C     C_R   0.620017 0.412042 0.820135 0.028993
C42   C     C_R   0.516775 0.491375 0.129748 -0.021441
C43   C     C_R   0.768835 0.500968 0.130990 -0.158075
Cu1   Cu    Cu3+1 0.359340 0.500010 0.500010 0.881599
Cu2   Cu    Cu3+1 0.640660 0.499990 0.499990 0.891923
H1    H     H_    0.851945 0.505660 0.171051 0.132312
H2    H     H_    0.925515 0.470536 0.984711 0.117726
H3    H     H_    0.172199 0.581180 0.825437 0.116941
H4    H     H_    0.309825 0.634322 0.095737 0.112654
H5    H     H_    0.125272 0.654413 0.006274 0.113734
H6    H     H_    0.326661 0.806312 0.255109 0.093696
H7    H     H_    0.459400 0.751371 0.309915 0.140220
H8    H     H_    0.275063 0.691667 0.346396 0.171703
H9    H     H_    0.187453 0.044093 0.252020 0.143582
H10   H     H_    0.258890 0.154406 0.159165 0.126770
H11   H     H_    0.344178 0.133350 0.259544 0.130074
H12   H     H_    0.080394 0.881238 0.393919 0.103593
H13   H     H_    0.900390 0.359839 0.722958 0.132277
H14   H     H_    0.965773 0.466565 0.805060 0.127029
H15   H     H_    0.922478 0.310926 0.841089 0.127331
H16   H     H_    0.071702 0.771264 0.613004 0.114168
H17   H     H_    0.008081 0.671451 0.715519 0.076611
H18   H     H_    0.193231 0.672365 0.647132 0.203766
H19   H     H_    0.397856 0.346044 0.205034 0.133575
H20   H     H_    0.295634 0.492753 0.229121 0.150931
H21   H     H_    0.320614 0.393228 0.113169 0.132207
H22   H     H_    0.663764 0.219623 0.770762 0.108721
H23   H     H_    0.013717 0.076299 0.501700 0.114037
H24   H     H_    0.518726 0.279366 0.731552 0.124894
H25   H     H_    0.704084 0.318895 0.667067 0.172549
H26   H     H_    0.807355 0.961744 0.578696 0.098299
H27   H     H_    0.695405 0.833552 0.618182 0.145480
H28   H     H_    0.813392 0.833591 0.486288 0.152946
H29   H     H_    0.192881 0.191843 0.565152 0.149718
H30   H     H_    0.699267 0.124913 0.538199 0.132736
H31   H     H_    0.824392 0.644381 0.614121 0.118416
H32   H     H_    0.799294 0.328441 0.354482 0.189372
H33   H     H_    0.958304 0.175221 0.253297 0.118236
H34   H     H_    0.300918 0.317663 0.365768 0.188358
N1    N     N_R   0.852480 0.498790 0.499000 -0.260669
N2    N     N_R   0.148360 0.498710 0.498970 -0.242867
O1    O     O_R   0.381190 0.680360 0.500010 -0.509875
O2    O     O_R   0.618760 0.680340 0.500000 -0.502554
O3    O     O_R   0.323240 0.499990 0.650990 -0.519199
O4    O     O_R   0.560820 0.499960 0.650980 -0.498273
O5    O     O_R   0.381240 0.319660 0.500000 -0.529361
O6    O     O_R   0.618810 0.319640 0.499990 -0.534708
O7    O     O_R   0.439180 0.500040 0.349020 -0.528552
O8    O     O_R   0.676760 0.500010 0.349010 -0.519516

loop_
_geom_bond_atom_site_label_1
_geom_bond_atom_site_label_2
_ccdc_geom_bond_type
C33   H13   S    
C37   H24   S    
C36   C42   S    
C19   C20   A    
C34   C42   A    
C22   H31   S    
C31   H7    S    
C7    C8    A    
C12   C23   A    
C28   C29   A    
Cu2   O6    S    
Cu1   O1    S    
C5    C6    A    
C36   H21   S    
C26   C39   A    
C18   C19   A    
C20   N2    A    
C13   H30   S    
C8    C9    A    
C16   O6    A    
C13   C14   A    
Cu2   N1    S    
Cu2   O8    S    
C9    C10   A    
C32   H10   S    
C3    C31   S    
C6    H23   S    
C33   H14   S    
C37   H25   S    
C16   O5    A    
Cu2   O2    S    
Cu1   O5    S    
C32   H9    S    
C26   C43   A    
C7    H29   S    
C29   H5    S    
C38   H27   S    
C33   C40   S    
C34   C39   A    
C24   C35   S    
Cu1   N2    S    
C39   C40   A    
C36   H20   S    
C4    O4    A    
C3    C5    A    
C1    O1    A    
C25   O7    A    
C11   C38   S    
Cu2   O4    S    
C24   N2    A    
C29   C30   A    
C3    C9    A    
C4    O3    A    
C17   C18   A    
C35   H16   S    
C31   H8    S    
C19   H34   S    
C26   H2    S    
C40   C41   A    
C30   H4    S    
C33   H15   S    
C14   C16   S    
C25   C27   S    
C12   C34   A    
Cu1   Cu2   S    
C15   C17   A    
C38   H26   S    
C28   H3    S    
C8    C14   A    
C12   C30   A    
C1    C10   S    
C31   H6    S    
Cu1   O3    S    
C35   H18   S    
C6    C7    A    
C1    O2    A    
C25   O8    A    
C23   C41   A    
C5    H12   S    
C22   N1    A    
Cu1   O7    S    
C11   C13   A    
C27   C42   A    
C15   H32   S    
C2    C4    S    
C37   H22   S    
C21   N1    A    
C17   H33   S    
C35   H17   S    
C22   C24   A    
C37   C41   S    
C43   H1    S    
C10   C11   A    
C27   C43   A    
C15   C21   A    
C18   C32   S    
C20   C21   A    
C2    C23   A    
C2    C28   A    
C36   H19   S    
C32   H11   S    
C38   H28   S    
