data_mof_unit_14496.cif
_audit_creation_date              2012-12-11T15:27:39-0500
_audit_creation_method            fapswitch 2.2
_symmetry_space_group_name_H-M    P1
_symmetry_Int_Tables_number       1
_space_group_crystal_system       triclinic
_cell_length_a                    23.098448
_cell_length_b                    7.301088
_cell_length_c                    15.120248
_cell_angle_alpha                 89.999966
_cell_angle_beta                  108.08218
_cell_angle_gamma                 90.0
_cell_volume                      2424.00065262

loop_
_atom_site_label
_atom_site_type_symbol
_atom_type_description
_atom_site_fract_x
_atom_site_fract_y
_atom_site_fract_z
_atom_type_partial_charge
O1    O     O_R   0.711000 0.648610 0.341170 -0.539349
O2    O     O_R   0.289000 0.351390 0.658830 -0.543772
O3    O     O_R   0.789000 0.148610 0.158830 -0.539356
O4    O     O_R   0.211000 0.851390 0.841170 -0.543772
O5    O     O_R   0.829650 0.322030 0.336650 -0.535428
O6    O     O_R   0.170350 0.677970 0.663350 -0.538212
O7    O     O_R   0.670350 0.822030 0.163350 -0.535424
O8    O     O_R   0.329650 0.177970 0.836650 -0.538212
C1    C     C_R   0.854172 0.485820 0.356989 0.700057
C2    C     C_R   0.145816 0.514110 0.643052 0.714483
C3    C     C_R   0.645828 0.985820 0.143011 0.700066
C4    C     C_R   0.354183 0.014110 0.856947 0.714485
O9    O     O_R   0.713950 0.319280 0.352070 -0.535674
O10   O     O_R   0.286050 0.680720 0.647930 -0.537597
O11   O     O_R   0.786050 0.819280 0.147930 -0.535660
O12   O     O_R   0.213950 0.180720 0.852070 -0.537597
O13   O     O_R   0.672470 0.142870 0.174360 -0.527734
O14   O     O_R   0.327530 0.857130 0.825640 -0.526746
O15   O     O_R   0.827530 0.642870 0.325640 -0.527734
O16   O     O_R   0.172470 0.357130 0.674360 -0.526746
C5    C     C_R   0.701993 0.487895 0.376452 0.782607
C6    C     C_R   0.298728 0.512647 0.624385 0.776273
C7    C     C_R   0.798007 0.987895 0.123547 0.782616
C8    C     C_R   0.201272 0.012647 0.875615 0.776272
O17   O     O_3   0.736530 0.478650 0.191680 -0.383245
O18   O     O_3   0.263470 0.521350 0.808320 -0.382736
O19   O     O_3   0.763470 0.978650 0.308320 -0.383245
O20   O     O_3   0.236530 0.021350 0.691680 -0.382736
V1    V     V_3+5 0.752500 0.206170 0.260820 1.468779
V2    V     V_3+5 0.247500 0.793830 0.739180 1.466733
V3    V     V_3+5 0.747500 0.706170 0.239180 1.468798
V4    V     V_3+5 0.252500 0.293830 0.760820 1.466733
C9    C     C_R   0.825738 0.002100 0.048960 -0.197959
C10   C     C_R   0.171284 0.006955 0.947806 -0.186377
C11   C     C_R   0.674262 0.502100 0.451040 -0.197994
C12   C     C_R   0.328716 0.506956 0.552195 -0.186376
C13   C     C_R   0.821107 0.114652 0.895154 0.448309
C14   C     C_R   0.177673 0.032040 0.111724 0.450420
C15   C     C_R   0.678893 0.614655 0.604845 0.448311
C16   C     C_R   0.322327 0.532040 0.388276 0.450422
C17   C     C_R   0.793712 0.087960 0.965603 -0.384964
C18   C     C_R   0.205761 0.031259 0.040773 -0.383683
C19   C     C_R   0.706289 0.587960 0.534396 -0.384964
C20   C     C_R   0.294239 0.531259 0.459228 -0.383684
C21   C     C_R   0.886226 0.948639 0.064657 0.472191
C22   C     C_R   0.107883 0.990240 0.922612 0.456656
C23   C     C_R   0.613773 0.448646 0.435342 0.472186
C24   C     C_R   0.392117 0.490242 0.577388 0.456656
C25   C     C_R   0.918898 0.019891 0.006926 -0.091227
C26   C     C_R   0.077685 0.023932 0.989613 -0.070829
C27   C     C_R   0.581101 0.519900 0.493073 -0.091204
C28   C     C_R   0.422314 0.523934 0.510387 -0.070826
C29   C     C_R   0.884876 0.089855 0.918368 -0.088046
C30   C     C_R   0.113197 0.027000 0.084987 -0.090246
C31   C     C_R   0.615124 0.589861 0.581631 -0.088060
C32   C     C_R   0.386802 0.527002 0.415013 -0.090245
C33   C     C_R   0.983872 0.022615 0.034042 -0.130660
C34   C     C_R   0.013252 0.048990 0.965146 -0.113250
C35   C     C_R   0.516127 0.522620 0.465957 -0.130622
C36   C     C_R   0.486747 0.548994 0.534853 -0.113261
C37   C     C_R   0.978166 0.118612 0.877397 0.656999
C38   C     C_R   0.020369 0.021913 0.128592 0.646415
C39   C     C_R   0.521834 0.618616 0.622602 0.656998
C40   C     C_R   0.479630 0.521919 0.371407 0.646442
C41   C     C_R   0.915388 0.138952 0.855185 -0.249696
C42   C     C_R   0.083531 0.028392 0.152877 -0.232065
C43   C     C_R   0.584612 0.638957 0.644814 -0.249696
C44   C     C_R   0.416468 0.528396 0.347123 -0.232081
H1    H     H_    0.890911 0.198349 0.788368 0.187300
H2    H     H_    0.109151 0.034563 0.226174 0.193869
H3    H     H_    0.609088 0.698353 0.711631 0.187301
H4    H     H_    0.390849 0.534568 0.273826 0.193870
H5    H     H_    0.254453 0.046761 0.056263 0.117524
H6    H     H_    0.746970 0.128624 0.955073 0.126586
H7    H     H_    0.245547 0.546760 0.443737 0.117524
H8    H     H_    0.753030 0.628620 0.544927 0.126586
C45   C     C_1   0.416530 0.006454 0.919350 -0.163078
C46   C     C_1   0.583248 0.992926 0.081382 -0.154877
C47   C     C_1   0.083470 0.506454 0.580649 -0.163078
C48   C     C_1   0.916752 0.492926 0.418618 -0.154842
C49   C     C_1   0.468933 0.001717 0.970709 0.022791
C50   C     C_1   0.530726 0.997221 0.030475 0.038866
C51   C     C_1   0.031067 0.501717 0.529290 0.022784
C52   C     C_1   0.969274 0.497221 0.469524 0.038852
O21   O     O_3   0.076222 0.938868 0.832454 -0.520310
C53   C     C_3   0.061658 0.750663 0.831190 0.114753
H9    H     H_    0.044004 0.710593 0.889258 0.101008
H10   H     H_    0.102685 0.667029 0.835339 0.127286
C54   C     C_3   0.012342 0.707155 0.740451 -0.639985
H11   H     H_    0.026959 0.752477 0.680623 0.225229
H12   H     H_    0.003540 0.557399 0.735068 0.213417
H13   H     H_    0.969571 0.779513 0.738028 0.213084
O22   O     O_3   0.911815 0.822614 0.134246 -0.511955
C55   C     C_3   0.913234 0.650412 0.092122 0.079059
H14   H     H_    0.943355 0.653983 0.047143 0.106820
H15   H     H_    0.866575 0.607265 0.049590 0.111040
C56   C     C_3   0.938138 0.506850 0.167053 -0.583291
H16   H     H_    0.908084 0.495444 0.211466 0.206678
H17   H     H_    0.939870 0.371934 0.134111 0.195952
H18   H     H_    0.984778 0.545007 0.210824 0.225504
O23   O     O_3   0.423778 0.438870 0.667546 -0.520310
C57   C     C_3   0.438343 0.250665 0.668810 0.114754
H19   H     H_    0.455998 0.210598 0.610742 0.101013
H20   H     H_    0.397316 0.167030 0.664661 0.127285
C58   C     C_3   0.487658 0.207158 0.759549 -0.639985
H21   H     H_    0.473041 0.252479 0.819377 0.225229
H22   H     H_    0.496462 0.057403 0.764932 0.213416
H23   H     H_    0.530430 0.279519 0.761973 0.213085
O24   O     O_3   0.588181 0.322624 0.365754 -0.511953
C59   C     C_3   0.586792 0.150404 0.407877 0.079012
H24   H     H_    0.556723 0.153953 0.452939 0.106782
H25   H     H_    0.633468 0.107239 0.450325 0.111099
C60   C     C_3   0.561825 0.006880 0.332948 -0.583252
H26   H     H_    0.591819 0.995520 0.288437 0.206701
H27   H     H_    0.560132 0.871941 0.365890 0.195945
H28   H     H_    0.515162 0.045043 0.289275 0.225467
O25   O     O_3   0.788949 0.177577 0.806134 -0.568085
C61   C     C_3   0.727391 0.119332 0.775616 0.100513
H29   H     H_    0.698760 0.218859 0.799018 0.123861
H30   H     H_    0.721201 0.980211 0.801404 0.156265
C62   C     C_3   0.704894 0.111335 0.669776 -0.672032
H31   H     H_    0.734778 0.020814 0.644001 0.234660
H32   H     H_    0.657654 0.057020 0.645590 0.179675
H33   H     H_    0.704983 0.249518 0.639980 0.199241
O26   O     O_3   0.209438 0.049189 0.206786 -0.566616
C63   C     C_3   0.272937 0.021013 0.230466 0.090987
H34   H     H_    0.294816 0.137302 0.205502 0.135975
H35   H     H_    0.283361 0.889159 0.201705 0.155936
C64   C     C_3   0.299982 0.013212 0.335902 -0.655912
H36   H     H_    0.276913 0.905799 0.364570 0.229808
H37   H     H_    0.349376 0.981422 0.355437 0.180218
H38   H     H_    0.294031 0.146739 0.366932 0.208840
O27   O     O_3   0.711051 0.677578 0.693865 -0.568084
C65   C     C_3   0.772609 0.619333 0.724383 0.100507
H39   H     H_    0.801240 0.718860 0.700981 0.123861
H40   H     H_    0.778798 0.480211 0.698594 0.156265
C66   C     C_3   0.795106 0.611335 0.830223 -0.672021
H41   H     H_    0.765222 0.520813 0.855998 0.234663
H42   H     H_    0.842346 0.557020 0.854408 0.179673
H43   H     H_    0.795017 0.749517 0.860020 0.199240
O28   O     O_3   0.290562 0.549190 0.293214 -0.566617
C67   C     C_3   0.227062 0.521013 0.269534 0.090987
H44   H     H_    0.205184 0.637302 0.294499 0.135976
H45   H     H_    0.216638 0.389159 0.298295 0.155936
C68   C     C_3   0.200018 0.513212 0.164098 -0.655911
H46   H     H_    0.223086 0.405799 0.135430 0.229808
H47   H     H_    0.150623 0.481422 0.144563 0.180220
H48   H     H_    0.205968 0.646739 0.133068 0.208839
F1    F     F_    0.004661 0.194289 0.817587 -0.672226
F2    F     F_    0.995940 0.042174 0.198844 -0.664847
F3    F     F_    0.495339 0.694291 0.682412 -0.672225
F4    F     F_    0.504059 0.542187 0.301155 -0.664844

loop_
_geom_bond_atom_site_label_1
_geom_bond_atom_site_label_2
_ccdc_geom_bond_type
O17   V3    S    
C25   C29   A    
O1    C5    A    
O22   C55   S    
O19   V1    S    
C9    C21   A    
O3    C7    A    
C10   C18   A    
C48   C52   T    
C11   C23   A    
C14   O26   S    
C65   C66   S    
C56   H16   S    
C25   C33   A    
C33   C38   A    
C42   H2    S    
O21   C53   S    
O7    C3    A    
C66   H42   S    
C35   C40   A    
C63   H34   S    
C40   F4    S    
C36   C39   A    
C40   C44   A    
O9    V1    S    
C14   C18   A    
C24   C28   A    
C15   O27   S    
O4    C8    A    
C53   H10   S    
O1    V3    S    
O13   V1    S    
C57   C58   S    
O2    V4    S    
O3    V1    S    
C61   H29   S    
C62   H33   S    
C28   C36   A    
C56   H17   S    
C17   H6    S    
C59   H24   S    
O28   C67   S    
C1    O15   A    
C15   C31   A    
C2    O16   A    
C7    C9    S    
C8    C10   S    
O2    C6    A    
C10   C22   A    
C45   C49   T    
C54   H12   S    
C11   C19   A    
C43   H3    S    
C44   H4    S    
C64   H38   S    
C13   C29   A    
C34   C37   A    
O11   C7    A    
C66   H41   S    
O15   V3    S    
C35   C36   A    
O12   C8    A    
C16   O28   S    
C67   C68   S    
C57   H19   S    
O10   V2    S    
C68   H47   S    
C68   H46   S    
O5    V1    S    
C66   H43   S    
C39   C43   A    
O7    V3    S    
C38   C42   A    
O8    V4    S    
O23   C57   S    
C53   H9    S    
C65   H40   S    
C55   C56   S    
C16   C32   A    
C23   O24   S    
C49   C50   S    
C61   C62   S    
C26   C34   A    
C20   H7    S    
C57   H20   S    
O5    C1    A    
C3    C46   S    
C23   C27   A    
C58   H22   S    
C46   C50   T    
C31   C43   A    
C51   C52   S    
C14   C30   A    
C21   C25   A    
O8    C4    A    
C4    C45   S    
O9    C5    A    
C26   C30   A    
C58   H23   S    
C54   H13   S    
C55   H15   S    
C59   C60   S    
C39   F3    S    
C62   H31   S    
C22   O21   S    
C5    C11   S    
C61   H30   S    
O6    V2    S    
C21   O22   S    
O27   C65   S    
C67   H45   S    
C12   C20   A    
C27   C35   A    
C68   H48   S    
C29   C41   A    
C60   H26   S    
O16   V4    S    
C19   H8    S    
C3    O13   A    
C18   H5    S    
C63   H35   S    
C56   H18   S    
C38   F2    S    
C53   C54   S    
O6    C2    A    
C15   C19   A    
C2    C47   S    
O11   V3    S    
C65   H39   S    
C30   C42   A    
O12   V4    S    
C6    C12   S    
C58   H21   S    
C22   C26   A    
C63   C64   S    
C9    C17   A    
C60   H28   S    
O20   V2    S    
C64   H36   S    
C32   C44   A    
O25   C61   S    
C47   C51   T    
O10   C6    A    
C33   C34   A    
O26   C63   S    
C41   H1    S    
C24   O23   S    
C12   C24   A    
C27   C31   A    
C13   C17   A    
C55   H14   S    
C59   H25   S    
C62   H32   S    
O14   V2    S    
C37   C41   A    
C16   C20   A    
C13   O25   S    
C4    O14   A    
C67   H44   S    
C60   H27   S    
C54   H11   S    
O24   C59   S    
C37   F1    S    
C1    C48   S    
O18   V4    S    
O4    V2    S    
C28   C32   A    
C64   H37   S    
