data_mof_unit_6424.cif
_audit_creation_date              2012-12-11T16:22:18-0500
_audit_creation_method            fapswitch 2.2
_symmetry_space_group_name_H-M    P1
_symmetry_Int_Tables_number       1
_space_group_crystal_system       triclinic
_cell_length_a                    13.428537
_cell_length_b                    14.073454
_cell_length_c                    30.044822
_cell_angle_alpha                 97.99711
_cell_angle_beta                  90.271659
_cell_angle_gamma                 118.796047
_cell_volume                      4910.63626511

loop_
_atom_site_label
_atom_site_type_symbol
_atom_type_description
_atom_site_fract_x
_atom_site_fract_y
_atom_site_fract_z
_atom_type_partial_charge
C1    C     C_R   0.721269 0.099112 0.569137 0.543192
C2    C     C_1   0.350421 0.663255 0.764190 0.054644
C3    C     C_1   0.352139 0.671124 0.724989 0.037068
C4    C     C_R   0.383156 0.787604 0.550821 0.582541
C5    C     C_R   0.303695 0.599668 0.897654 0.002876
C6    C     C_3   0.249447 0.176398 0.726014 -0.082115
C7    C     C_3   0.219588 0.081524 0.753205 -0.094381
C8    C     C_1   0.298145 0.196267 0.876944 0.016579
C9    C     C_1   0.366528 0.134291 0.614353 0.012697
C10   C     C_3   0.346354 0.256410 0.762506 -0.070181
C11   C     C_3   0.316796 0.161436 0.788964 0.045529
C12   C     C_R   0.350520 0.683109 0.678688 -0.004079
C13   C     C_3   0.431515 0.228470 0.737430 -0.091134
C14   C     C_3   0.334396 0.148665 0.701633 0.039052
C15   C     C_3   0.401865 0.133672 0.764564 -0.110147
C16   C     C_R   0.397444 0.118459 0.569693 0.556539
C17   C     C_3   0.304916 0.053446 0.727949 -0.108105
C18   C     C_1   0.307278 0.175655 0.837504 -0.027048
C19   C     C_1   0.348380 0.142267 0.653412 -0.032696
C20   C     C_3   0.868071 0.275898 0.736586 0.310113
C21   C     C_3   0.770313 0.222520 0.767173 -0.128845
C22   C     C_1   0.892836 0.203419 0.878933 0.036102
C23   C     C_R   0.276160 0.715484 0.662646 -0.113910
C24   C     C_1   0.770303 0.132551 0.614591 0.037186
C25   C     C_3   0.941172 0.239654 0.761553 0.104022
C26   C     C_3   0.842853 0.184545 0.791504 0.010488
C27   C     C_3   0.891224 0.130948 0.727599 -0.118059
C28   C     C_R   0.718941 0.094439 0.442394 0.528248
C29   C     C_3   0.818610 0.168551 0.703126 -0.003448
C30   C     C_3   0.793133 0.076631 0.758060 0.099762
C31   C     C_3   0.719929 0.113478 0.733064 -0.150028
C32   C     C_1   0.863528 0.193150 0.839960 0.020068
C33   C     C_1   0.798120 0.153005 0.654283 0.024161
C34   C     C_R   0.281980 0.740244 0.619345 -0.159120
C35   C     C_3   0.269258 0.685890 0.256500 -0.088057
C36   C     C_3   0.317911 0.767109 0.222863 0.301560
C37   C     C_1   0.317228 0.619065 0.109477 0.052684
C38   C     C_1   0.396371 0.804187 0.374515 0.010347
C39   C     C_3   0.316405 0.615101 0.230515 -0.138397
C40   C     C_R   0.404309 0.835318 0.422244 0.552033
C41   C     C_3   0.364016 0.697260 0.197073 0.023638
C42   C     C_3   0.430982 0.682020 0.260063 -0.082955
C43   C     C_3   0.383722 0.752540 0.285326 0.000467
C44   C     C_3   0.478482 0.763892 0.225916 -0.125014
C45   C     C_R   0.259041 0.664270 0.833792 -0.099161
C46   C     C_3   0.431790 0.835425 0.252201 -0.087595
C47   C     C_1   0.343515 0.659281 0.148535 0.033184
C48   C     C_1   0.391234 0.780732 0.334255 -0.018521
C49   C     C_R   0.352657 0.133041 0.401832 -0.024662
C50   C     C_R   0.419475 0.229821 0.384155 -0.106801
C51   C     C_R   0.395116 0.237971 0.340044 0.223019
C52   C     C_R   0.395205 0.114334 0.443127 0.542482
C53   C     C_R   0.301995 0.147900 0.313568 0.027194
C54   C     C_R   0.229256 0.055524 0.332407 -0.126038
C55   C     C_R   0.254320 0.048001 0.376374 -0.133553
C56   C     C_R   0.238908 0.637960 0.877060 -0.098346
C57   C     C_R   0.241728 0.082098 0.145087 -0.058833
C58   C     C_R   0.249850 0.103409 0.100696 0.231513
C59   C     C_R   0.381508 0.297446 0.129234 0.039572
C60   C     C_R   0.373904 0.272790 0.172694 -0.083772
C61   C     C_R   0.300887 0.167290 0.180812 -0.033806
C62   C     C_1   0.289540 0.149601 0.226542 0.067152
C63   C     C_1   0.289365 0.144933 0.266048 0.089751
C64   C     C_R   0.362943 0.733606 0.591252 0.002662
C65   C     C_R   0.313904 0.213704 0.092493 0.004521
C66   C     C_R   0.773138 0.128746 0.400770 -0.003234
C67   C     C_R   0.393830 0.595293 0.875460 -0.095224
C68   C     C_R   0.790399 0.054771 0.369666 -0.097902
C69   C     C_R   0.811973 0.073773 0.325472 0.096598
C70   C     C_R   0.817521 0.168090 0.312398 0.041032
C71   C     C_R   0.809389 0.246145 0.344057 -0.134194
C72   C     C_R   0.787720 0.226902 0.388101 -0.124003
C73   C     C_R   0.874786 0.297365 0.165387 -0.099086
C74   C     C_R   0.903949 0.307527 0.121153 -0.114344
C75   C     C_R   0.847316 0.113454 0.105728 -0.106352
C76   C     C_R   0.431471 0.690719 0.606285 0.244845
C77   C     C_R   0.817803 0.103475 0.149850 -0.092471
C78   C     C_R   0.413205 0.620187 0.831960 0.111992
C79   C     C_R   0.835621 0.196214 0.180029 0.038670
C80   C     C_1   0.827100 0.189667 0.226902 0.008666
C81   C     C_1   0.823234 0.181604 0.266101 0.016997
C82   C     C_R   0.895300 0.216607 0.091592 0.016017
C83   C     C_R   0.284312 0.232379 0.922138 0.563493
C84   C     C_R   0.266760 0.547440 0.938078 0.552695
C85   C     C_R   0.944504 0.221833 0.923106 0.546941
C86   C     C_R   0.292914 0.244526 0.049632 0.588798
C87   C     C_R   0.276328 0.559864 0.064862 0.555818
C88   C     C_R   0.425513 0.667569 0.650443 -0.061703
C89   C     C_R   0.343511 0.652113 0.810729 0.057519
C90   C     C_R   0.953518 0.232933 0.049760 0.532974
Cr1   Cr    Cr6+3 0.583430 0.162610 0.509470 1.057768
Cr2   Cr    Cr6+3 0.584210 0.916680 0.495400 1.136810
Cr3   Cr    Cr6+3 0.332380 0.920740 0.495100 1.042479
Cr4   Cr    Cr6+3 0.086810 0.177030 0.983130 1.134232
Cr5   Cr    Cr6+3 0.337180 0.419300 0.994610 1.076509
Cr6   Cr    Cr6+3 0.084840 0.422330 0.995830 1.061965
H1    H     H_    0.168941 0.641993 0.893326 0.159351
H2    H     H_    0.204982 0.688917 0.817460 0.133191
H3    H     H_    0.183424 0.654800 0.269281 0.148962
H4    H     H_    0.478279 0.926269 0.261605 0.144154
H5    H     H_    0.563930 0.795334 0.212777 0.165695
H6    H     H_    0.477627 0.646848 0.276124 0.191564
H7    H     H_    0.269407 0.524262 0.221094 0.144405
H8    H     H_    0.188120 0.999450 0.151853 0.202271
H9    H     H_    0.156654 0.986751 0.312364 0.176360
H10   H     H_    0.216885 0.726331 0.684330 0.137382
H11   H     H_    0.200762 0.972772 0.389313 0.155433
H12   H     H_    0.187252 0.193856 0.709487 0.147076
H13   H     H_    0.494763 0.296289 0.403682 0.179556
H14   H     H_    0.422361 0.337731 0.200724 0.214070
H15   H     H_    0.940893 0.388038 0.111216 0.156997
H16   H     H_    0.888858 0.369480 0.188754 0.140337
H17   H     H_    0.814302 0.319383 0.334168 0.137040
H18   H     H_    0.775180 0.285594 0.411350 0.151889
H19   H     H_    0.779633 0.978665 0.378651 0.167821
H20   H     H_    0.227316 0.771438 0.609057 0.156846
H21   H     H_    0.787347 0.024877 0.161116 0.145587
H22   H     H_    0.839171 0.041972 0.083598 0.161395
H23   H     H_    0.287820 0.969779 0.712953 0.112884
H24   H     H_    0.444782 0.565678 0.890577 0.158932
H25   H     H_    0.480911 0.639739 0.663225 0.191641
H26   H     H_    0.132506 0.021043 0.760353 0.139966
H27   H     H_    0.008943 0.575133 0.757760 0.361389
H28   H     H_    0.138997 0.895578 0.221328 0.362833
H29   H     H_    0.129709 0.816593 0.048318 0.375426
H30   H     H_    0.596469 0.292087 0.292394 0.333158
H31   H     H_    0.602523 0.560528 0.570393 0.379594
H32   H     H_    0.464251 0.116058 0.780853 0.118748
H33   H     H_    0.518621 0.289163 0.730373 0.159372
H34   H     H_    0.363415 0.340006 0.777432 0.170785
H35   H     H_    0.721015 0.260238 0.783604 0.143432
H36   H     H_    0.628579 0.060809 0.720825 0.134944
H37   H     H_    0.941039 0.093776 0.711196 0.142437
I1    I     I_    0.730445 0.916102 0.774649 -0.310566
I2    I     I_    0.116799 0.340687 0.785651 -0.356337
I3    I     I_    0.491880 0.467111 0.126290 -0.293255
I4    I     I_    0.825752 0.953019 0.279145 -0.395469
I5    I     I_    0.541243 0.597978 0.798637 -0.309316
O1    O     O_R   0.493980 0.188910 0.559650 -0.480821
O2    O     O_R   0.170560 0.527890 0.952050 -0.501009
O3    O     O_R   0.987620 0.318470 0.945550 -0.492146
O4    O     O_R   0.678640 0.153520 0.554450 -0.487018
O5    O     O_R   0.976400 0.159270 0.031530 -0.489866
O6    O     O_R   0.194000 0.188570 0.028560 -0.438453
O7    O     O_R   0.365260 0.335720 0.039020 -0.481365
O8    O     O_R   0.330440 0.515580 0.044910 -0.484741
O9    O     O_R   0.177310 0.536200 0.050190 -0.492584
O10   O     O_R   0.993870 0.326170 0.036530 -0.505769
O11   O     O_3   0.169610 0.339550 0.991190 -0.278294
O12   O     O_R   0.480180 0.824400 0.444640 -0.460994
O13   O     O_R   0.698130 0.004030 0.549500 -0.471056
O14   O     O_R   0.481060 0.827210 0.535360 -0.422336
O15   O     O_R   0.309260 0.811560 0.537660 -0.519552
O16   O     O_R   0.341620 0.023400 0.546290 -0.501073
O17   O     O_R   0.493030 0.185890 0.461780 -0.508316
O18   O     O_R   0.677760 0.150720 0.463730 -0.505343
O19   O     O_R   0.697180 0.001010 0.451640 -0.514529
O20   O     O_2   0.010938 0.430350 0.690168 -0.266491
O21   O     O_2   0.821734 0.413903 0.698925 -0.262300
O22   O     O_3   0.970810 0.503556 0.768681 -0.504491
O23   O     O_R   0.308310 0.808540 0.439800 -0.492631
O24   O     O_2   0.324178 0.911878 0.172146 -0.262104
O25   O     O_2   0.147213 0.735095 0.165282 -0.257090
O26   O     O_3   0.190919 0.878358 0.237744 -0.552483
O27   O     O_2   0.060947 0.969616 0.046412 -0.271716
O28   O     O_2   0.243747 0.010533 0.015400 -0.278574
O29   O     O_3   0.171290 0.876826 0.073936 -0.468091
O30   O     O_2   0.418342 0.400329 0.296718 -0.263664
O31   O     O_2   0.572202 0.445500 0.353624 -0.256883
O32   O     O_3   0.557987 0.325371 0.277322 -0.504413
O33   O     O_2   0.471463 0.620581 0.523993 -0.255112
O34   O     O_R   0.340740 0.020600 0.455570 -0.516808
O35   O     O_2   0.635249 0.768282 0.572895 -0.257173
O36   O     O_3   0.549447 0.570038 0.590973 -0.515138
O37   O     O_3   0.500010 0.000010 0.499990 -0.298118
O38   O     O_R   0.969650 0.150960 0.933380 -0.489930
O39   O     O_R   0.187740 0.180870 0.937580 -0.474356
O40   O     O_R   0.358510 0.327410 0.940870 -0.505209
O41   O     O_R   0.324180 0.507870 0.953930 -0.504557
S1    S     S_3+6 0.918528 0.408846 0.721717 0.036732
S2    S     S_3+6 0.243356 0.824028 0.197377 0.011688
S3    S     S_3+6 0.179509 0.989233 0.056988 0.038007
S4    S     S_3+6 0.487591 0.357487 0.317526 0.013317
S5    S     S_3+6 0.524260 0.663777 0.571713 0.036727

loop_
_geom_bond_atom_site_label_1
_geom_bond_atom_site_label_2
_ccdc_geom_bond_type
Cr6   O2    S    
O26   S2    S    
C66   C68   A    
C21   C26   S    
Cr3   O34   S    
C26   C32   S    
C87   O8    A    
C29   C33   S    
O32   S4    S    
C27   C29   S    
C8    C83   S    
C73   C74   A    
C5    C56   A    
C28   C66   S    
C35   C36   S    
Cr5   O7    S    
O21   S1    D    
C5    C67   A    
C52   O34   A    
C86   O6    A    
C65   C86   S    
C20   S1    S    
C53   C54   A    
C52   O17   A    
C7    C11   S    
Cr5   O8    S    
C12   C23   A    
C62   C63   T    
C22   C32   T    
O27   S3    D    
Cr3   O16   S    
H29   O29   S    
C9    C16   S    
C51   S4    S    
C45   H2    S    
C30   C31   S    
C11   C18   S    
O29   S3    S    
O25   S2    D    
C20   C25   S    
C34   H20   S    
C72   H18   S    
C59   I3    S    
C85   O38   A    
C71   H17   S    
C22   C85   S    
Cr6   O9    S    
C70   C81   S    
O20   S1    D    
O31   S4    D    
C90   O10   A    
C3    C12   S    
C58   C65   A    
Cr6   O3    S    
C11   C15   S    
C9    C19   T    
C66   C72   A    
C45   C56   A    
C68   C69   A    
C30   I1    S    
O28   S3    D    
Cr2   O14   S    
C36   C46   S    
C70   C71   A    
Cr5   O11   S    
C37   C47   T    
C35   C43   S    
C67   H24   S    
C76   C88   A    
C38   C48   T    
C90   O5    A    
C83   O40   A    
Cr1   O4    S    
O30   S4    D    
H31   O36   S    
C4    O15   A    
C59   C60   A    
C78   C89   A    
C38   C40   S    
C13   C14   S    
C27   C30   S    
C14   C17   S    
C36   C41   S    
C69   C70   A    
C67   C78   A    
C42   C44   S    
C56   H1    S    
C74   C82   A    
C35   H3    S    
C78   I5    S    
C41   C47   S    
C44   C46   S    
C39   C42   S    
C20   C29   S    
C77   C79   A    
Cr2   O37   S    
C69   I4    S    
C4    O14   A    
C83   O39   A    
Cr1   O37   S    
C27   H37   S    
O33   S5    D    
O35   S5    D    
O24   S2    D    
C39   C41   S    
O36   S5    S    
C74   H15   S    
C5    C84   S    
C12   C88   A    
C88   H25   S    
C84   O41   A    
C7    C17   S    
C25   C26   S    
C49   C55   A    
C23   H10   S    
Cr3   O37   S    
C50   H13   S    
C8    C18   T    
Cr6   O10   S    
C55   H11   S    
Cr2   O19   S    
Cr4   O11   S    
Cr4   O39   S    
C1    O4    A    
C2    C89   S    
C35   C39   S    
C10   H34   S    
Cr1   O17   S    
C31   H36   S    
H30   O32   S    
C6    C14   S    
C21   C31   S    
Cr5   O40   S    
Cr3   O23   S    
C23   C34   A    
Cr2   O13   S    
C34   C64   A    
C50   C51   A    
C64   C76   A    
C40   O12   A    
C57   C61   A    
C75   C77   A    
C87   O9    A    
Cr1   O1    S    
Cr5   O41   S    
C26   C30   S    
C15   H32   S    
C13   C15   S    
Cr2   O12   S    
C41   C44   S    
C16   O1    A    
C42   C43   S    
Cr4   O5    S    
C7    H26   S    
C85   O3    A    
C86   O7    A    
C45   C89   A    
C73   H16   S    
C43   C48   S    
C15   C17   S    
C57   H8    S    
C46   H4    S    
C54   C55   A    
C13   H33   S    
C54   H9    S    
C14   C19   S    
C37   C87   S    
C75   H22   S    
C49   C52   S    
C80   C81   T    
C73   C79   A    
C10   C13   S    
C6    C10   S    
C44   H5    S    
C75   C82   A    
C39   H7    S    
C6    C7    S    
C25   C27   S    
C4    C64   S    
C77   H21   S    
C24   C33   T    
C82   C90   S    
C58   S3    S    
Cr4   O6    S    
Cr3   O15   S    
C2    C3    T    
C40   O23   A    
C29   C31   S    
O22   S1    S    
C42   H6    S    
C16   O16   A    
C53   C63   S    
C57   C58   A    
C21   H35   S    
Cr6   O11   S    
C28   O19   A    
C1    O13   A    
C61   C62   S    
C25   I2    S    
C43   C46   S    
C60   H14   S    
C10   C11   S    
C17   H23   S    
C68   H19   S    
C79   C80   S    
C71   C72   A    
Cr1   O18   S    
C20   C21   S    
C84   O2    A    
C1    C24   S    
C49   C50   A    
H27   O22   S    
C28   O18   A    
C6    H12   S    
C60   C61   A    
C36   S2    S    
C51   C53   A    
C76   S5    S    
C59   C65   A    
Cr4   O38   S    
H28   O26   S    
