data_mof_unit_36248.cif
_audit_creation_date              2012-12-10T17:47:43-0500
_audit_creation_method            fapswitch 2.2
_symmetry_space_group_name_H-M    P1
_symmetry_Int_Tables_number       1
_space_group_crystal_system       triclinic
_cell_length_a                    10.691599
_cell_length_b                    10.72865
_cell_length_c                    9.938787
_cell_angle_alpha                 88.756859
_cell_angle_beta                  90.254018
_cell_angle_gamma                 94.878908
_cell_volume                      1135.64077261

loop_
_atom_site_label
_atom_site_type_symbol
_atom_type_description
_atom_site_fract_x
_atom_site_fract_y
_atom_site_fract_z
_atom_type_partial_charge
C1    C     C_R   0.511285 0.261334 0.502254 0.966893
C2    C     C_3   0.878218 0.513756 0.500918 -0.313269
C3    C     C_3   0.932945 0.564784 0.363183 0.395879
C4    C     C_3   0.913092 0.378320 0.527709 -0.390913
C5    C     C_R   0.537846 0.106773 0.758650 -0.203586
C6    C     C_R   0.499033 0.038881 0.874736 -0.203615
C7    C     C_R   0.426938 0.925285 0.863431 0.456343
C8    C     C_R   0.408644 0.872556 0.737259 -0.178377
C9    C     C_R   0.463815 0.933031 0.621242 -0.021245
C10   C     C_R   0.509151 0.058423 0.629507 0.103862
C11   C     C_R   0.523319 0.128698 0.507412 -0.203264
C12   C     C_R   0.257684 0.503206 0.499962 1.001699
C13   C     C_R   0.527549 0.068899 0.384368 -0.228133
C14   C     C_R   0.511868 0.941225 0.380257 0.677018
C15   C     C_R   0.480434 0.872010 0.498400 -0.243537
C16   C     C_R   0.344241 0.300554 0.129684 0.288352
C17   C     C_R   0.288301 0.205478 0.048509 0.643782
C18   C     C_R   0.287068 0.219771 0.911931 -0.272906
C19   C     C_R   0.349813 0.323099 0.853149 -0.161770
C20   C     C_R   0.425430 0.410178 0.926730 0.093410
C21   C     C_R   0.424174 0.405940 0.071810 0.027475
C22   C     C_R   0.570711 0.587017 0.069835 0.053356
C23   C     C_R   0.490561 0.739033 0.498944 0.862204
C24   C     C_R   0.571020 0.586604 0.927124 -0.000988
C25   C     C_R   0.742047 0.510384 0.500075 0.921199
C26   C     C_3   0.078203 0.583100 0.624554 0.180614
C27   C     C_3   0.936840 0.601151 0.612175 0.400214
C28   C     C_3   0.077002 0.576967 0.370555 0.357261
C29   C     C_3   0.053027 0.371805 0.500947 0.295291
C30   C     C_3   0.120549 0.507088 0.500807 -0.367765
H1    H     H_    0.130842 0.677261 0.622374 0.056115
H2    H     H_    0.857985 0.311079 0.461726 0.193044
H3    H     H_    0.543563 0.120808 0.290353 0.194313
H4    H     H_    0.593065 0.194768 0.771912 0.196250
H5    H     H_    0.520045 0.077507 0.972842 0.179624
H6    H     H_    0.352070 0.784274 0.731168 0.194349
H7    H     H_    0.628673 0.658277 0.121921 0.175433
H8    H     H_    0.235646 0.150373 0.850809 0.247456
H9    H     H_    0.337719 0.331364 0.748141 0.282831
H10   H     H_    0.629294 0.657694 0.872355 0.173932
H11   H     H_    0.925325 0.700161 0.582242 0.030588
H12   H     H_    0.111539 0.677720 0.374430 0.057227
H13   H     H_    0.899661 0.658308 0.339147 0.063443
H14   H     H_    0.060817 0.332959 0.399149 0.243488
H15   H     H_    0.889930 0.349900 0.633722 0.269492
N1    N     N_R   0.498810 0.498800 0.142780 -0.099896
N2    N     N_R   0.498760 0.498720 0.857170 -0.118900
O1    O     O_R   0.500000 0.316780 0.614690 -0.672028
O2    O     O_R   0.499990 0.316750 0.385360 -0.593006
O3    O     O_R   0.314800 0.499990 0.614670 -0.606506
O4    O     O_R   0.314790 0.499970 0.385330 -0.509063
O5    O     O_R   0.500010 0.683250 0.614640 -0.648777
O6    O     O_R   0.500000 0.683220 0.385310 -0.552467
O7    O     O_R   0.685210 0.500030 0.614670 -0.560386
O8    O     O_R   0.685200 0.500010 0.385330 -0.588623
Zn1   Zn    Zn3+2 0.500010 0.500020 0.653130 0.993230
Zn2   Zn    Zn3+2 0.499990 0.499980 0.346870 1.082531
F1    F     F_    0.123405 0.530206 0.253239 -0.509444
F2    F     F_    0.893464 0.485033 0.260079 -0.544296
Cl1   Cl    Cl    0.363145 0.846247 0.006912 -0.442840
F3    F     F_    0.528655 0.886594 0.260492 -0.619176
Cl2   Cl    Cl    0.111347 0.514355 0.787077 -0.355859
Cl3   Cl    Cl    0.274521 0.277048 0.287336 -0.466409
F4    F     F_    0.223003 0.101745 0.102072 -0.557713
F5    F     F_    0.877561 0.580336 0.735677 -0.559027
Cl4   Cl    Cl    0.115873 0.260032 0.613022 -0.564416

loop_
_geom_bond_atom_site_label_1
_geom_bond_atom_site_label_2
_ccdc_geom_bond_type
C26   C27   S    
C4    C29   S    
C12   O3    A    
C1    O1    A    
C13   H3    S    
C6    C7    A    
C27   F5    S    
C16   Cl3   S    
C28   F1    S    
C9    C10   A    
C27   H11   S    
C2    C4    S    
C19   C20   A    
C1    C11   S    
C2    C27   S    
C5    H4    S    
C20   C21   A    
C15   C23   S    
C17   C18   A    
C18   H8    S    
C26   H1    S    
C17   F4    S    
C4    H2    S    
C13   C14   A    
C25   O7    A    
C24   N2    A    
C11   C13   A    
C3    H13   S    
C23   O5    A    
C29   C30   S    
C19   H9    S    
O4    Zn2   S    
C28   C30   S    
C3    C28   S    
C22   N1    A    
N2    Zn1   S    
C25   O8    A    
C23   O6    A    
C2    C25   S    
C2    C3    S    
C4    H15   S    
O8    Zn2   S    
C29   H14   S    
C26   Cl2   S    
C5    C6    A    
C22   C24   A    
C24   H10   S    
C20   N2    A    
C16   C17   A    
C10   C11   A    
C5    C10   A    
C29   Cl4   S    
O5    Zn1   S    
C7    Cl1   S    
C7    C8    A    
C12   O4    A    
O2    Zn2   S    
C6    H5    S    
C21   N1    A    
C8    H6    S    
C28   H12   S    
O1    Zn1   S    
O6    Zn2   S    
C14   C15   A    
C18   C19   A    
C12   C30   S    
C9    C15   A    
C14   F3    S    
C16   C21   A    
N1    Zn2   S    
C22   H7    S    
O3    Zn1   S    
O7    Zn1   S    
C3    F2    S    
C8    C9    A    
C26   C30   S    
C1    O2    A    
