data_mof_unit_6464.cif
_audit_creation_date              2012-12-11T19:58:20-0500
_audit_creation_method            fapswitch 2.2
_symmetry_space_group_name_H-M    P1
_symmetry_Int_Tables_number       1
_space_group_crystal_system       triclinic
_cell_length_a                    8.340485
_cell_length_b                    16.16963
_cell_length_c                    22.784981
_cell_angle_alpha                 108.124477
_cell_angle_beta                  89.019112
_cell_angle_gamma                 83.987646
_cell_volume                      2900.29288713

loop_
_atom_site_label
_atom_site_type_symbol
_atom_type_description
_atom_site_fract_x
_atom_site_fract_y
_atom_site_fract_z
_atom_type_partial_charge
Ba1   Ba    Ba6+2 0.335320 0.541410 0.478120 1.685847
Ba2   Ba    Ba6+2 0.854470 0.458670 0.521900 1.734072
C1    C     C_3   0.990401 0.855971 0.366719 -0.351044
C2    C     C_3   0.969870 0.759489 0.351382 0.311570
C3    C     C_3   0.057197 0.334780 0.325563 0.311552
C4    C     C_3   0.050454 0.311683 0.255702 -0.328341
C5    C     C_3   0.592783 0.238895 0.646326 0.313628
C6    C     C_3   0.581558 0.183712 0.689209 -0.302016
C7    C     C_3   0.112112 0.240733 0.667965 0.697813
C8    C     C_3   0.055686 0.177779 0.699464 -0.262277
C9    C     C_R   0.828979 0.524739 0.335984 -0.296879
C10   C     C_R   0.559194 0.567513 0.950773 -0.034128
C11   C     C_R   0.515059 0.563073 0.890012 0.633463
C12   C     C_3   0.503488 0.730135 0.347396 0.343931
C13   C     C_R   0.564330 0.406488 0.858145 0.672131
C14   C     C_R   0.602537 0.408727 0.919022 -0.035916
C15   C     C_R   0.599892 0.489477 0.965634 -0.046556
C16   C     C_R   0.562192 0.648280 0.997173 -0.061338
C17   C     C_R   0.604259 0.651777 0.056860 -0.065085
C18   C     C_R   0.642148 0.574645 0.072683 -0.016204
C19   C     C_R   0.638983 0.492501 0.027045 -0.052150
C20   C     C_R   0.642665 0.331314 0.933738 -0.039786
C21   C     C_R   0.678250 0.331562 0.994293 0.048038
C22   C     C_R   0.675751 0.414094 0.042532 -0.045227
C23   C     C_3   0.467338 0.757832 0.290634 -0.303108
C24   C     C_R   0.709288 0.421905 0.105618 0.582977
C25   C     C_R   0.683546 0.578644 0.133252 0.581584
C26   C     C_2   0.330944 0.436180 0.760157 0.348288
C27   C     C_3   0.305638 0.410313 0.690986 -0.145488
C28   C     C_1   0.506646 0.509526 0.684858 0.123539
C29   C     C_2   0.554893 0.513861 0.741193 -0.102595
C30   C     C_2   0.461068 0.477884 0.782795 0.206133
C31   C     C_R   0.888713 0.548851 0.238505 -0.103389
C32   C     C_R   0.927309 0.555656 0.299409 -0.042778
C33   C     C_R   0.697237 0.481732 0.311765 0.031476
C34   C     C_3   0.568268 0.743345 0.642293 0.617174
C35   C     C_R   0.657701 0.474165 0.250271 -0.090628
C36   C     C_R   0.751760 0.509300 0.213247 0.225551
C37   C     C_2   0.393316 0.461321 0.657839 -0.255930
C38   C     C_2   0.400260 0.239019 0.481932 -0.245882
C39   C     C_R   0.804323 0.749083 0.512169 -0.257098
C40   C     C_2   0.254588 0.117589 0.421301 -0.006083
C41   C     C_2   0.264340 0.205199 0.443870 0.070761
C42   C     C_2   0.511710 0.184986 0.497539 -0.043884
C43   C     C_3   0.472453 0.093986 0.491405 0.040412
C44   C     C_3   0.386845 0.054111 0.432420 0.045065
C45   C     C_3   0.421491 0.812135 0.660683 -0.200715
C46   C     C_2   0.611420 0.031751 0.496731 -0.099462
C47   C     C_2   0.581647 0.966833 0.518206 -0.062148
C48   C     C_R   0.853843 0.925592 0.548222 0.058228
C49   C     C_R   0.709590 0.899657 0.521751 -0.044051
C50   C     C_R   0.970548 0.864116 0.558309 -0.074052
C51   C     C_R   0.943262 0.776154 0.541976 0.140684
C52   C     C_R   0.684983 0.810622 0.503326 0.003252
C53   C     C_3   0.579956 0.271059 0.367465 0.374731
C54   C     C_3   0.587834 0.172815 0.334337 0.229508
C55   C     C_3   0.068467 0.668865 0.683307 0.596009
C56   C     C_3   0.941665 0.692573 0.736822 -0.175521
H1    H     H_    0.921823 0.749334 0.394179 -0.028675
H2    H     H_    0.427707 0.856503 0.708735 0.149271
H3    H     H_    0.412396 0.851864 0.628679 0.070239
H4    H     H_    0.311912 0.781391 0.660215 0.163008
H5    H     H_    0.455878 0.296135 0.387061 -0.116706
H6    H     H_    0.666386 0.282718 0.404867 0.037760
H7    H     H_    0.489866 0.159780 0.301434 0.067221
H8    H     H_    0.572829 0.137516 0.368217 -0.042848
H9    H     H_    0.059856 0.602644 0.650606 0.035439
H10   H     H_    0.078428 0.874155 0.403321 0.136200
H11   H     H_    0.948061 0.760412 0.767800 0.156229
H12   H     H_    0.959657 0.647208 0.764662 0.116223
H13   H     H_    0.820400 0.689172 0.720254 0.148153
H14   H     H_    0.881569 0.742802 0.314751 0.029636
H15   H     H_    0.872667 0.896228 0.383667 0.075092
H16   H     H_    0.932188 0.351755 0.346333 0.025185
H17   H     H_    0.126264 0.392015 0.342575 0.044499
H18   H     H_    0.978859 0.255772 0.237622 0.185622
H19   H     H_    0.993141 0.368416 0.243200 0.062402
H20   H     H_    0.174529 0.293467 0.233801 0.121351
H21   H     H_    0.034838 0.869530 0.324806 0.125777
H22   H     H_    0.462237 0.698867 0.250010 0.128617
H23   H     H_    0.609533 0.306877 0.674243 0.052804
H24   H     H_    0.476263 0.239225 0.623330 -0.042126
H25   H     H_    0.688219 0.187702 0.717854 0.146186
H26   H     H_    0.472299 0.208094 0.720786 0.129027
H27   H     H_    0.574315 0.114297 0.661690 0.111582
H28   H     H_    0.231901 0.256060 0.685533 -0.063018
H29   H     H_    0.152932 0.123370 0.695033 0.072824
H30   H     H_    0.948047 0.149318 0.677493 0.142792
H31   H     H_    0.427236 0.678111 0.347578 0.117410
H32   H     H_    0.025820 0.212514 0.749363 0.123637
H33   H     H_    0.644000 0.270101 0.896929 0.126040
H34   H     H_    0.605441 0.715645 0.090970 0.127679
H35   H     H_    0.965596 0.573610 0.210650 0.100579
H36   H     H_    0.532383 0.709376 0.987450 0.130995
H37   H     H_    0.662157 0.544490 0.757953 0.115394
H38   H     H_    0.555582 0.440621 0.231183 0.112488
H39   H     H_    0.860718 0.529952 0.382746 0.074654
H40   H     H_    0.632708 0.703476 0.344566 -0.070446
H41   H     H_    0.381189 0.444800 0.608304 0.075765
H42   H     H_    0.076787 0.886027 0.582258 0.095938
H43   H     H_    0.415971 0.307876 0.492935 0.045301
H44   H     H_    0.784022 0.680894 0.499764 0.063282
H45   H     H_    0.731549 0.034834 0.478894 0.097985
H46   H     H_    0.458395 0.961677 0.531619 0.118954
H47   H     H_    0.348527 0.798521 0.297520 0.137455
H48   H     H_    0.562359 0.796428 0.281849 0.126823
H49   H     H_    0.573355 0.707259 0.591997 -0.018391
N1    N     N_R   0.514702 0.482887 0.844630 -0.414322
N2    N     N_R   0.711976 0.503169 0.149790 -0.420529
O1    O     O_2   0.414630 0.451750 0.353890 -0.460755
O2    O     O_3   0.057428 0.735913 0.655569 -0.591319
O3    O     O_3   0.467165 0.803004 0.400372 -0.602613
O4    O     O_2   0.775060 0.548280 0.646150 -0.494457
O5    O     O_3   0.534950 0.547420 0.574950 -0.501317
O6    O     O_3   0.073530 0.388570 0.588510 -0.430578
O7    O     O_3   0.568575 0.688770 0.680023 -0.579258
O8    O     O_3   0.168220 0.394330 0.455930 -0.482584
O9    O     O_3   0.678190 0.343400 0.553390 -0.484878
O10   O     O_2   0.845651 0.188707 0.495051 -0.430420
O11   O     O_3   0.726590 0.203670 0.604308 -0.546055
O12   O     O_3   0.654720 0.452660 0.425060 -0.503594
O13   O     O_3   0.021450 0.605740 0.544090 -0.500196
O14   O     O_2   0.953100 0.285520 0.441860 -0.447992
O15   O     O_3   0.133197 0.262120 0.339359 -0.635176
O16   O     O_2   0.982128 0.485400 0.703619 -0.476263
O17   O     O_3   0.999302 0.316490 0.682077 -0.543660
O18   O     O_2   0.475419 0.630531 0.877796 -0.546712
O19   O     O_2   0.574984 0.336178 0.817026 -0.600267
O20   O     O_2   0.738348 0.356627 0.121362 -0.609247
O21   O     O_2   0.694280 0.649818 0.171477 -0.618608
O22   O     O_3   0.116150 0.611500 0.411510 -0.474494
O23   O     O_2   0.264539 0.549271 0.299216 -0.498729
O24   O     O_3   0.618193 0.312189 0.324522 -0.604962
O25   O     O_3   0.119416 0.709273 0.329621 -0.594266
O26   O     O_2   0.236590 0.714510 0.558180 -0.482855
O27   O     O_3   0.511480 0.656670 0.446630 -0.497763
O28   O     O_2   0.349700 0.812260 0.508517 -0.489687
P1    P     P_3+3 0.594550 0.425840 0.359090 1.001986
P2    P     P_3+3 0.065650 0.701630 0.573510 1.032842
P3    P     P_3+3 0.502146 0.770602 0.465922 0.947782
P4    P     P_3+3 0.595130 0.574230 0.640920 1.043360
P5    P     P_3+3 0.690710 0.229797 0.536378 1.025589
P6    P     P_3+3 0.107568 0.603796 0.333380 0.945568
P7    P     P_3+3 0.132447 0.285582 0.419664 0.974817
P8    P     P_3+3 0.091349 0.401269 0.667229 1.083749
Cl1   Cl    Cl    0.777144 0.130859 0.292705 -0.699045
Cl2   Cl    Cl    0.250526 0.670116 0.721514 -0.752419
Cl3   Cl    Cl    0.132502 0.186479 0.586539 -0.723358
C57   C     C_3   0.719858 0.244409 0.007067 -0.173200
C58   C     C_3   0.722822 0.160430 0.952122 -0.443954
H50   H     H_    0.601739 0.154516 0.932701 0.149417
H51   H     H_    0.814770 0.159068 0.915874 0.149205
H52   H     H_    0.755743 0.102831 0.968013 0.155561
H53   H     H_    0.841955 0.243583 0.025806 0.164596
H54   H     H_    0.629926 0.239798 0.042135 0.165676
Cl4   Cl    Cl    0.206715 0.399066 0.808064 -0.682130
C59   C     C_3   0.123134 0.077646 0.380738 -0.174909
C60   C     C_3   0.187897 0.032726 0.314080 -0.392044
H55   H     H_    0.235335 0.080964 0.294708 0.161053
H56   H     H_    0.285552 0.979316 0.311681 0.123088
H57   H     H_    0.089100 0.003796 0.285474 0.182176
H58   H     H_    0.075269 0.028795 0.399282 0.118554
H59   H     H_    0.019206 0.126101 0.381091 0.188384
Cl5   Cl    Cl    0.729512 0.808118 0.661799 -0.787753

loop_
_geom_bond_atom_site_label_1
_geom_bond_atom_site_label_2
_ccdc_geom_bond_type
O12   P1    S    
C53   C54   S    
C59   C60   S    
C6    H25   S    
O3    P3    S    
C1    H10   S    
O27   P3    S    
C1    H21   S    
C45   H4    S    
Ba2   O9    S    
O2    P2    S    
C5    C6    S    
C55   O2    S    
Ba2   O14   S    
C42   C43   S    
O26   P2    D    
C3    O15   S    
C8    H30   S    
C28   P4    S    
C6    H27   S    
C26   C27   S    
C33   C35   A    
C22   C24   A    
O13   P2    S    
Ba1   Ba2   S    
C33   P1    S    
C27   P8    S    
C28   C29   D    
C7    H28   S    
Ba2   O4    S    
C54   H8    S    
C56   H13   S    
C4    H20   S    
C54   H7    S    
C23   H22   S    
C39   H44   S    
C34   C45   S    
C16   C17   A    
C40   C44   S    
C3    H16   S    
Ba1   O13   S    
C17   H34   S    
C60   H57   S    
O25   P6    S    
Ba2   O8    S    
C38   C41   S    
C52   P3    S    
C17   C18   A    
C14   C15   A    
C47   C49   S    
C58   H52   S    
C53   H5    S    
C10   C15   A    
C48   C50   A    
C20   H33   S    
Ba1   O27   S    
C7    C8    S    
C59   H59   S    
Ba1   P2    S    
O23   P6    D    
C45   H2    S    
C21   C57   S    
O24   P1    S    
C51   P2    S    
C34   H49   S    
C60   H56   S    
C41   P7    S    
C55   H9    S    
C11   N1    Am   
C20   C21   A    
Ba1   O22   S    
O17   P8    S    
C23   H48   S    
C12   H40   S    
Ba2   O13   S    
C8    H29   S    
O28   P3    D    
C34   Cl5   S    
C32   P6    S    
C23   H47   S    
O5    P4    S    
O1    P1    D    
O8    P7    S    
O11   P5    S    
C8    H32   S    
C56   H12   S    
C4    H19   S    
C48   C49   A    
C53   O24   S    
C46   H45   S    
C50   H42   S    
C15   C19   A    
C35   H38   S    
C13   N1    Am   
C3    H17   S    
C12   O3    S    
C57   H53   S    
C12   H31   S    
C35   C36   A    
Ba1   O1    S    
Ba2   O12   S    
Ba2   O6    S    
C37   H41   S    
C29   C30   S    
C26   C30   D    
C21   C22   A    
C53   H6    S    
C27   C37   S    
C31   C32   A    
Ba1   O8    S    
C10   C11   A    
C36   N2    S    
C24   N2    Am   
C39   C51   A    
C24   O20   D    
C46   C47   D    
C5    H23   S    
C13   O19   D    
C55   Cl2   S    
C30   N1    S    
C60   H55   S    
C16   H36   S    
C58   H51   S    
C40   C59   S    
Ba1   O5    S    
C10   C16   A    
C1    C2    S    
C34   O7    S    
C2    H14   S    
O22   P6    S    
C50   C51   A    
C2    O25   S    
C43   C46   S    
C25   O21   D    
C14   C20   A    
C6    H26   S    
C5    O11   S    
C9    C32   A    
C38   H43   S    
O9    P5    S    
C31   H35   S    
C45   H3    S    
C56   H11   S    
C4    H18   S    
C18   C25   A    
O6    P8    S    
C7    Cl3   S    
C7    O17   S    
C9    H39   S    
C49   C52   A    
C9    C33   A    
C57   H54   S    
O16   P8    D    
C57   C58   S    
O14   P7    D    
Ba2   O5    S    
C55   C56   S    
C3    C4    S    
C29   H37   S    
Ba2   P4    S    
C2    H1    S    
O4    P4    D    
C28   C37   D    
C12   C23   S    
C54   Cl1   S    
C1    H15   S    
Ba1   O12   S    
C39   C52   A    
O7    P4    S    
C11   O18   D    
C43   C44   S    
C38   C42   D    
C5    H24   S    
C18   C19   A    
C25   N2    Am   
C42   P5    S    
C40   C41   D    
C19   C22   A    
C47   H46   S    
C26   Cl4   S    
O10   P5    D    
C58   H50   S    
O15   P7    S    
C31   C36   A    
Ba1   O26   S    
C59   H58   S    
Ba1   P1    S    
C13   C14   A    
