data_mof_unit_12400.cif
_audit_creation_date              2012-12-11T14:56:26-0500
_audit_creation_method            fapswitch 2.2
_symmetry_space_group_name_H-M    P1
_symmetry_Int_Tables_number       1
_space_group_crystal_system       triclinic
_cell_length_a                    10.634815
_cell_length_b                    10.794275
_cell_length_c                    17.178048
_cell_angle_alpha                 79.88893
_cell_angle_beta                  90.125489
_cell_angle_gamma                 119.294973
_cell_volume                      1684.99108501

loop_
_atom_site_label
_atom_site_type_symbol
_atom_type_description
_atom_site_fract_x
_atom_site_fract_y
_atom_site_fract_z
_atom_type_partial_charge
C1    C     C_R   0.224457 0.855224 0.128956 0.556128
C2    C     C_R   0.739187 0.292446 0.294088 -0.199148
C3    C     C_R   0.740820 0.285920 0.215426 -0.194853
C4    C     C_R   0.638423 0.300745 0.169497 -0.006415
C5    C     C_1   0.668151 0.848262 0.205511 -0.032318
C6    C     C_1   0.680225 0.838687 0.274799 -0.024410
C7    C     C_1   0.181848 0.826423 0.211530 -0.027952
C8    C     C_1   0.151488 0.820643 0.279823 -0.036123
C9    C     C_1   0.663543 0.360883 0.780735 -0.093697
C10   C     C_1   0.685814 0.403598 0.710048 -0.047675
C11   C     C_R   0.600762 0.717009 0.801684 -0.166020
C12   C     C_R   0.632538 0.268800 0.090654 0.560713
C13   C     C_R   0.579154 0.708642 0.723721 0.206448
C14   C     C_R   0.666489 0.828846 0.663340 -0.015815
C15   C     C_R   0.769435 0.961652 0.682139 0.095561
C16   C     C_R   0.785353 0.971442 0.762972 0.279395
C17   C     C_R   0.691989 0.850119 0.822528 -0.022473
C18   C     C_R   0.171393 0.948960 0.768045 0.259591
C19   C     C_R   0.177923 0.945053 0.688774 -0.115891
C20   C     C_R   0.145123 0.816327 0.665102 -0.013923
C21   C     C_R   0.119206 0.695130 0.721870 -0.188023
C22   C     C_R   0.138325 0.705916 0.801061 -0.195628
C23   C     C_R   0.639687 0.858578 0.125472 0.545447
C24   C     C_R   0.164487 0.833119 0.824693 0.047111
C25   C     C_R   0.686881 0.809288 0.357156 0.550055
C26   C     C_R   0.683363 0.387496 0.398546 0.565862
C27   C     C_R   0.102620 0.810213 0.359077 0.547668
C28   C     C_R   0.677365 0.800466 0.584900 0.552746
C29   C     C_R   0.716945 0.445078 0.625835 0.575379
C30   C     C_R   0.097169 0.801425 0.586779 0.545831
C31   C     C_R   0.219211 0.862088 0.900900 0.554949
C32   C     C_R   0.640666 0.291614 0.862271 0.523715
C33   C     C_R   0.647688 0.867275 0.899053 0.556750
C34   C     C_R   0.528831 0.316847 0.204908 0.249014
C35   C     C_R   0.532293 0.331755 0.284342 0.247929
C36   C     C_R   0.643361 0.326842 0.327548 -0.013993
Cr1   Cr    Cr6+3 0.402240 0.783890 0.019450 0.976960
Cr2   Cr    Cr6+3 0.382360 0.097900 0.991800 1.023753
Cr3   Cr    Cr6+3 0.715380 0.118170 0.988700 1.013590
Cr4   Cr    Cr6+3 0.936650 0.882420 0.465510 0.968724
Cr5   Cr    Cr6+3 0.605770 0.565620 0.493360 1.030411
Cr6   Cr    Cr6+3 0.921340 0.550490 0.496380 0.991247
H1    H     H_    0.194409 0.039536 0.646252 0.118125
H2    H     H_    0.083740 0.593271 0.704210 0.125963
H3    H     H_    0.132376 0.616173 0.843748 0.122961
H4    H     H_    0.821803 0.281871 0.326847 0.155430
H5    H     H_    0.821055 0.264784 0.191479 0.160667
H6    H     H_    0.531232 0.621749 0.846343 0.146527
O1    O     O_R   0.521780 0.757110 0.108900 -0.544192
O2    O     O_R   0.513330 0.228330 0.898660 -0.530190
O3    O     O_R   0.739230 0.266130 0.888050 -0.536293
O4    O     O_R   0.712580 0.991850 0.918770 -0.462266
O5    O     O_3   0.499990 0.999980 0.999980 -0.259529
O6    O     O_R   0.083770 0.911170 0.376030 -0.538200
O7    O     O_R   0.808770 0.880340 0.383890 -0.507334
O8    O     O_R   0.584340 0.689460 0.394160 -0.495740
O9    O     O_R   0.614320 0.443940 0.423590 -0.452550
O10   O     O_R   0.805020 0.410040 0.421340 -0.532094
O11   O     O_R   0.049240 0.685450 0.403290 -0.492479
O12   O     O_R   0.275160 0.783810 0.101120 -0.502954
O13   O     O_R   0.077520 0.903010 0.551800 -0.547771
O14   O     O_R   0.802980 0.872780 0.546830 -0.511503
O15   O     O_R   0.578090 0.681300 0.569920 -0.486665
O16   O     O_R   0.608530 0.436370 0.586530 -0.494384
O17   O     O_R   0.798770 0.401880 0.597100 -0.535760
O18   O     O_R   0.043450 0.677890 0.566230 -0.523433
O19   O     O_3   0.821250 0.666180 0.485090 -0.271544
O20   O     O_R   0.237900 0.972600 0.090980 -0.491122
O21   O     O_R   0.511190 0.220540 0.061620 -0.458351
O22   O     O_R   0.736920 0.257720 0.063840 -0.536544
O23   O     O_R   0.710450 0.984050 0.081720 -0.497592
O24   O     O_R   0.524090 0.765520 0.933110 -0.550731
O25   O     O_R   0.277300 0.791600 0.938160 -0.518666
O26   O     O_R   0.240210 0.981010 0.915190 -0.480767
O27   O     O_3   0.409424 0.299939 0.165679 -0.546885
C37   C     C_3   0.431159 0.437014 0.128928 0.028149
H7    H     H_    0.537939 0.503876 0.092476 0.124775
H8    H     H_    0.423758 0.494812 0.174733 0.195334
C38   C     C_3   0.312531 0.416071 0.074211 -0.347147
H9    H     H_    0.204509 0.350228 0.108819 0.142808
H10   H     H_    0.325751 0.522663 0.045516 0.142342
H11   H     H_    0.318483 0.359734 0.027261 0.135300
O28   O     O_3   0.437442 0.367081 0.316106 -0.546207
C39   C     C_3   0.310843 0.238066 0.350787 0.028978
H12   H     H_    0.336397 0.168830 0.396638 0.129487
H13   H     H_    0.253153 0.176470 0.304394 0.189698
C40   C     C_3   0.210200 0.275775 0.390894 -0.352686
H14   H     H_    0.184054 0.346406 0.346902 0.151980
H15   H     H_    0.107993 0.175092 0.416247 0.111390
H16   H     H_    0.262751 0.333283 0.439473 0.134635
O29   O     O_3   0.470510 0.580465 0.706923 -0.552859
C41   C     C_3   0.352504 0.600624 0.685562 0.011276
H17   H     H_    0.385000 0.710431 0.649697 0.131969
H18   H     H_    0.290875 0.586317 0.741069 0.122810
C42   C     C_3   0.258132 0.491172 0.635754 -0.371261
H19   H     H_    0.208874 0.380390 0.671339 0.128080
H20   H     H_    0.170259 0.511876 0.614806 0.106270
H21   H     H_    0.321872 0.497385 0.582851 0.177396
N1    N     N_2   0.842584 0.087676 0.620263 -0.515531
H22   H     H_    0.787620 0.090214 0.570985 0.255967
C43   C     C_3   0.996920 0.149544 0.602332 -0.286117
H23   H     H_    0.019613 0.094007 0.561010 0.185503
H24   H     H_    0.050507 0.143789 0.657025 0.199197
H25   H     H_    0.043548 0.264539 0.572159 0.102100
O30   O     O_3   0.898642 0.091838 0.784805 -0.514116
C44   C     C_3   0.880663 0.213711 0.762361 0.043442
H26   H     H_    0.766101 0.184073 0.774166 0.152187
H27   H     H_    0.913387 0.263989 0.698857 0.171744
C45   C     C_3   0.980068 0.329754 0.806245 -0.328202
H28   H     H_    0.087693 0.387884 0.775258 0.080628
H29   H     H_    0.946469 0.411942 0.803791 0.126632
H30   H     H_    0.983766 0.283487 0.868757 0.189860
O31   O     O_3   0.164550 0.063015 0.790184 -0.517901
C46   C     C_3   0.300314 0.190549 0.770274 0.038152
H31   H     H_    0.310576 0.244265 0.707564 0.123474
H32   H     H_    0.391077 0.167361 0.777040 0.137253
C47   C     C_3   0.314171 0.292349 0.825109 -0.276701
H33   H     H_    0.280506 0.234715 0.887951 0.179915
H34   H     H_    0.426704 0.382587 0.819989 0.144075
H35   H     H_    0.245439 0.339208 0.809193 0.131167

loop_
_geom_bond_atom_site_label_1
_geom_bond_atom_site_label_2
_ccdc_geom_bond_type
Cr3   O3    S    
C40   H14   S    
C43   H23   S    
C42   H19   S    
C19   C20   A    
C25   O8    A    
C12   O21   A    
Cr6   O10   S    
C46   H31   S    
C42   H21   S    
C7    C8    T    
Cr5   O19   S    
C20   C30   S    
C2    H4    S    
C33   O4    A    
C18   C24   A    
C39   H13   S    
C18   C19   A    
C45   H29   S    
C5    C6    T    
C23   O1    A    
C6    C25   S    
C44   H26   S    
C15   C16   A    
C1    O20   A    
Cr4   O14   S    
C34   C35   A    
C12   O22   A    
C9    C32   S    
N1    H22   S    
C16   C17   A    
Cr4   O19   S    
Cr6   O17   S    
C39   C40   S    
C4    C12   S    
C9    C10   T    
C33   O24   A    
C34   O27   S    
Cr1   O5    S    
Cr3   O4    S    
Cr2   O21   S    
C43   H24   S    
C13   C14   A    
C13   O29   S    
C11   H6    S    
Cr1   O24   S    
C17   C33   S    
C18   O31   S    
C19   H1    S    
C4    C34   A    
C27   O6    A    
Cr1   O12   S    
C23   O23   A    
C37   H7    S    
C45   H30   S    
C15   N1    S    
O29   C41   S    
C38   H10   S    
C35   O28   S    
C31   O26   A    
C41   C42   S    
Cr4   O13   S    
C35   C36   A    
O27   C37   S    
Cr5   O8    S    
C21   H2    S    
Cr1   O1    S    
O28   C39   S    
C5    C23   S    
Cr4   O7    S    
C22   H3    S    
C41   H18   S    
C39   H12   S    
C26   O10   A    
C32   O2    A    
C30   O18   A    
C16   O30   S    
C29   O17   A    
C26   C36   S    
N1    C43   S    
Cr2   O20   S    
C43   H25   S    
Cr4   O6    S    
C40   H15   S    
Cr6   O19   S    
C22   C24   A    
C30   O13   A    
Cr5   O15   S    
C3    C4    A    
O31   C46   S    
Cr2   O26   S    
C32   O3    A    
C2    C36   A    
Cr1   O25   S    
C11   C17   A    
C1    C7    S    
C25   O7    A    
C37   H8    S    
Cr6   O11   S    
C38   H11   S    
C46   H32   S    
C42   H20   S    
Cr2   O2    S    
O30   C44   S    
C47   H34   S    
C2    C3    A    
C24   C31   S    
Cr5   O9    S    
C27   O11   A    
C47   H33   S    
C11   C13   A    
C10   C29   S    
Cr3   O5    S    
Cr2   O5    S    
C44   H27   S    
C3    H5    S    
C41   H17   S    
Cr3   O22   S    
C47   H35   S    
C1    O12   A    
C26   O9    A    
C29   O16   A    
C46   C47   S    
C31   O25   A    
C38   H9    S    
C28   O15   A    
C37   C38   S    
C20   C21   A    
C40   H16   S    
C45   H28   S    
Cr6   O18   S    
C8    C27   S    
Cr3   O23   S    
C14   C15   A    
Cr5   O16   S    
C14   C28   S    
C21   C22   A    
C44   C45   S    
C28   O14   A    
