data_mof_unit_64142.cif
_audit_creation_date              2012-12-11T14:13:22-0500
_audit_creation_method            fapswitch 2.2
_symmetry_space_group_name_H-M    P1
_symmetry_Int_Tables_number       1
_space_group_crystal_system       triclinic
_cell_length_a                    11.510372
_cell_length_b                    18.525483
_cell_length_c                    10.04268
_cell_angle_alpha                 88.13245
_cell_angle_beta                  109.964992
_cell_angle_gamma                 90.886539
_cell_volume                      2011.6639855

loop_
_atom_site_label
_atom_site_type_symbol
_atom_type_description
_atom_site_fract_x
_atom_site_fract_y
_atom_site_fract_z
_atom_type_partial_charge
Br1   Br    Br    0.351277 0.113278 0.052571 -0.409152
Br2   Br    Br    0.541624 0.931892 0.883138 -0.440439
Br3   Br    Br    0.660870 0.587604 0.099087 -0.485560
Br4   Br    Br    0.339089 0.412253 0.899458 -0.494248
C1    C     C_R   0.076461 0.644763 0.142971 0.575703
C2    C     C_2   0.594581 0.072437 0.074649 -0.068286
C3    C     C_2   0.591938 0.421843 0.082350 -0.076009
C4    C     C_2   0.407670 0.578037 0.917772 -0.058359
C5    C     C_2   0.449131 0.974670 0.989966 0.251688
C6    C     C_2   0.477949 0.049274 0.039221 0.166884
C7    C     C_2   0.494747 0.460166 0.001422 0.115847
C8    C     C_2   0.504948 0.539697 0.998334 0.132228
C9    C     C_2   0.990341 0.914424 0.096581 -0.098991
C10   C     C_2   0.002775 0.083209 0.902731 -0.080216
C11   C     C_2   0.983319 0.425653 0.880571 -0.072214
C12   C     C_R   0.923647 0.355201 0.857064 0.586871
C13   C     C_2   0.017131 0.574222 0.119588 -0.076033
C14   C     C_2   0.014204 0.961105 0.003782 -0.168787
C15   C     C_2   0.965004 0.033865 0.980570 -0.180379
C16   C     C_2   0.978813 0.462990 0.990788 -0.140842
C17   C     C_2   0.022141 0.536801 0.009691 -0.142182
C18   C     C_R   0.469495 0.646563 0.444263 0.580712
C19   C     C_R   0.530472 0.353446 0.555673 0.577117
C20   C     C_R   0.558646 0.136984 0.622282 0.533395
C21   C     C_R   0.440097 0.862699 0.374196 0.520472
C22   C     C_R   0.378619 0.647089 0.961502 0.578623
C23   C     C_R   0.932955 0.149489 0.863414 0.566402
C24   C     C_R   0.621323 0.352885 0.038530 0.570922
C25   C     C_R   0.622278 0.145475 0.038664 0.556365
C26   C     C_R   0.348865 0.860164 0.012935 0.553515
C27   C     C_R   0.504667 0.425520 0.484334 -0.049049
C28   C     C_R   0.496048 0.574883 0.517179 0.002501
C29   C     C_R   0.471839 0.938498 0.413397 -0.007054
C30   C     C_R   0.526694 0.062270 0.575692 0.001146
C31   C     C_R   0.277726 0.418242 0.434547 0.039026
C32   C     C_R   0.723092 0.582375 0.565912 0.092078
C33   C     C_R   0.705369 0.930910 0.449122 0.098653
C34   C     C_R   0.065563 0.849787 0.136426 0.535334
C35   C     C_R   0.295485 0.074282 0.530723 0.068681
C36   C     C_R   0.175745 0.447615 0.459498 -0.096190
C37   C     C_R   0.824802 0.552846 0.540632 -0.102058
C38   C     C_R   0.822764 0.941173 0.546351 -0.124136
C39   C     C_R   0.180206 0.069774 0.427320 -0.109488
C40   C     C_R   0.183622 0.515550 0.516765 -0.124074
C41   C     C_R   0.816751 0.484833 0.483670 -0.132575
C42   C     C_R   0.840228 0.986293 0.655929 -0.121302
C43   C     C_R   0.161394 0.022133 0.320959 -0.090347
C44   C     C_R   0.290238 0.557058 0.540918 -0.066871
C45   C     C_R   0.391380 0.457735 0.473528 -0.027197
C46   C     C_R   0.710296 0.443297 0.460256 -0.074679
C47   C     C_R   0.742299 0.025805 0.667183 -0.056051
C48   C     C_R   0.256112 0.976603 0.318818 -0.064417
C49   C     C_R   0.392919 0.530437 0.511500 -0.002034
C50   C     C_R   0.607870 0.469937 0.490114 -0.012625
C51   C     C_R   0.622583 0.017701 0.570125 -0.002908
C52   C     C_R   0.376032 0.983963 0.416215 -0.002731
C53   C     C_2   0.260287 0.348356 0.360366 0.596364
C54   C     C_2   0.741526 0.651932 0.640887 0.593201
C55   C     C_2   0.707364 0.897506 0.318328 0.598170
C56   C     C_R   0.609403 0.542743 0.527758 0.004044
C57   C     C_2   0.288216 0.092591 0.669221 0.617277
C58   C     C_R   0.598657 0.962148 0.472154 0.023846
C59   C     C_R   0.400500 0.040116 0.512256 0.047944
C60   C     C_2   0.356420 0.938671 0.012794 -0.028398
Cr1   Cr    Cr6+3 0.187610 0.750000 0.979860 1.045166
Cr2   Cr    Cr6+3 0.812390 0.250000 0.020140 1.063035
Cr3   Cr    Cr6+3 0.245810 0.750000 0.341640 1.062916
Cr4   Cr    Cr6+3 0.754190 0.250000 0.658360 1.053759
Cr5   Cr    Cr6+3 0.485760 0.750000 0.219910 1.141299
Cr6   Cr    Cr6+3 0.514240 0.250000 0.780090 1.152442
H1    H     H_    0.089361 0.418010 0.433507 0.132401
H2    H     H_    0.707581 0.390921 0.414669 0.145549
H3    H     H_    0.756733 0.060342 0.755280 0.116577
H4    H     H_    0.238887 0.938288 0.236980 0.093871
H5    H     H_    0.669346 0.034286 0.092036 0.129541
H6    H     H_    0.294963 0.966311 0.054178 0.048541
H7    H     H_    0.330477 0.551978 0.839711 0.123008
H8    H     H_    0.668845 0.447917 0.160801 0.125547
H9    H     H_    0.891776 0.046089 0.021970 0.154972
H10   H     H_    0.079589 0.947695 0.951931 0.159338
H11   H     H_    0.062724 0.559852 0.934508 0.168825
H12   H     H_    0.911307 0.582257 0.566090 0.147377
H13   H     H_    0.938429 0.439917 0.066132 0.168142
H14   H     H_    0.072289 0.071044 0.855917 0.164007
H15   H     H_    0.930123 0.928512 0.154723 0.124187
H16   H     H_    0.981464 0.550004 0.198027 0.121884
H17   H     H_    0.018773 0.449904 0.801980 0.121337
H18   H     H_    0.355994 0.379706 0.232216 0.307988
H19   H     H_    0.837639 0.745295 0.688194 0.352029
H20   H     H_    0.785107 0.825786 0.227073 0.351940
H21   H     H_    0.239511 0.196370 0.611236 0.333832
H22   H     H_    0.903626 0.916733 0.534539 0.163764
H23   H     H_    0.101137 0.097447 0.436945 0.125459
H24   H     H_    0.105547 0.537057 0.538950 0.112454
H25   H     H_    0.894642 0.463280 0.461155 0.113283
H26   H     H_    0.932994 0.991220 0.725624 0.130263
H27   H     H_    0.069483 0.018822 0.248640 0.131316
H28   H     H_    0.292823 0.609437 0.586465 0.149273
O1    O     O_R   0.267710 0.668200 0.902110 -0.529105
O2    O     O_R   0.883280 0.330790 0.732340 -0.506928
O3    O     O_R   0.883280 0.169210 0.732340 -0.512112
O4    O     O_R   0.116720 0.830790 0.267660 -0.501555
O5    O     O_R   0.366710 0.675440 0.427590 -0.506695
O6    O     O_R   0.633290 0.324560 0.572410 -0.508377
O7    O     O_R   0.633290 0.175440 0.572410 -0.477568
O8    O     O_R   0.366710 0.824560 0.427590 -0.457938
O9    O     O_R   0.534870 0.669390 0.371760 -0.471980
O10   O     O_R   0.465130 0.330610 0.628240 -0.463987
O11   O     O_R   0.465130 0.169390 0.628240 -0.507543
O12   O     O_R   0.732290 0.331800 0.097890 -0.535709
O13   O     O_R   0.534870 0.830610 0.371760 -0.485043
O14   O     O_R   0.453080 0.674480 0.075160 -0.436592
O15   O     O_R   0.546920 0.325520 0.924840 -0.427676
O16   O     O_R   0.546920 0.174480 0.924840 -0.451070
O17   O     O_R   0.453080 0.825520 0.075160 -0.430936
O18   O     O_3   0.306390 0.750000 0.180470 -0.335636
O19   O     O_3   0.693610 0.250000 0.819530 -0.306641
O20   O     O_2   0.194737 0.301450 0.386287 -0.478428
O21   O     O_R   0.314930 0.335436 0.258563 -0.621472
O22   O     O_2   0.678568 0.666411 0.712884 -0.488225
O23   O     O_R   0.732290 0.168200 0.097890 -0.525231
O24   O     O_R   0.833621 0.700152 0.632299 -0.679256
O25   O     O_2   0.634485 0.917139 0.205242 -0.538189
O26   O     O_R   0.793715 0.844000 0.324141 -0.678216
O27   O     O_2   0.295449 0.043954 0.755300 -0.482313
O28   O     O_R   0.253561 0.161398 0.694885 -0.612805
O29   O     O_R   0.267710 0.831800 0.902110 -0.475169
O30   O     O_R   0.099480 0.674460 0.038850 -0.492862
O31   O     O_R   0.900520 0.325540 0.961150 -0.485544
O32   O     O_R   0.900520 0.174460 0.961150 -0.492141
O33   O     O_R   0.099480 0.825540 0.038850 -0.526490
O34   O     O_R   0.116720 0.669210 0.267660 -0.505017

loop_
_geom_bond_atom_site_label_1
_geom_bond_atom_site_label_2
_ccdc_geom_bond_type
C40   C44   A    
C25   O16   A    
Cr5   O18   S    
H21   O28   S    
C26   C60   S    
C5    C60   D    
C4    C22   S    
Cr3   O34   S    
C10   H14   S    
C33   C58   A    
Cr5   O9    S    
Cr3   O5    S    
C2    H5    S    
C50   C56   A    
Cr6   O16   S    
C3    C7    D    
C46   C50   A    
C18   C28   S    
C9    C14   D    
Cr1   O29   S    
C36   H1    S    
C48   H4    S    
Cr5   O14   S    
C1    C13   S    
H19   O24   S    
C37   H12   S    
Cr6   O19   S    
C18   O9    A    
C51   C58   A    
C14   C15   S    
C38   C42   A    
C33   C38   A    
C46   H2    S    
Br3   C8    S    
C1    O34   A    
C29   C58   A    
Cr2   O19   S    
C25   O23   A    
C31   C45   A    
C57   O28   S    
C10   C23   S    
C5    C6    S    
C38   H22   S    
C22   O1    A    
C53   O21   S    
Cr2   O31   S    
C29   C52   A    
C30   C51   A    
C32   C37   A    
C11   C16   D    
C27   C45   A    
Cr1   O33   S    
C21   O8    A    
C26   O17   A    
Cr6   O15   S    
C55   O25   D    
C44   C49   A    
C35   C57   S    
C52   C59   A    
C54   O24   S    
C20   O11   A    
C13   H16   S    
Cr1   O30   S    
Cr4   O6    S    
Cr4   O3    S    
Cr1   O1    S    
C21   O13   A    
C12   O2    A    
C35   C39   A    
C24   O12   A    
C42   C47   A    
C23   O3    A    
C20   C30   S    
C3    C24   S    
Br4   C7    S    
C19   C27   S    
Cr3   O18   S    
Cr4   O2    S    
Cr6   O11   S    
Cr4   O19   S    
C19   O6    A    
C4    C8    D    
C54   O22   D    
C60   H6    S    
Cr2   O23   S    
Cr2   O12   S    
H18   O21   S    
C15   H9    S    
C12   O31   A    
C9    C34   S    
C33   C55   S    
C3    H8    S    
C17   H11   S    
C4    H7    S    
Cr1   O18   S    
Cr4   O7    S    
C28   C56   A    
C41   H25   S    
C22   O14   A    
C28   C49   A    
C35   C59   A    
C11   H17   S    
C55   O26   S    
C26   O29   A    
Cr5   O17   S    
H20   O26   S    
C10   C15   D    
Br1   C6    S    
C47   H3    S    
C32   C56   A    
C2    C6    D    
C7    C8    S    
Cr3   O8    S    
C43   C48   A    
C44   H28   S    
C32   C54   S    
C43   H27   S    
C31   C53   S    
C34   O33   A    
C31   C36   A    
C34   O4    A    
Cr6   O10   S    
Cr5   O13   S    
C41   C46   A    
C45   C49   A    
C19   O10   A    
C1    O30   A    
C30   C59   A    
C39   H23   S    
C47   C51   A    
C27   C50   A    
C13   C17   D    
C40   H24   S    
C24   O15   A    
C18   O5    A    
C48   C52   A    
C36   C40   A    
C2    C25   S    
C42   H26   S    
C16   C17   S    
C14   H10   S    
C16   H13   S    
C9    H15   S    
C23   O32   A    
C37   C41   A    
C57   O27   D    
C20   O7    A    
Br2   C5    S    
C39   C43   A    
C11   C12   S    
Cr3   O4    S    
C21   C29   S    
C53   O20   D    
Cr2   O32   S    
