data_mof_unit_25009.cif
_audit_creation_date              2012-12-10T17:27:51-0500
_audit_creation_method            fapswitch 2.2
_symmetry_space_group_name_H-M    P1
_symmetry_Int_Tables_number       1
_space_group_crystal_system       triclinic
_cell_length_a                    10.65921
_cell_length_b                    12.019664
_cell_length_c                    12.858608
_cell_angle_alpha                 93.758783
_cell_angle_beta                  89.709289
_cell_angle_gamma                 86.496762
_cell_volume                      1640.7625224

loop_
_atom_site_label
_atom_site_type_symbol
_atom_type_description
_atom_site_fract_x
_atom_site_fract_y
_atom_site_fract_z
_atom_type_partial_charge
C1    C     C_R   0.499896 0.522632 0.700553 0.955561
C2    C     C_R   0.551413 0.634472 0.862657 0.350818
C3    C     C_R   0.471989 0.448426 0.868283 -0.309522
C4    C     C_R   0.739411 0.499792 0.495914 1.094016
C5    C     C_R   0.484315 0.452863 0.974565 0.079296
C6    C     C_R   0.532855 0.547941 0.026558 0.065295
C7    C     C_R   0.543554 0.551181 0.133632 -0.145468
C8    C     C_R   0.459213 0.367914 0.136896 -0.133558
C9    C     C_R   0.449617 0.362589 0.029485 -0.084647
C10   C     C_R   0.378275 0.953111 0.407241 -0.214563
C11   C     C_R   0.389996 0.837647 0.416438 -0.083725
C12   C     C_R   0.940955 0.450809 0.405131 -0.124803
C13   C     C_R   0.553707 0.857890 0.538767 0.850229
C14   C     C_R   0.545468 0.975869 0.533073 -0.230717
C15   C     C_R   0.457730 0.024143 0.464066 -0.179136
C16   C     C_R   0.500919 0.477607 0.299705 0.933763
C17   C     C_R   0.450724 0.142406 0.456549 0.482275
C18   C     C_R   0.606846 0.162981 0.586740 0.543434
C19   C     C_R   0.621213 0.046182 0.594859 0.296695
C20   C     C_R   0.260824 0.499656 0.500728 0.838923
C21   C     C_R   0.883825 0.403687 0.314023 0.549583
C22   C     C_R   0.956683 0.358163 0.229580 -0.257992
C23   C     C_R   0.872047 0.500196 0.492416 -0.216339
C24   C     C_R   0.086603 0.359007 0.232822 0.598576
C25   C     C_R   0.144317 0.405172 0.320815 -0.209987
C26   C     C_R   0.072268 0.450790 0.408317 -0.088495
C27   C     C_R   0.928661 0.549534 0.580430 0.429897
C28   C     C_R   0.058922 0.546861 0.584884 0.326535
C29   C     C_R   0.128691 0.498032 0.498375 -0.163580
C30   C     C_R   0.503324 0.463510 0.188392 -0.070345
C31   C     C_R   0.506377 0.537289 0.812368 -0.138484
C32   C     C_R   0.569629 0.637902 0.971309 0.313852
F1    F     F_    0.677539 0.232440 0.645737 -0.639077
F2    F     F_    0.637822 0.807703 0.602174 -0.549718
F3    F     F_    0.757999 0.401989 0.303975 -0.691429
F4    F     F_    0.157012 0.315550 0.150102 -0.664901
H1    H     H_    0.413260 0.289202 0.989649 0.167714
H2    H     H_    0.564005 0.793256 0.848305 0.354444
H3    H     H_    0.365631 0.145650 0.323829 0.324136
H4    H     H_    0.752081 0.059652 0.700001 0.381898
H5    H     H_    0.203719 0.565763 0.677519 0.330099
H6    H     H_    0.683508 0.758541 0.977029 0.361654
H7    H     H_    0.435132 0.374919 0.828754 0.196313
H8    H     H_    0.305416 0.984938 0.357023 0.175534
H9    H     H_    0.328896 0.783902 0.372308 0.170288
H10   H     H_    0.911727 0.322786 0.160799 0.200872
H11   H     H_    0.245625 0.405193 0.319019 0.175227
H12   H     H_    0.580370 0.623302 0.175339 0.217457
H13   H     H_    0.428449 0.299662 0.179696 0.192269
H14   H     H_    0.904362 0.630123 0.717927 0.402853
N1    N     N_R   0.523130 0.207800 0.519340 -0.170627
N2    N     N_R   0.476870 0.792180 0.480660 -0.176316
O1    O     O_R   0.506170 0.421690 0.658830 -0.600509
O2    O     O_3   0.578444 0.722725 0.804452 -0.660320
O3    O     O_3   0.372262 0.195165 0.387795 -0.725904
O4    O     O_3   0.706767 0.999812 0.662654 -0.653290
O5    O     O_3   0.114079 0.591643 0.674368 -0.759071
O6    O     O_3   0.624858 0.725593 0.024630 -0.772440
O7    O     O_R   0.491330 0.609320 0.646410 -0.537934
O8    O     O_R   0.690660 0.406170 0.506210 -0.548294
O9    O     O_R   0.675810 0.593790 0.493790 -0.565748
O10   O     O_R   0.508670 0.390680 0.353590 -0.555486
O11   O     O_R   0.493830 0.578310 0.341170 -0.657527
O12   O     O_R   0.324190 0.406210 0.506210 -0.582506
O13   O     O_R   0.309340 0.593830 0.493790 -0.629259
O14   O     O_3   0.852830 0.596069 0.662034 -0.695877
Zn1   Zn    Zn3+2 0.509910 0.374720 0.508290 1.080344
Zn2   Zn    Zn3+2 0.490090 0.625280 0.491710 1.047745

loop_
_geom_bond_atom_site_label_1
_geom_bond_atom_site_label_2
_ccdc_geom_bond_type
C19   O4    S    
C20   O12   A    
C6    C32   A    
C5    C9    A    
C6    C7    A    
C21   F3    S    
C16   O11   A    
C23   C27   A    
O7    Zn2   S    
C13   N2    A    
H4    O4    S    
C25   H11   S    
N2    Zn2   S    
C32   O6    S    
C10   C15   A    
O13   Zn2   S    
C8    C30   A    
C7    H12   S    
C17   N1    A    
C9    H1    S    
H5    O5    S    
C13   F2    S    
C4    O9    A    
C7    C30   A    
N1    Zn1   S    
C21   C22   A    
C3    C31   A    
H14   O14   S    
O9    Zn2   S    
C4    O8    A    
C24   F4    S    
C16   O10   A    
O10   Zn1   S    
C3    H7    S    
C2    C31   A    
C28   C29   A    
C22   H10   S    
C18   N1    A    
C20   C29   S    
C1    O7    A    
C27   O14   S    
C5    C6    A    
O1    Zn1   S    
C18   F1    S    
C22   C24   A    
C11   H9    S    
C1    O1    A    
C10   C11   A    
C11   N2    A    
C10   H8    S    
O12   Zn1   S    
C20   O13   A    
C1    C31   S    
C24   C25   A    
C28   O5    S    
C26   C29   A    
C2    C32   A    
C18   C19   A    
C2    O2    S    
C27   C28   A    
C15   C17   A    
C4    C23   S    
C17   O3    S    
C14   C15   A    
C14   C19   A    
C12   C23   A    
H6    O6    S    
C13   C14   A    
C8    H13   S    
C25   C26   A    
O11   Zn2   S    
C16   C30   S    
C12   C21   A    
H3    O3    S    
O8    Zn1   S    
C12   C26   A    
C8    C9    A    
C3    C5    A    
H2    O2    S    
