data_mof_unit_51722.cif
_audit_creation_date              2012-12-10T20:30:59-0500
_audit_creation_method            fapswitch 2.2
_symmetry_space_group_name_H-M    P1
_symmetry_Int_Tables_number       1
_space_group_crystal_system       triclinic
_cell_length_a                    14.933122
_cell_length_b                    10.758823
_cell_length_c                    9.904031
_cell_angle_alpha                 89.976575
_cell_angle_beta                  88.118398
_cell_angle_gamma                 89.932146
_cell_volume                      1590.35032724

loop_
_atom_site_label
_atom_site_type_symbol
_atom_type_description
_atom_site_fract_x
_atom_site_fract_y
_atom_site_fract_z
_atom_type_partial_charge
C1    C     C_R   0.504853 0.260493 0.498949 0.896415
C2    C     C_R   0.903118 0.593907 0.556772 0.133791
C3    C     C_R   0.960743 0.328197 0.326016 -0.034355
C4    C     C_R   0.054978 0.329794 0.329084 -0.079164
C5    C     C_R   0.097241 0.415684 0.414516 0.028778
C6    C     C_R   0.046648 0.504997 0.488749 0.071489
C7    C     C_R   0.089481 0.598097 0.566089 0.059600
C8    C     C_R   0.037481 0.690033 0.632492 -0.201030
C9    C     C_R   0.945264 0.687951 0.627295 -0.168859
C10   C     C_R   0.189586 0.415268 0.426846 -0.263911
C11   C     C_R   0.231407 0.504925 0.503198 -0.084577
C12   C     C_R   0.327112 0.501241 0.501710 0.983100
C13   C     C_R   0.183233 0.599053 0.571365 -0.085442
C14   C     C_R   0.511009 0.061430 0.612513 0.133386
C15   C     C_R   0.517639 0.128980 0.494042 -0.152623
C16   C     C_R   0.539719 0.064444 0.371389 -0.068576
C17   C     C_R   0.544593 0.933508 0.372515 -0.067698
C18   C     C_R   0.524959 0.869272 0.495750 -0.198746
C19   C     C_R   0.515729 0.937364 0.613843 0.003383
C20   C     C_3   0.510042 0.928565 0.765033 -0.139357
C21   C     C_3   0.502254 0.072899 0.763264 -0.332795
C22   C     C_R   0.423225 0.522730 0.074898 0.256315
C23   C     C_R   0.508794 0.738587 0.499142 0.940463
C24   C     C_R   0.578158 0.489943 0.065167 0.012084
C25   C     C_R   0.577162 0.486476 0.922531 -0.057348
C26   C     C_R   0.423400 0.524117 0.932835 0.236231
C27   C     C_3   0.337513 0.453902 0.930643 -0.498182
C28   C     C_3   0.338066 0.450647 0.083989 -0.525397
C29   C     C_R   0.672694 0.497681 0.497991 0.823572
C30   C     C_R   0.811078 0.592450 0.554780 -0.247926
C31   C     C_R   0.768054 0.495196 0.492744 -0.124843
C32   C     C_R   0.815188 0.396643 0.430310 -0.043298
C33   C     C_R   0.909378 0.406329 0.414312 0.024077
C34   C     C_R   0.953137 0.501551 0.486306 0.028488
H1    H     H_    0.772202 0.665619 0.604657 0.152976
H2    H     H_    0.560233 0.122949 0.805299 0.142689
H3    H     H_    0.639244 0.476058 0.864296 0.181063
H4    H     H_    0.282212 0.511266 0.891118 0.208892
H5    H     H_    0.345257 0.361097 0.883223 0.238527
H6    H     H_    0.282377 0.504934 0.132425 0.221564
H7    H     H_    0.347433 0.355725 0.125822 0.210748
H8    H     H_    0.230930 0.344680 0.377901 0.144245
H9    H     H_    0.066914 0.764847 0.688628 0.152725
H10   H     H_    0.906687 0.759606 0.679791 0.159612
N1    N     N_R   0.499390 0.499140 0.142800 -0.157991
N2    N     N_R   0.499390 0.499180 0.857150 -0.131765
O1    O     O_R   0.500010 0.316790 0.614690 -0.601507
O2    O     O_R   0.500000 0.316760 0.385350 -0.637719
O3    O     O_R   0.367850 0.499990 0.614680 -0.605614
O4    O     O_R   0.367840 0.499950 0.385340 -0.620645
O5    O     O_R   0.500000 0.683240 0.614650 -0.584859
O6    O     O_R   0.499990 0.683210 0.385310 -0.627698
O7    O     O_R   0.632160 0.500050 0.614660 -0.620273
O8    O     O_R   0.632150 0.500010 0.385320 -0.670381
Zn1   Zn    Zn3+2 0.500010 0.500020 0.653130 1.000145
Zn2   Zn    Zn3+2 0.499990 0.499980 0.346870 0.965334
C35   C     C_2   0.575396 0.865696 0.248141 0.484171
H11   H     H_    0.623355 0.790270 0.255191 0.050525
O9    O     O_2   0.545427 0.890956 0.138277 -0.560993
C36   C     C_1   0.429976 0.861637 0.818476 0.419341
N3    N     N_1   0.367641 0.809798 0.862018 -0.201630
C37   C     C_2   0.597143 0.881751 0.819697 0.455779
H12   H     H_    0.657899 0.936086 0.804827 0.067363
O10   O     O_2   0.601280 0.781810 0.877692 -0.563878
C38   C     C_2   0.413251 0.124859 0.813964 0.474728
H13   H     H_    0.400967 0.135784 0.921879 0.060324
O11   O     O_2   0.354675 0.153291 0.736348 -0.553976
C39   C     C_2   0.667002 0.492072 0.123156 0.461019
H14   H     H_    0.688938 0.574330 0.175833 0.080659
O12   O     O_2   0.718946 0.405680 0.104264 -0.601432
C40   C     C_2   0.766178 0.279247 0.402449 0.403241
H15   H     H_    0.698981 0.281765 0.364696 0.092632
O13   O     O_2   0.798944 0.178401 0.428796 -0.566714
C41   C     C_1   0.918603 0.261183 0.217723 0.355989
N4    N     N_1   0.885327 0.207993 0.131052 -0.122490
C42   C     C_2   0.109225 0.245823 0.238347 0.411637
H16   H     H_    0.170654 0.278769 0.189050 0.058881
O14   O     O_2   0.086098 0.138642 0.219000 -0.529498
C43   C     C_2   0.230791 0.699681 0.642785 0.406818
H17   H     H_    0.208521 0.728056 0.743434 0.068217
O15   O     O_2   0.294068 0.753501 0.587943 -0.553494
C44   C     C_1   0.562465 0.129586 0.246214 0.296445
N5    N     N_1   0.580525 0.180772 0.146167 -0.170774

loop_
_geom_bond_atom_site_label_1
_geom_bond_atom_site_label_2
_ccdc_geom_bond_type
C13   C43   S    
C10   H8    S    
C19   C20   S    
C8    H9    S    
C12   O3    A    
C35   H11   S    
C7    C8    A    
C21   H2    S    
C26   C27   S    
C30   H1    S    
C24   N1    A    
C14   C21   S    
C42   O14   D    
C5    C6    A    
C35   O9    D    
C16   C17   A    
C29   O8    A    
C3    C33   A    
C27   H4    S    
C15   C16   A    
C28   H7    S    
C18   C19   A    
C3    C41   S    
C37   O10   D    
C25   H3    S    
C39   H14   S    
N1    Zn2   S    
C27   H5    S    
C8    C9    A    
C38   O11   D    
N2    Zn1   S    
C1    C15   S    
C20   C36   S    
C2    C34   A    
C22   C28   S    
C33   C34   A    
C32   C40   S    
O7    Zn1   S    
O8    Zn2   S    
C41   N4    T    
C18   C23   S    
C24   C25   A    
C43   O15   D    
C24   C39   S    
C1    O1    A    
O3    Zn1   S    
O4    Zn2   S    
C6    C34   A    
C36   N3    T    
C37   H12   S    
C23   O5    A    
C31   C32   A    
C7    C13   A    
C16   C44   S    
C17   C18   A    
C42   H16   S    
C38   H13   S    
C3    C4    A    
O1    Zn1   S    
O2    Zn2   S    
C9    H10   S    
C21   C38   S    
C14   C19   A    
C4    C5    A    
C12   O4    A    
C11   C12   S    
C1    O2    A    
C6    C7    A    
C2    C30   A    
C32   C33   A    
C40   H15   S    
C29   C31   S    
C11   C13   A    
C23   O6    A    
C30   C31   A    
C29   O7    A    
O5    Zn1   S    
C20   C37   S    
C4    C42   S    
C10   C11   A    
C26   N2    A    
C43   H17   S    
C5    C10   A    
C22   N1    A    
C20   C21   S    
C39   O12   D    
C44   N5    T    
C22   C26   A    
C40   O13   D    
C27   C28   S    
C28   H6    S    
C14   C15   A    
C2    C9    A    
C25   N2    A    
O6    Zn2   S    
C17   C35   S    
