data_mof_unit_34153.cif
_audit_creation_date              2012-10-26T19:03:45-0400
_audit_creation_method            fapswitch 2.2
_symmetry_space_group_name_H-M    P1
_symmetry_Int_Tables_number       1
_space_group_crystal_system       triclinic
_cell_length_a                    15.915371
_cell_length_b                    13.052279
_cell_length_c                    11.796808
_cell_angle_alpha                 99.546896
_cell_angle_beta                  90.888392
_cell_angle_gamma                 93.755607
_cell_volume                      2410.57732436

loop_
_atom_site_label
_atom_site_type_symbol
_atom_type_description
_atom_site_fract_x
_atom_site_fract_y
_atom_site_fract_z
_atom_type_partial_charge
C1    C     C_R   0.502393 0.299304 0.478487 0.535964
C2    C     C_R   0.508146 0.185271 0.465792 -0.054886
C3    C     C_R   0.531401 0.017320 0.348845 0.271772
C4    C     C_R   0.340639 0.499629 0.502834 0.532108
C5    C     C_R   0.524988 0.125285 0.358334 0.191939
C6    C     C_R   0.497631 0.135087 0.562124 0.216233
C7    C     C_R   0.488605 0.026285 0.547140 -0.090549
C8    C     C_R   0.516967 0.968254 0.445562 -0.093611
C9    C     C_R   0.528240 0.862440 0.442905 0.209286
C10   C     C_R   0.451499 0.866384 0.622812 0.195532
C11   C     C_R   0.448110 0.975234 0.629982 0.269750
C12   C     C_3   0.948834 0.508445 0.638022 0.514108
C13   C     C_R   0.398763 0.441242 0.036982 -0.170409
C14   C     C_R   0.413623 0.432998 0.152600 0.383032
C15   C     C_R   0.547560 0.522648 0.149127 0.412812
C16   C     C_R   0.499685 0.699911 0.520937 0.580727
C17   C     C_R   0.536411 0.527978 0.029122 -0.069790
C18   C     C_R   0.461806 0.481611 0.971493 -0.144439
C19   C     C_R   0.452434 0.476562 0.850048 0.352925
C20   C     C_R   0.581149 0.580088 0.847494 0.343012
C21   C     C_R   0.596626 0.580500 0.966883 0.227038
C22   C     C_R   0.659621 0.500295 0.497951 0.507899
C23   C     C_3   0.918360 0.508808 0.508320 0.061723
C24   C     C_3   0.046399 0.489300 0.635715 0.171007
C25   C     C_3   0.045209 0.425757 0.415364 0.177231
C26   C     C_3   0.947557 0.406369 0.427119 0.476805
C27   C     C_1   0.749455 0.502182 0.496183 -0.088419
C28   C     C_3   0.084686 0.508425 0.518108 -0.056714
C29   C     C_3   0.826013 0.442986 0.730492 -0.100260
C30   C     C_3   0.959090 0.620140 0.822096 -0.120451
C31   C     C_3   0.949164 0.691070 0.293324 0.046085
C32   C     C_3   0.990627 0.668850 0.177043 -0.383487
C33   C     C_3   0.654309 0.808763 0.378043 -0.049812
C34   C     C_3   0.960508 0.612895 0.466371 0.501737
C35   C     C_3   0.400754 0.849345 0.806014 0.004738
C36   C     C_3   0.378018 0.761613 0.873013 -0.374195
C37   C     C_3   0.475193 0.928176 0.179963 -0.066405
C38   C     C_3   0.314046 0.019934 0.657626 -0.132770
C39   C     C_3   0.613558 0.186557 0.230440 0.015651
C40   C     C_3   0.615070 0.207282 0.107343 -0.383912
C41   C     C_3   0.580551 0.183906 0.723317 0.019757
C42   C     C_3   0.596632 0.270946 0.825668 -0.383229
C43   C     C_3   0.354235 0.338214 0.782045 0.022534
C44   C     C_3   0.310381 0.300446 0.665878 -0.313929
C45   C     C_3   0.060620 0.620990 0.497827 0.485777
C46   C     C_3   0.091158 0.383104 0.764637 -0.011922
C47   C     C_3   0.094200 0.270184 0.780642 -0.371181
C48   C     C_3   0.619313 0.745896 0.818090 -0.008653
C49   C     C_3   0.675459 0.809318 0.748381 -0.388060
C50   C     C_3   0.741560 0.620494 0.974332 -0.105624
C51   C     C_3   0.348250 0.272429 0.156427 -0.105851
C52   C     C_3   0.680906 0.477277 0.171454 0.009179
C53   C     C_3   0.769745 0.522951 0.203571 -0.326206
C54   C     C_3   0.109594 0.269189 0.450001 0.048330
C55   C     C_3   0.151075 0.176313 0.384704 -0.417671
C56   C     C_1   0.825424 0.505375 0.500685 0.005217
C57   C     C_3   0.849562 0.265192 0.458220 -0.078630
C58   C     C_3   0.934659 0.311143 0.235306 0.016464
C59   C     C_3   0.862433 0.263880 0.153280 -0.416924
C60   C     C_3   0.158363 0.719251 0.645259 -0.117038
C61   C     C_3   0.132202 0.755878 0.407938 -0.099460
C62   C     C_3   0.844276 0.725754 0.504478 -0.109129
C63   C     C_1   0.176589 0.503161 0.517202 0.011000
C64   C     C_1   0.251613 0.500671 0.510609 -0.003726
C65   C     C_R   0.495432 0.812173 0.531382 -0.042327
Cu1   Cu    Cu3+1 0.506190 0.507730 0.615930 1.032574
Cu2   Cu    Cu3+1 0.493810 0.492270 0.384070 1.073549
H1    H     H_    0.080496 0.546152 0.703454 0.102125
H2    H     H_    0.980532 0.760277 0.347465 0.155080
H3    H     H_    0.884858 0.712883 0.276138 0.097006
H4    H     H_    0.951056 0.609288 0.117636 0.128498
H5    H     H_    0.997600 0.741195 0.139059 0.071281
H6    H     H_    0.053582 0.638920 0.186209 0.190807
H7    H     H_    0.665623 0.763987 0.448450 0.070850
H8    H     H_    0.682888 0.889933 0.401065 0.085900
H9    H     H_    0.686647 0.770888 0.301196 0.177471
H10   H     H_    0.350881 0.904799 0.823742 0.174222
H11   H     H_    0.462667 0.888919 0.838554 0.118362
H12   H     H_    0.336998 0.416097 0.001541 0.134438
H13   H     H_    0.424805 0.701878 0.859731 0.172033
H14   H     H_    0.376013 0.793170 0.966174 0.070754
H15   H     H_    0.315066 0.723870 0.843746 0.158009
H16   H     H_    0.441871 0.995805 0.160496 0.119408
H17   H     H_    0.432809 0.877869 0.225134 0.128841
H18   H     H_    0.491153 0.881318 0.096810 0.131022
H19   H     H_    0.289353 0.937101 0.636077 0.121861
H20   H     H_    0.312099 0.056548 0.578968 0.109862
H21   H     H_    0.271124 0.059536 0.721182 0.115636
H22   H     H_    0.651219 0.118264 0.234944 0.152152
H23   H     H_    0.050697 0.467465 0.340804 0.191742
H24   H     H_    0.643715 0.255040 0.289045 0.111495
H25   H     H_    0.576493 0.273565 0.098637 0.136302
H26   H     H_    0.680589 0.226199 0.083066 0.076067
H27   H     H_    0.588716 0.137206 0.047758 0.161137
H28   H     H_    0.633027 0.190879 0.662652 0.095293
H29   H     H_    0.581952 0.108033 0.754330 0.135171
H30   H     H_    0.657038 0.261457 0.869836 0.076391
H31   H     H_    0.601118 0.347280 0.795884 0.161314
H32   H     H_    0.544853 0.269186 0.887408 0.138380
H33   H     H_    0.306859 0.321620 0.845339 0.091905
H34   H     H_    0.804599 0.522102 0.729703 0.168042
H35   H     H_    0.408750 0.292077 0.793200 0.196482
H36   H     H_    0.355089 0.295722 0.595063 0.176762
H37   H     H_    0.278102 0.222793 0.664121 0.072060
H38   H     H_    0.262095 0.354379 0.651717 0.139161
H39   H     H_    0.050629 0.422079 0.831973 0.136400
H40   H     H_    0.155953 0.421367 0.775955 0.122667
H41   H     H_    0.131022 0.226871 0.711678 0.129622
H42   H     H_    0.124205 0.266495 0.865355 0.089798
H43   H     H_    0.029296 0.232718 0.777092 0.171450
H44   H     H_    0.633756 0.775261 0.910614 0.159601
H45   H     H_    0.827426 0.428624 0.820445 0.093426
H46   H     H_    0.553332 0.759970 0.799870 0.160172
H47   H     H_    0.663100 0.781771 0.655208 0.144959
H48   H     H_    0.662285 0.892792 0.768902 0.082094
H49   H     H_    0.742738 0.801183 0.769099 0.149066
H50   H     H_    0.755095 0.667343 0.906071 0.159217
H51   H     H_    0.745999 0.536274 0.941574 0.080755
H52   H     H_    0.793106 0.646075 0.038783 0.105737
H53   H     H_    0.410227 0.241756 0.131269 0.145538
H54   H     H_    0.304554 0.261336 0.080355 0.085846
H55   H     H_    0.321345 0.225119 0.218539 0.136339
H56   H     H_    0.778073 0.385843 0.682689 0.115362
H57   H     H_    0.678202 0.445825 0.077627 0.093106
H58   H     H_    0.667267 0.410502 0.216745 0.134536
H59   H     H_    0.771371 0.608968 0.218385 0.169731
H60   H     H_    0.814158 0.496224 0.135157 0.107816
H61   H     H_    0.790636 0.498591 0.283137 0.200580
H62   H     H_    0.053366 0.237476 0.489348 0.226504
H63   H     H_    0.155614 0.307459 0.516968 0.166607
H64   H     H_    0.210201 0.203092 0.346771 0.162109
H65   H     H_    0.166417 0.122171 0.444256 0.074674
H66   H     H_    0.107895 0.134219 0.314974 0.144735
H67   H     H_    0.022304 0.661893 0.836666 0.126653
H68   H     H_    0.855278 0.189828 0.400583 0.092179
H69   H     H_    0.802702 0.309027 0.419350 0.126440
H70   H     H_    0.824083 0.246857 0.539979 0.131362
H71   H     H_    0.958573 0.247176 0.275617 0.182208
H72   H     H_    0.985708 0.341784 0.184298 0.157473
H73   H     H_    0.841384 0.321774 0.102015 0.142073
H74   H     H_    0.883484 0.196153 0.093307 0.098840
H75   H     H_    0.808816 0.237053 0.202454 0.131603
H76   H     H_    0.168747 0.804782 0.671739 0.121637
H77   H     H_    0.207791 0.695137 0.583971 0.143832
H78   H     H_    0.958377 0.546372 0.856940 0.106853
H79   H     H_    0.167919 0.684573 0.723617 0.096581
H80   H     H_    0.199616 0.772486 0.433720 0.112517
H81   H     H_    0.092907 0.809279 0.464288 0.155401
H82   H     H_    0.127411 0.775112 0.320165 0.099970
H83   H     H_    0.806609 0.713923 0.580105 0.150565
H84   H     H_    0.814802 0.677506 0.426293 0.106029
H85   H     H_    0.841255 0.808425 0.494388 0.094260
H86   H     H_    0.914426 0.669875 0.872752 0.112360
N1    N     N_R   0.515490 0.519350 0.790130 -0.240918
N2    N     N_R   0.484510 0.480650 0.209890 -0.223068
O1    O     O_R   0.504390 0.354460 0.582000 -0.473454
O2    O     O_3   0.934655 0.608046 0.704309 -0.544692
O3    O     O_3   0.945634 0.599581 0.344025 -0.570058
O4    O     O_3   0.567565 0.806519 0.350901 -0.476673
O5    O     O_3   0.400662 0.807572 0.687391 -0.562636
O6    O     O_3   0.550678 0.960614 0.243734 -0.516465
O7    O     O_3   0.396199 0.030089 0.707266 -0.547641
O8    O     O_3   0.528785 0.169862 0.259990 -0.545206
O9    O     O_3   0.500796 0.192239 0.671938 -0.516862
O10   O     O_3   0.374845 0.446840 0.794632 -0.537687
O11   O     O_3   0.058432 0.386153 0.653277 -0.542088
O12   O     O_R   0.493940 0.341410 0.386200 -0.457205
O13   O     O_3   0.633205 0.639073 0.786511 -0.536517
O14   O     O_3   0.663557 0.641789 0.026397 -0.536103
O15   O     O_3   0.355598 0.378028 0.209560 -0.515015
O16   O     O_3   0.623792 0.555210 0.204028 -0.481376
O17   O     O_3   0.090425 0.336441 0.372335 -0.584299
O18   O     O_3   0.930742 0.316989 0.480926 -0.521393
O19   O     O_3   0.906356 0.394134 0.316097 -0.578295
O20   O     O_3   0.074208 0.696678 0.601927 -0.532238
O21   O     O_3   0.108426 0.648281 0.403164 -0.575263
O22   O     O_3   0.929129 0.707501 0.526334 -0.500971
O23   O     O_R   0.384660 0.506540 0.597940 -0.456815
O24   O     O_R   0.374210 0.493480 0.402140 -0.442873
O25   O     O_R   0.506060 0.658590 0.613800 -0.465534
O26   O     O_R   0.495610 0.645540 0.418000 -0.449249
O27   O     O_R   0.625790 0.506520 0.597860 -0.469504
O28   O     O_R   0.615340 0.493460 0.402060 -0.485147
O29   O     O_3   0.906163 0.424262 0.683597 -0.509188

loop_
_geom_bond_atom_site_label_1
_geom_bond_atom_site_label_2
_ccdc_geom_bond_type
C58   H72   S    
C30   O2    S    
C13   H12   S    
C29   O29   S    
C14   N2    A    
C50   H50   S    
C41   C42   S    
C29   H45   S    
C35   C36   S    
C62   H83   S    
C40   H26   S    
C14   O15   S    
C62   O22   S    
C44   H37   S    
C23   C56   S    
C32   H5    S    
C2    C6    A    
C44   H38   S    
C25   C28   S    
C7    C11   A    
Cu1   O23   S    
C12   C23   S    
C25   H23   S    
C62   H85   S    
C13   C18   A    
C38   H19   S    
C5    O8    S    
C37   H18   S    
C61   H81   S    
C18   C19   A    
C45   O20   S    
C60   H76   S    
C41   H29   S    
C9    O4    S    
C46   H39   S    
Cu2   O28   S    
Cu2   N2    S    
C1    C2    S    
C23   C26   S    
C41   H28   S    
C35   O5    S    
Cu2   O26   S    
C46   C47   S    
C33   H8    S    
C30   H86   S    
C59   H75   S    
C36   H15   S    
C8    C9    A    
C30   H67   S    
C57   H69   S    
C12   O2    S    
C53   H60   S    
C15   N2    A    
C58   H71   S    
C49   H47   S    
Cu1   O27   S    
C50   H51   S    
C13   C14   A    
C58   O19   S    
C61   O21   S    
C60   H79   S    
C54   H63   S    
C52   O16   S    
C39   H24   S    
C44   H36   S    
C51   H53   S    
C32   H4    S    
C43   O10   S    
C20   O13   S    
C28   C45   S    
C62   H84   S    
C15   O16   S    
C50   H52   S    
C54   O17   S    
C7    C8    A    
C43   H33   S    
C3    C8    A    
C36   H13   S    
C45   O21   S    
C4    O23   A    
C32   H6    S    
Cu1   N1    S    
C3    O6    S    
C27   C56   T    
C19   N1    A    
C26   O18   S    
C25   C26   S    
C47   H42   S    
Cu1   O25   S    
C35   H10   S    
C11   O7    S    
C17   C21   A    
C38   H21   S    
C1    O1    A    
C24   O11   S    
C43   C44   S    
C22   O28   A    
C29   H34   S    
C53   H61   S    
C33   H9    S    
C31   C32   S    
C48   O13   S    
C38   O7    S    
C36   H14   S    
C23   C34   S    
C46   H40   S    
C48   H44   S    
C17   C18   A    
C57   H70   S    
C53   H59   S    
C37   H17   S    
C34   C45   S    
C1    O12   A    
C40   H25   S    
C20   N1    A    
C57   O18   S    
C34   O3    S    
C25   O17   S    
C48   C49   S    
C49   H48   S    
C6    O9    S    
C55   H65   S    
C55   H64   S    
C22   C27   S    
C51   H54   S    
C42   H30   S    
C2    C5    A    
C4    O24   A    
C39   O8    S    
C10   O5    S    
C39   C40   S    
C52   C53   S    
C30   H78   S    
C37   O6    S    
C10   C65   A    
Cu2   O12   S    
C51   H55   S    
C54   H62   S    
C4    C64   S    
C54   C55   S    
C46   O11   S    
C16   O26   A    
C51   O15   S    
C37   H16   S    
C24   C28   S    
C40   H27   S    
C3    C5    A    
C52   H58   S    
C15   C17   A    
C6    C7    A    
C47   H43   S    
C12   C24   S    
C35   H11   S    
C38   H20   S    
C31   H3    S    
C42   H31   S    
C58   C59   S    
C43   H35   S    
C22   O27   A    
C55   H66   S    
C42   H32   S    
C60   H77   S    
Cu1   O1    S    
C52   H57   S    
C12   O29   S    
C59   H73   S    
C21   O14   S    
C29   H56   S    
Cu1   Cu2   S    
C50   O14   S    
C61   H80   S    
C9    C65   A    
C31   O3    S    
C10   C11   A    
C24   H1    S    
C63   C64   T    
C28   C63   S    
C16   O25   A    
C33   H7    S    
C31   H2    S    
C49   H49   S    
C20   C21   A    
C59   H74   S    
C47   H41   S    
C41   O9    S    
C60   O20   S    
C26   O19   S    
C57   H68   S    
C34   O22   S    
Cu2   O24   S    
C16   C65   S    
C19   O10   S    
C61   H82   S    
C39   H22   S    
C33   O4    S    
C48   H46   S    
