data_mof_unit_31904.cif
_audit_creation_date              2012-12-10T19:15:11-0500
_audit_creation_method            fapswitch 2.2
_symmetry_space_group_name_H-M    P1
_symmetry_Int_Tables_number       1
_space_group_crystal_system       triclinic
_cell_length_a                    10.641336
_cell_length_b                    9.680542
_cell_length_c                    23.432267
_cell_angle_alpha                 90.236367
_cell_angle_beta                  89.907774
_cell_angle_gamma                 89.923472
_cell_volume                      2413.82336942

loop_
_atom_site_label
_atom_site_type_symbol
_atom_type_description
_atom_site_fract_x
_atom_site_fract_y
_atom_site_fract_z
_atom_type_partial_charge
C1    C     C_R   0.257695 0.500358 0.500698 0.911304
C2    C     C_R   0.297527 0.437050 0.969161 -0.122520
C3    C     C_R   0.296743 0.432580 0.028392 -0.140723
C4    C     C_R   0.405693 0.465056 0.059170 -0.007124
C5    C     C_R   0.516317 0.503404 0.030053 -0.018322
C6    C     C_R   0.625571 0.536659 0.060884 -0.120720
C7    C     C_R   0.734769 0.576066 0.031810 -0.142341
C8    C     C_R   0.736671 0.584545 0.972458 0.460684
C9    C     C_R   0.406967 0.460500 0.118670 0.522707
C10   C     C_R   0.621901 0.532084 0.120486 0.552530
C11   C     C_R   0.565791 0.385477 0.239909 0.523306
C12   C     C_R   0.497527 0.499708 0.389318 0.935382
C13   C     C_R   0.559190 0.390033 0.299081 -0.216328
C14   C     C_R   0.496187 0.498063 0.327194 -0.265647
C15   C     C_R   0.436464 0.603203 0.295317 0.422801
C16   C     C_R   0.447857 0.601647 0.236315 -0.118313
C17   C     C_R   0.510678 0.493837 0.208492 0.082035
C18   C     C_R   0.535953 0.379113 0.761769 0.507669
C19   C     C_R   0.528660 0.378863 0.702602 -0.208016
C20   C     C_R   0.506308 0.501530 0.672892 -0.228859
C21   C     C_R   0.491278 0.626102 0.702658 -0.179784
C22   C     C_R   0.496707 0.629493 0.761804 0.490504
C23   C     C_R   0.742576 0.500156 0.500503 0.978421
C24   C     C_R   0.519030 0.505139 0.791705 0.050196
C25   C     C_3   0.071984 0.651482 0.507047 -0.467829
C26   C     C_3   0.073008 0.414142 0.551704 -0.354453
C27   C     C_3   0.928889 0.652093 0.509148 0.249192
C28   C     C_3   0.928621 0.408574 0.550916 0.264703
C29   C     C_3   0.074478 0.439027 0.443882 -0.539982
C30   C     C_3   0.121624 0.501245 0.500865 -0.043216
C31   C     C_3   0.879131 0.500693 0.500947 -0.033478
C32   C     C_3   0.928608 0.439545 0.442688 0.688302
C33   C     C_3   0.379610 0.081303 0.476666 -0.231277
C34   C     C_3   0.379531 0.918605 0.476760 -0.238875
C35   C     C_3   0.602049 0.080903 0.462455 -0.219933
C36   C     C_3   0.601906 0.918125 0.462371 -0.236125
C37   C     C_3   0.517733 0.081765 0.557021 -0.236064
C38   C     C_3   0.517904 0.919263 0.557007 -0.220103
C39   C     C_R   0.501113 0.500324 0.610747 0.935261
C40   C     C_R   0.627883 0.537212 0.880674 0.517405
C41   C     C_R   0.410137 0.475647 0.880328 0.524076
C42   C     C_R   0.407447 0.473401 0.939708 -0.002668
C43   C     C_R   0.517607 0.507652 0.970070 -0.062621
C44   C     C_R   0.628764 0.545035 0.940658 -0.145208
H1    H     H_    0.541616 0.282133 0.679883 0.185133
H2    H     H_    0.473981 0.721657 0.680040 0.185349
H3    H     H_    0.103621 0.714971 0.470165 0.147262
H4    H     H_    0.110668 0.306882 0.549257 0.142451
H5    H     H_    0.893485 0.718795 0.473924 0.078673
H6    H     H_    0.900561 0.298742 0.543656 0.117248
H7    H     H_    0.113981 0.497985 0.407319 0.170952
H8    H     H_    0.110536 0.331444 0.439223 0.199612
H9    H     H_    0.299900 0.119306 0.503187 0.152029
H10   H     H_    0.299997 0.881654 0.503447 0.148175
H11   H     H_    0.694581 0.118601 0.477972 0.185547
H12   H     H_    0.694491 0.880170 0.477683 0.153150
H13   H     H_    0.818731 0.604608 0.055141 0.216936
H14   H     H_    0.403879 0.682566 0.211500 0.187832
N1    N     N_R   0.519202 0.506006 0.852494 -0.376378
N2    N     N_R   0.513852 0.494068 0.147758 -0.356644
N3    N     N_3   0.499750 0.138610 0.498760 -0.049950
N4    N     N_3   0.499750 0.861390 0.498760 -0.047967
O1    O     O_R   0.314910 0.616040 0.499990 -0.643943
O2    O     O_R   0.314910 0.383960 0.499990 -0.638124
O3    O     O_R   0.500080 0.616070 0.416130 -0.611627
O4    O     O_R   0.500080 0.383930 0.416130 -0.620909
O5    O     O_R   0.685320 0.616040 0.499970 -0.607875
O6    O     O_R   0.685320 0.383960 0.499970 -0.621923
O7    O     O_R   0.500150 0.616010 0.583820 -0.623555
O8    O     O_R   0.500150 0.383990 0.583820 -0.645532
O9    O     O_2   0.734136 0.557107 0.850369 -0.489538
O10   O     O_2   0.305192 0.446474 0.850315 -0.511942
O11   O     O_2   0.302542 0.422853 0.147444 -0.532514
O12   O     O_2   0.724820 0.565769 0.151101 -0.517206
Zn1   Zn    Zn3+2 0.500150 0.654960 0.499970 0.937581
Zn2   Zn    Zn3+2 0.500150 0.345040 0.499970 0.924016
H15   H     H_    0.212022 0.410923 0.946556 0.210477
O13   O     O_3   0.478465 0.755616 0.788427 -0.718491
H16   H     H_    0.482560 0.744667 0.830311 0.346327
H17   H     H_    0.110808 0.700136 0.546432 0.221890
H18   H     H_    0.107134 0.459802 0.592541 0.222007
O14   O     O_3   0.887328 0.708211 0.561440 -0.675437
H19   H     H_    0.897592 0.809965 0.558892 0.321451
O15   O     O_3   0.881298 0.452646 0.604115 -0.674238
H20   H     H_    0.797450 0.409411 0.609046 0.325077
O16   O     O_3   0.882035 0.516866 0.396138 -0.763192
H21   H     H_    0.929724 0.604430 0.393136 0.313970
O17   O     O_3   0.886325 0.302369 0.436499 -0.790715
H22   H     H_    0.908018 0.271629 0.397199 0.367317
H23   H     H_    0.362658 0.119692 0.432655 0.161493
H24   H     H_    0.362227 0.879132 0.432826 0.174796
H25   H     H_    0.210659 0.403454 0.049918 0.203580
H26   H     H_    0.592050 0.119259 0.418015 0.170193
H27   H     H_    0.591485 0.879282 0.417897 0.181779
H28   H     H_    0.607636 0.120590 0.575169 0.150869
H29   H     H_    0.607968 0.880701 0.575050 0.174701
H30   H     H_    0.441702 0.119947 0.585679 0.163204
H31   H     H_    0.442080 0.881624 0.585715 0.154699
O18   O     O_3   0.844554 0.634574 0.947575 -0.699969
H32   H     H_    0.818593 0.706139 0.919861 0.373697
O19   O     O_3   0.626094 0.274187 0.214885 -0.725698
H33   H     H_    0.616502 0.278360 0.172951 0.346128
H34   H     H_    0.604469 0.308725 0.323240 0.200221
O20   O     O_3   0.364220 0.706416 0.319566 -0.750192
H35   H     H_    0.326268 0.670998 0.355209 0.327296
O21   O     O_3   0.558905 0.254541 0.788411 -0.715725
H36   H     H_    0.567316 0.268988 0.830031 0.350215

loop_
_geom_bond_atom_site_label_1
_geom_bond_atom_site_label_2
_ccdc_geom_bond_type
O19   H33   S    
C40   O9    S    
C28   O15   S    
C25   H17   S    
C10   O12   S    
C41   C42   A    
C19   C20   A    
C38   H31   S    
C37   H30   S    
C7    C8    A    
C37   C38   S    
C18   C24   A    
C8    O18   S    
C29   C32   S    
C5    C6    A    
O21   H36   S    
C15   C16   A    
C32   O17   S    
C34   N4    S    
C37   H28   S    
C18   C19   A    
C23   O5    A    
C34   H24   S    
C28   H6    S    
C31   C32   S    
C16   C17   A    
C15   O20   S    
C13   H34   S    
C25   H3    S    
C26   H4    S    
C5    C43   A    
C32   O16   S    
C40   N1    A    
C21   C22   A    
C9    O11   S    
C36   N4    S    
C1    O1    A    
O20   H35   S    
C35   H26   S    
N3    Zn2   S    
C33   H9    S    
C27   C31   S    
O15   H20   S    
C22   O13   S    
C11   O19   S    
C20   C39   S    
O13   H16   S    
C12   O4    A    
C35   H11   S    
C3    H25   S    
C35   C36   S    
C23   C31   S    
C23   O6    A    
C10   N2    A    
C43   C44   A    
C18   O21   S    
C29   C30   S    
C36   H12   S    
O18   H32   S    
O4    Zn2   S    
C33   C34   S    
O2    Zn2   S    
C35   N3    S    
C16   H14   S    
C20   C21   A    
C41   N1    A    
C41   O10   S    
C12   C14   S    
C34   H10   S    
C26   H18   S    
C28   C31   S    
O8    Zn2   S    
C22   C24   A    
N4    Zn1   S    
C25   C27   S    
C42   C43   A    
C3    C4    A    
C1    O2    A    
C21   H2    S    
C29   H7    S    
C25   C30   S    
C11   C17   A    
O16   H21   S    
C27   O14   S    
C8    C44   A    
C4    C5    A    
C6    C10   A    
C37   N3    S    
C19   H1    S    
C26   C30   S    
C6    C7    A    
O6    Zn2   S    
C12   O3    A    
C26   C28   S    
O3    Zn1   S    
C9    N2    A    
C2    C3    A    
C2    H15   S    
C33   H23   S    
C11   C13   A    
O1    Zn1   S    
C2    C42   A    
C24   N1    S    
C1    C30   S    
C39   O7    A    
C39   O8    A    
O7    Zn1   S    
C17   N2    S    
C36   H27   S    
C40   C44   A    
O5    Zn1   S    
O17   H22   S    
C33   N3    S    
O14   H19   S    
C38   H29   S    
C14   C15   A    
C4    C9    A    
C13   C14   A    
C7    H13   S    
C27   H5    S    
C38   N4    S    
C29   H8    S    
