data_mof_unit_63209.cif
_audit_creation_date              2013-03-05T16:38:58-0500
_audit_creation_method            fapswitch 2.2
_symmetry_space_group_name_H-M    P1
_symmetry_Int_Tables_number       1
_space_group_crystal_system       triclinic
_cell_length_a                    16.029372
_cell_length_b                    14.768316
_cell_length_c                    23.66978
_cell_angle_alpha                 89.998637
_cell_angle_beta                  89.963396
_cell_angle_gamma                 90.003063
_cell_volume                      5603.27085627

loop_
_atom_site_label
_atom_site_type_symbol
_atom_site_description
_atom_site_fract_x
_atom_site_fract_y
_atom_site_fract_z
_atom_type_partial_charge
O1    O     O_R   0.380310 0.575320 0.500010 -0.563406
O2    O     O_R   0.619690 0.424680 0.499990 -0.563482
O3    O     O_R   0.619690 0.575320 0.499990 -0.563512
O4    O     O_R   0.380310 0.424680 0.500010 -0.563552
C1    C     C_R   0.340994 0.499999 0.499997 0.828887
C2    C     C_R   0.659006 0.500002 0.499996 0.828832
O5    O     O_R   0.499980 0.575360 0.417880 -0.569123
O6    O     O_R   0.500020 0.424640 0.582120 -0.574610
O7    O     O_R   0.500020 0.575360 0.582120 -0.569154
O8    O     O_R   0.499980 0.424640 0.417880 -0.574484
C3    C     C_R   0.499522 0.500022 0.390604 0.810271
C4    C     C_R   0.500484 0.500020 0.609421 0.810088
Cu1   Cu    Cu3+1 0.500000 0.589220 0.500000 1.031334
Cu2   Cu    Cu3+1 0.500000 0.410780 0.500000 1.029744
C5    C     C_R   0.576121 0.498576 0.881491 0.634761
C6    C     C_R   0.423788 0.496262 0.118650 0.634756
N1    N     N_R   0.502769 0.504072 0.852593 -0.454701
N2    N     N_R   0.496980 0.504117 0.147520 -0.454685
C7    C     C_R   0.428039 0.512172 0.879730 0.616398
C8    C     C_R   0.571453 0.514598 0.120380 0.616212
C9    C     C_R   0.424065 0.510182 0.939482 -0.077844
C10   C     C_R   0.575451 0.512960 0.060623 -0.077970
C11   C     C_R   0.500219 0.508910 0.970122 -0.037042
C12   C     C_R   0.499361 0.508924 0.029994 -0.036880
C13   C     C_R   0.577321 0.507170 0.940823 -0.117876
C14   C     C_R   0.422341 0.504448 0.059293 -0.117796
C15   C     C_R   0.347226 0.510194 0.969432 -0.166320
C16   C     C_R   0.652231 0.516007 0.030651 -0.166265
C17   C     C_R   0.346474 0.506949 0.028723 0.299322
C18   C     C_R   0.653065 0.512750 0.971358 0.299411
O9    O     O_2   0.647183 0.483487 0.852411 -0.438496
O10   O     O_2   0.353153 0.479266 0.147796 -0.438506
O11   O     O_2   0.358337 0.521830 0.848428 -0.508647
O12   O     O_2   0.640895 0.526213 0.151692 -0.508700
C19   C     C_R   0.530266 0.427288 0.237136 0.347452
C20   C     C_R   0.471221 0.426460 0.762950 0.347285
C21   C     C_R   0.533016 0.427219 0.296606 -0.194464
C22   C     C_R   0.468467 0.426353 0.703477 -0.194562
C23   C     C_R   0.498082 0.500331 0.327685 -0.177945
C24   C     C_R   0.501896 0.500324 0.672383 -0.178526
C25   C     C_R   0.461517 0.573905 0.297995 -0.102342
C26   C     C_R   0.536924 0.574761 0.702129 -0.102420
C27   C     C_R   0.462254 0.575143 0.238637 -0.082782
C28   C     C_R   0.536038 0.575983 0.761488 -0.083265
C29   C     C_R   0.495575 0.501697 0.208364 0.184289
C30   C     C_R   0.504272 0.501714 0.791744 0.184282
C31   C     C_R   0.956129 0.582849 0.499848 -0.068169
C32   C     C_R   0.043871 0.417164 0.500111 -0.068391
C33   C     C_R   0.043880 0.582848 0.499796 -0.068204
C34   C     C_R   0.956120 0.417165 0.500121 -0.068399
C35   C     C_R   0.912503 0.500008 0.499998 0.035555
C36   C     C_R   0.087497 0.500005 0.499944 0.035538
C37   C     C_1   0.822618 0.500008 0.500009 -0.011519
C38   C     C_1   0.177382 0.500003 0.499950 -0.011564
C39   C     C_1   0.252205 0.499999 0.499969 -0.124299
C40   C     C_1   0.747795 0.500007 0.500007 -0.124276
C41   C     C_R   0.571035 0.951808 0.518066 -0.054690
C42   C     C_R   0.428937 0.048172 0.481991 -0.051542
C43   C     C_R   0.428954 0.951803 0.481959 -0.054805
C44   C     C_R   0.571050 0.048177 0.518036 -0.051573
C45   C     C_R   0.499995 0.902813 0.500010 -0.065743
C46   C     C_R   0.499995 0.097173 0.500011 -0.061381
C47   C     C_1   0.499998 0.802489 0.500004 0.193597
C48   C     C_1   0.499998 0.197507 0.500005 0.197222
N3    N     N_1   0.500000 0.276710 0.500000 -0.142232
N4    N     N_1   0.500000 0.723290 0.500000 -0.141170
C49   C     C_1   0.267245 0.513476 0.940824 0.486392
N5    N     N_1   0.203217 0.516075 0.918285 -0.142340
C50   C     C_1   0.732040 0.522814 0.059235 0.486223
N6    N     N_1   0.795930 0.528246 0.081759 -0.142781
N7    N     N_R   0.267725 0.511186 0.057581 0.157880
O13   O     O_R   0.245105 0.585679 0.082622 -0.275778
O14   O     O_R   0.215499 0.443968 0.054180 -0.268760
N8    N     N_R   0.731556 0.520451 0.942446 0.157689
O15   O     O_R   0.750909 0.595508 0.916808 -0.276284
O16   O     O_R   0.786599 0.455998 0.946255 -0.269032
N9    N     N_R   0.562753 0.351894 0.205470 0.135177
O17   O     O_R   0.518809 0.315602 0.165194 -0.303523
O18   O     O_R   0.637988 0.322348 0.214730 -0.290840
N10   N     N_R   0.440416 0.350213 0.794599 0.134980
O19   O     O_R   0.485214 0.314971 0.834806 -0.303624
O20   O     O_R   0.365782 0.318845 0.785429 -0.291074
C51   C     C_1   0.571820 0.351180 0.325039 0.404293
N11   N     N_1   0.602833 0.290418 0.347691 -0.217250
C52   C     C_1   0.431263 0.349323 0.675099 0.405670
N12   N     N_1   0.401523 0.287763 0.652500 -0.217591
C53   C     C_1   0.420512 0.647522 0.327751 0.321322
N13   N     N_1   0.387736 0.706248 0.351355 -0.230069
C54   C     C_1   0.576489 0.649410 0.672471 0.322860
N14   N     N_1   0.608117 0.708971 0.648958 -0.230704
C55   C     C_1   0.429653 0.652617 0.208115 0.330178
N15   N     N_1   0.403656 0.714368 0.183709 -0.194334
C56   C     C_1   0.566875 0.654289 0.792034 0.330536
N16   N     N_1   0.591468 0.716698 0.816459 -0.193376
C57   C     C_1   0.089281 0.667904 0.499586 0.290756
N17   N     N_1   0.125521 0.735685 0.499418 -0.210634
C58   C     C_1   0.910721 0.332108 0.500249 0.292941
N18   N     N_1   0.874482 0.264325 0.500345 -0.207446
C59   C     C_1   0.910738 0.667908 0.499755 0.290744
N19   N     N_1   0.874505 0.735690 0.499682 -0.210862
C60   C     C_1   0.089261 0.332105 0.500282 0.292867
N20   N     N_1   0.125492 0.264323 0.500423 -0.207620
C61   C     C_1   0.644514 0.097078 0.536628 0.278092
N21   N     N_1   0.703124 0.136166 0.551459 -0.207819
C62   C     C_1   0.355540 0.902897 0.463270 0.282228
N22   N     N_1   0.296972 0.863812 0.448360 -0.199770
C63   C     C_1   0.355467 0.097068 0.463409 0.277990
N23   N     N_1   0.296853 0.136152 0.448587 -0.207890
C64   C     C_1   0.644449 0.902906 0.536754 0.282778
N24   N     N_1   0.703016 0.863823 0.551663 -0.200120

loop_
_geom_bond_atom_site_label_1
_geom_bond_atom_site_label_2
_geom_bond_distance
_ccdc_geom_bond_type
C42   C46   1.415460 A    
C53   N13   1.157599 T    
C56   N16   1.157316 T    
C15   C17   1.404266 A    
C57   N17   1.157335 T    
O3    C2    1.278468 A    
C58   N18   1.157335 T    
C23   C25   1.420766 A    
N9    O17   1.301196 A    
O5    C3    1.286406 A    
C60   N20   1.157339 T    
N8    O16   1.301074 A    
C51   N11   1.157673 T    
O1    C1    1.278453 A    
C19   C21   1.408370 A    
C12   C14   1.417181 A    
C18   N8    1.436358 S    
C5    C13   1.410254 A    
C31   C59   1.451708 S    
C44   C46   1.415468 A    
C42   C63   1.450032 S    
C41   C45   1.415434 A    
C45   C47   1.481624 S    
O7    Cu1   1.954505 S    
C46   C48   1.481767 S    
C28   C56   1.450827 S    
C7    O11   1.348590 S    
C41   C64   1.450103 S    
C16   C50   1.451048 S    
C28   C30   1.405219 A    
C63   N23   1.157344 T    
C20   C30   1.407398 A    
C44   C61   1.450011 S    
O3    Cu1   1.929517 S    
C8    O12   1.348611 S    
C32   C34   1.406592 A    
C9    C15   1.420725 A    
C47   N4    1.169630 T    
C10   C16   1.420877 A    
Cu1   Cu2   2.635257 S    
C25   C27   1.405133 A    
O2    C2    1.278469 A    
C26   C28   1.405201 A    
C36   C38   1.440807 S    
Cu1   N4    1.979990 S    
N9    O18   1.301231 A    
C6    C14   1.410376 A    
C25   C53   1.452447 S    
C43   C45   1.415442 A    
N8    O15   1.301115 A    
C22   C52   1.449632 S    
C49   N5    1.157652 T    
N1    C30   1.440892 S    
C31   C33   1.406598 A    
C20   N10   1.439584 S    
C55   N15   1.157311 T    
N7    O14   1.301051 A    
O4    C1    1.278482 A    
C41   C44   1.423201 A    
C31   C35   1.409152 A    
C42   C43   1.423196 A    
C52   N12   1.157684 T    
C19   N9    1.439547 S    
C27   C55   1.450731 S    
C35   C37   1.440806 S    
C4    C24   1.490490 S    
C24   C26   1.421243 A    
C59   N19   1.157340 T    
C32   C36   1.409151 A    
O6    C4    1.287231 A    
C33   C36   1.409160 A    
C34   C35   1.409160 A    
C43   C62   1.450083 S    
C33   C57   1.451697 S    
C3    C23   1.489477 S    
C27   C29   1.405294 A    
N10   O20   1.301233 A    
C8    C10   1.416071 A    
C9    C11   1.420409 A    
O8    Cu2   1.954505 S    
C10   C12   1.420525 A    
O1    Cu1   1.929497 S    
C19   C29   1.407512 A    
N2    C29   1.440773 S    
C37   C40   1.199356 T    
C13   C18   1.415764 A    
C5    N1    1.363059 A    
C38   C39   1.199355 T    
C34   C58   1.451695 S    
O6    Cu2   1.954515 S    
C7    C9    1.416033 A    
C1    C39   1.423241 S    
C2    C40   1.423240 S    
N10   O19   1.301202 A    
C5    O9    1.349069 S    
C6    O10   1.349023 S    
C62   N22   1.157346 T    
C26   C54   1.452480 S    
C48   N3    1.169691 T    
C20   C22   1.408427 A    
N7    O13   1.301103 A    
C21   C23   1.421313 A    
C64   N24   1.157351 T    
C22   C24   1.421840 A    
C32   C60   1.451706 S    
C16   C18   1.404335 A    
N1    C7    1.364118 A    
Cu2   N3    1.979990 S    
N2    C8    1.364065 A    
C11   C13   1.417014 A    
O4    Cu2   1.929519 S    
C50   N6    1.157654 T    
O2    Cu2   1.929495 S    
O7    C4    1.286696 A    
C15   C49   1.451084 S    
O8    C3    1.286943 A    
C11   C12   1.417208 A    
O5    Cu1   1.954515 S    
C14   C17   1.415962 A    
C6    N2    1.363045 A    
C61   N21   1.157340 T    
C21   C51   1.449629 S    
C54   N14   1.157611 T    
C17   N7    1.436245 S    
