data_mof_unit_55393.cif
_audit_creation_date              2012-10-26T21:14:22-0400
_audit_creation_method            fapswitch 2.2
_symmetry_space_group_name_H-M    P1
_symmetry_Int_Tables_number       1
_space_group_crystal_system       triclinic
_cell_length_a                    11.033517
_cell_length_b                    19.363783
_cell_length_c                    18.136924
_cell_angle_alpha                 90.079731
_cell_angle_beta                  103.274588
_cell_angle_gamma                 90.038434
_cell_volume                      3771.42368103

loop_
_atom_site_label
_atom_site_type_symbol
_atom_type_description
_atom_site_fract_x
_atom_site_fract_y
_atom_site_fract_z
_atom_type_partial_charge
C1    C     C_R   0.500264 0.367598 0.499939 0.546047
C2    C     C_R   0.532805 0.927271 0.503962 -0.016803
C3    C     C_R   0.571959 0.454636 0.731785 0.016376
C4    C     C_R   0.595403 0.529689 0.291753 0.012854
C5    C     C_R   0.571985 0.454635 0.809024 -0.165063
C6    C     C_R   0.595897 0.530247 0.214641 -0.172334
C7    C     C_R   0.499913 0.502829 0.838166 0.041354
C8    C     C_R   0.497046 0.500640 0.161089 0.041519
C9    C     C_R   0.428954 0.551533 0.788183 0.232280
C10   C     C_R   0.398009 0.469738 0.186845 0.240584
C11   C     C_R   0.427856 0.546882 0.709753 0.041689
C12   C     C_R   0.500580 0.632240 0.500205 0.543824
C13   C     C_R   0.402544 0.470754 0.266033 0.049781
C14   C     C_R   0.525742 0.562298 0.964676 -0.104712
C15   C     C_R   0.475724 0.440979 0.034920 -0.105333
C16   C     C_R   0.262260 0.499843 0.469045 0.559418
C17   C     C_R   0.737747 0.500972 0.531025 0.559005
C18   C     C_R   0.520442 0.563584 0.041488 0.250213
C19   C     C_R   0.470897 0.441019 0.956698 0.249439
C20   C     C_R   0.498071 0.501946 0.078230 0.010105
C21   C     C_R   0.499226 0.501862 0.920918 0.009288
C22   C     C_2   0.126534 0.500983 0.450546 0.217910
C23   C     C_R   0.506113 0.707248 0.501760 -0.028757
C24   C     C_2   0.873627 0.501676 0.549915 0.217402
C25   C     C_2   0.067616 0.501696 0.507471 -0.130615
C26   C     C_2   0.932859 0.507446 0.493525 -0.131368
C27   C     C_R   0.416417 0.745840 0.451647 -0.121091
C28   C     C_R   0.438962 0.254018 0.543321 -0.117110
C29   C     C_R   0.420164 0.817940 0.454569 0.306906
C30   C     C_R   0.441638 0.181881 0.542063 0.313000
C31   C     C_R   0.520580 0.851464 0.504217 0.042137
C32   C     C_R   0.519432 0.147834 0.501430 0.032289
C33   C     C_R   0.609318 0.812172 0.554759 -0.191192
C34   C     C_R   0.504703 0.292258 0.499835 -0.034614
C35   C     C_R   0.584494 0.186664 0.457808 -0.192087
C36   C     C_R   0.600895 0.740478 0.554342 -0.155588
C37   C     C_R   0.575622 0.258268 0.456098 -0.151376
C38   C     C_3   0.344697 0.664141 0.782262 -0.015658
C39   C     C_3   0.470179 0.701841 0.791152 -0.275871
C40   C     C_3   0.452889 0.772021 0.751956 -0.477347
C41   C     C_3   0.229633 0.390557 0.155967 -0.012922
C42   C     C_3   0.308004 0.324443 0.173559 -0.282290
C43   C     C_3   0.232851 0.266155 0.197977 -0.480645
C44   C     C_3   0.426809 0.656131 0.083942 0.015120
C45   C     C_R   0.552642 0.963829 0.572441 -0.170589
C46   C     C_3   0.376165 0.700230 0.013387 -0.280390
C47   C     C_3   0.260464 0.740277 0.020648 -0.484854
C48   C     C_3   0.314849 0.380449 0.878134 0.017227
C49   C     C_3   0.233936 0.350204 0.928566 -0.277452
C50   C     C_3   0.098368 0.343430 0.885536 -0.482430
C51   C     C_3   0.949498 0.549954 0.665902 -0.002024
C52   C     C_3   0.032495 0.536725 0.744442 -0.247110
C53   C     C_3   0.038321 0.599763 0.795695 -0.468390
C54   C     C_3   0.034864 0.441605 0.344084 0.001180
C55   C     C_3   0.950195 0.449060 0.265029 -0.253108
C56   C     C_R   0.519476 0.035398 0.435598 -0.173891
C57   C     C_3   0.910008 0.378857 0.229354 -0.493799
C58   C     C_3   0.233794 0.870287 0.446901 0.006761
C59   C     C_3   0.137987 0.918734 0.398921 -0.242747
C60   C     C_3   0.033732 0.936130 0.438494 -0.504881
C61   C     C_3   0.264713 0.117615 0.536473 0.015696
C62   C     C_3   0.153931 0.166046 0.533303 -0.273701
C63   C     C_3   0.032299 0.133238 0.490260 -0.493309
C64   C     C_3   0.709315 0.096296 0.657280 0.021433
C65   C     C_3   0.804229 0.041091 0.693069 -0.285180
C66   C     C_3   0.936025 0.070615 0.713413 -0.483123
C67   C     C_R   0.559914 0.035764 0.573168 0.300325
C68   C     C_3   0.641574 0.914590 0.361873 0.007590
C69   C     C_3   0.636592 0.870521 0.291344 -0.244911
C70   C     C_3   0.767158 0.852827 0.282195 -0.488583
C71   C     C_R   0.525151 0.963488 0.435682 0.293028
C72   C     C_R   0.533334 0.072046 0.503759 -0.024408
Cu1   Cu    Cu3+1 0.499960 0.500000 0.573360 0.917349
Cu2   Cu    Cu3+1 0.500040 0.500000 0.426640 0.928222
H1    H     H_    0.548922 0.609351 0.938837 0.144019
H2    H     H_    0.671684 0.553516 0.331885 0.134438
H3    H     H_    0.880738 0.515963 0.435709 0.151029
H4    H     H_    0.120053 0.497480 0.565845 0.160807
H5    H     H_    0.629164 0.417572 0.846120 0.138608
H6    H     H_    0.673729 0.553595 0.196887 0.142741
H7    H     H_    0.285866 0.696161 0.811056 0.146631
H8    H     H_    0.292008 0.661372 0.722380 0.112685
H9    H     H_    0.512806 0.709497 0.852338 0.154430
H10   H     H_    0.535513 0.671039 0.766091 0.157388
H11   H     H_    0.413026 0.765437 0.690269 0.151213
H12   H     H_    0.459954 0.392913 0.061663 0.145610
H13   H     H_    0.544471 0.798278 0.759717 0.146943
H14   H     H_    0.389983 0.805057 0.776641 0.143041
H15   H     H_    0.149662 0.378680 0.108030 0.154939
H16   H     H_    0.186297 0.405985 0.202845 0.117518
H17   H     H_    0.339186 0.308078 0.122143 0.157950
H18   H     H_    0.391813 0.333793 0.219706 0.155326
H19   H     H_    0.203979 0.280710 0.250702 0.140810
H20   H     H_    0.290924 0.218843 0.209171 0.151180
H21   H     H_    0.148823 0.254710 0.152638 0.144235
H22   H     H_    0.369909 0.580153 0.668735 0.122513
H23   H     H_    0.341526 0.720124 0.411942 0.127800
H24   H     H_    0.328719 0.449145 0.288482 0.122622
H25   H     H_    0.444237 0.690274 0.134569 0.157409
H26   H     H_    0.355381 0.617795 0.092028 0.145699
H27   H     H_    0.448992 0.737233 0.005198 0.170509
H28   H     H_    0.351068 0.666538 0.962566 0.184407
H29   H     H_    0.185897 0.704093 0.027885 0.154326
H30   H     H_    0.225648 0.771123 0.968529 0.142813
H31   H     H_    0.283010 0.775948 0.069936 0.154747
H32   H     H_    0.305217 0.347268 0.827089 0.160174
H33   H     H_    0.279860 0.432599 0.857155 0.136964
H34   H     H_    0.382878 0.280055 0.576669 0.128695
H35   H     H_    0.269926 0.298457 0.949233 0.171465
H36   H     H_    0.237919 0.384281 0.978346 0.186050
H37   H     H_    0.059856 0.394914 0.865916 0.147501
H38   H     H_    0.042472 0.321344 0.923518 0.146186
H39   H     H_    0.090760 0.308680 0.835897 0.152608
H40   H     H_    0.856389 0.567370 0.672470 0.152945
H41   H     H_    0.992883 0.591640 0.638155 0.112182
H42   H     H_    0.995226 0.492239 0.770997 0.168183
H43   H     H_    0.128077 0.523628 0.738836 0.182975
H44   H     H_    0.070826 0.645682 0.769106 0.139165
H45   H     H_    0.686105 0.836978 0.593827 0.104688
H46   H     H_    0.104186 0.589766 0.850855 0.176605
H47   H     H_    0.944870 0.610663 0.806165 0.135685
H48   H     H_    0.985597 0.409537 0.379165 0.126953
H49   H     H_    0.122245 0.414983 0.339307 0.127410
H50   H     H_    0.865831 0.478832 0.268976 0.167966
H51   H     H_    0.000104 0.478015 0.228123 0.174217
H52   H     H_    0.992588 0.347805 0.224880 0.135891
H53   H     H_    0.850437 0.386325 0.171629 0.150807
H54   H     H_    0.855633 0.350260 0.263987 0.148071
H55   H     H_    0.273835 0.896390 0.502021 0.122298
H56   H     H_    0.643994 0.161562 0.426001 0.108128
H57   H     H_    0.186125 0.821800 0.457572 0.120642
H58   H     H_    0.184951 0.967325 0.388286 0.173833
H59   H     H_    0.097068 0.893876 0.343498 0.174966
H60   H     H_    0.983108 0.888503 0.447802 0.142387
H61   H     H_    0.966711 0.972021 0.402676 0.137571
H62   H     H_    0.072505 0.961433 0.493897 0.139557
H63   H     H_    0.245026 0.067592 0.561343 0.156704
H64   H     H_    0.274888 0.105781 0.477910 0.111930
H65   H     H_    0.145984 0.178507 0.591858 0.177342
H66   H     H_    0.169360 0.214910 0.504713 0.148591
H67   H     H_    0.563231 0.936531 0.625649 0.124657
H68   H     H_    0.038177 0.119813 0.431611 0.146028
H69   H     H_    0.954489 0.170218 0.487468 0.145863
H70   H     H_    0.012077 0.085850 0.519737 0.140347
H71   H     H_    0.670284 0.710786 0.593568 0.115550
H72   H     H_    0.627277 0.287279 0.422413 0.132074
H73   H     H_    0.714375 0.139548 0.698183 0.161523
H74   H     H_    0.734891 0.118572 0.606241 0.119523
H75   H     H_    0.779921 0.020741 0.745112 0.172372
H76   H     H_    0.801851 0.997617 0.652718 0.147126
H77   H     H_    0.962861 0.090171 0.661821 0.147337
H78   H     H_    0.503879 0.062512 0.382035 0.125266
H79   H     H_    0.002557 0.029528 0.739026 0.148426
H80   H     H_    0.942077 0.113421 0.754945 0.150038
H81   H     H_    0.694196 0.885408 0.412101 0.126961
H82   H     H_    0.691797 0.963623 0.356425 0.116798
H83   H     H_    0.585240 0.821861 0.295872 0.184078
H84   H     H_    0.585960 0.899046 0.240401 0.171007
H85   H     H_    0.819797 0.900730 0.276651 0.144691
H86   H     H_    0.760391 0.821032 0.230410 0.157318
H87   H     H_    0.818521 0.822943 0.331838 0.149647
H88   H     H_    0.629112 0.417913 0.710185 0.143163
N1    N     N_R   0.499990 0.500020 0.683620 -0.251469
N2    N     N_R   0.500010 0.499980 0.316380 -0.247680
O1    O     O_R   0.499950 0.400180 0.561970 -0.496931
O2    O     O_3   0.296328 0.445431 0.132036 -0.599622
O3    O     O_3   0.541893 0.625446 0.080547 -0.584135
O4    O     O_3   0.442182 0.380193 0.916376 -0.580000
O5    O     O_3   0.938663 0.488189 0.623449 -0.580118
O6    O     O_3   0.061948 0.508033 0.375806 -0.575659
O7    O     O_3   0.327017 0.855285 0.407359 -0.528344
O8    O     O_3   0.373367 0.145640 0.584410 -0.530098
O9    O     O_3   0.586430 0.069631 0.642306 -0.523741
O10   O     O_3   0.518848 0.928923 0.368209 -0.522748
O11   O     O_R   0.500050 0.599820 0.438030 -0.487415
O12   O     O_R   0.500010 0.400190 0.438070 -0.503541
O13   O     O_R   0.499990 0.599810 0.561930 -0.511842
O14   O     O_R   0.320670 0.500000 0.539180 -0.535845
O15   O     O_R   0.679330 0.500000 0.460820 -0.537148
O16   O     O_R   0.320730 0.500010 0.415280 -0.482639
O17   O     O_R   0.679270 0.499990 0.584720 -0.483091
O18   O     O_3   0.356567 0.598472 0.817787 -0.609143

loop_
_geom_bond_atom_site_label_1
_geom_bond_atom_site_label_2
_ccdc_geom_bond_type
C11   H22   S    
C41   H15   S    
C54   H49   S    
C1    O12   A    
C27   C29   A    
C34   C37   A    
Cu1   Cu2   S    
C14   C18   A    
C68   H81   S    
C33   C36   A    
C57   H54   S    
C53   H46   S    
C60   H61   S    
C32   C72   S    
C15   C19   A    
C46   H28   S    
C12   C23   S    
C8    C20   S    
C14   C21   A    
C49   H35   S    
C35   C37   A    
C24   C26   D    
C39   H10   S    
C70   H85   S    
C38   C39   S    
C44   H25   S    
C61   H64   S    
C48   H33   S    
C58   H55   S    
C65   H76   S    
C43   H20   S    
C42   H17   S    
C41   C42   S    
C13   H24   S    
C49   C50   S    
C54   O6    S    
C9    O18   S    
C3    H88   S    
C55   H50   S    
C48   H32   S    
Cu2   O15   S    
C55   H51   S    
C44   C46   S    
C68   C69   S    
C56   C72   A    
C22   C25   D    
C45   C67   A    
C43   H21   S    
C63   H70   S    
C4    N2    A    
C23   C27   A    
C62   H65   S    
C56   H78   S    
C60   H62   S    
C18   C20   A    
C3    N1    A    
Cu1   O13   S    
C52   H43   S    
C17   O15   A    
C41   H16   S    
C54   H48   S    
C28   C34   A    
C59   C60   S    
C12   O13   A    
C38   H8    S    
C45   H67   S    
C61   C62   S    
C11   N1    A    
C16   O14   A    
C1    C34   S    
C52   H42   S    
C2    C45   A    
C15   C20   A    
C46   H27   S    
C59   H58   S    
C26   H3    S    
C47   H29   S    
C31   C33   A    
C25   H4    S    
C51   H40   S    
C32   C35   A    
C51   O5    S    
Cu1   O1    S    
C57   H52   S    
C5    C7    A    
C68   O10   S    
C53   H44   S    
C6    C8    A    
C3    C5    A    
C25   C26   S    
C7    C21   S    
C59   H59   S    
C51   H41   S    
C51   C52   S    
C2    C31   S    
C44   O3    S    
C40   H11   S    
Cu2   O12   S    
C62   C63   S    
Cu1   O17   S    
C6    H6    S    
C48   O4    S    
C1    O1    A    
C58   H57   S    
C10   O2    S    
C56   C71   A    
C41   O2    S    
C50   H38   S    
C69   H84   S    
C61   O8    S    
C46   C47   S    
C29   O7    S    
C24   O5    S    
C9    C11   A    
C35   H56   S    
C30   O8    S    
C22   O6    S    
C69   H83   S    
C12   O11   A    
Cu1   O14   S    
C4    C6    A    
C48   C49   S    
C33   H45   S    
C15   H12   S    
C38   H7    S    
C37   H72   S    
C5    H5    S    
C42   C43   S    
C2    C71   A    
C70   H87   S    
C60   H60   S    
C39   C40   S    
C67   C72   A    
C52   C53   S    
C40   H13   S    
C13   N2    A    
C66   H80   S    
C7    C9    A    
C54   C55   S    
C27   H23   S    
C16   C22   S    
C47   H30   S    
C42   H18   S    
C19   C21   A    
C8    C10   A    
C68   H82   S    
C10   C13   A    
C57   H53   S    
C66   H79   S    
C18   O3    S    
C38   O18   S    
C71   O10   S    
C50   H39   S    
C62   H66   S    
C64   C65   S    
C40   H14   S    
C55   C57   S    
C17   C24   S    
C58   C59   S    
C39   H9    S    
Cu2   O11   S    
Cu1   N1    S    
C53   H47   S    
C14   H1    S    
C30   C32   A    
C44   H26   S    
C61   H63   S    
C67   O9    S    
C28   C30   A    
C50   H37   S    
C43   H19   S    
C63   H68   S    
C58   O7    S    
C70   H86   S    
C65   C66   S    
C65   H75   S    
C69   C70   S    
C28   H34   S    
C4    H2    S    
C17   O17   A    
C36   H71   S    
C66   H77   S    
Cu2   O16   S    
C29   C31   A    
C23   C36   A    
C19   O4    S    
C63   H69   S    
C49   H36   S    
C47   H31   S    
C64   O9    S    
C64   H73   S    
C64   H74   S    
C16   O16   A    
Cu2   N2    S    
