data_mof_unit_32420.cif
_audit_creation_date              2012-12-11T14:43:31-0500
_audit_creation_method            fapswitch 2.2
_symmetry_space_group_name_H-M    P1
_symmetry_Int_Tables_number       1
_space_group_crystal_system       triclinic
_cell_length_a                    20.857819
_cell_length_b                    7.098154
_cell_length_c                    16.339587
_cell_angle_alpha                 90.006812
_cell_angle_beta                  92.581227
_cell_angle_gamma                 90.004868
_cell_volume                      2416.6542157

loop_
_atom_site_label
_atom_site_type_symbol
_atom_type_description
_atom_site_fract_x
_atom_site_fract_y
_atom_site_fract_z
_atom_type_partial_charge
O1    O     O_R   0.564840 0.505290 0.579830 -0.540439
O2    O     O_R   0.435160 0.005290 0.420170 -0.540343
O3    O     O_R   0.556720 0.179930 0.409350 -0.539842
O4    O     O_R   0.443280 0.679930 0.590650 -0.539833
C1    C     C_R   0.570145 0.345354 0.380622 0.737580
C2    C     C_R   0.429855 0.845361 0.619379 0.737526
O5    O     O_R   0.572280 0.175810 0.578530 -0.530284
O6    O     O_R   0.427720 0.675810 0.421470 -0.530239
O7    O     O_R   0.450830 0.001920 0.590540 -0.527537
O8    O     O_R   0.549170 0.501920 0.409460 -0.527531
C3    C     C_R   0.589922 0.345452 0.605161 0.703855
C4    C     C_R   0.410074 0.845418 0.394844 0.703803
O9    O     O_3   0.460130 0.338030 0.503750 -0.371877
O10   O     O_3   0.539870 0.838030 0.496250 -0.371934
V1    V     V_3+5 0.507400 0.064560 0.499310 1.467715
V2    V     V_3+5 0.492600 0.564560 0.500690 1.467777
C5    C     C_R   0.142484 0.898461 0.169093 -0.060009
C6    C     C_R   0.857512 0.398290 0.830918 -0.060157
C7    C     C_R   0.357449 0.866168 0.330819 -0.054436
C8    C     C_R   0.642559 0.366342 0.669164 -0.054551
C9    C     C_R   0.310722 0.053449 0.217392 -0.172511
C10   C     C_R   0.689467 0.554372 0.782267 -0.172805
C11   C     C_R   0.362175 0.009722 0.271906 -0.119162
C12   C     C_R   0.637981 0.510555 0.727819 -0.119350
C13   C     C_R   0.300023 0.763057 0.332915 -0.228321
C14   C     C_R   0.699869 0.262651 0.667285 -0.228287
C15   C     C_R   0.247463 0.808100 0.278700 0.157641
C16   C     C_R   0.752463 0.307771 0.721435 0.157666
C17   C     C_R   0.252661 0.955456 0.220755 0.144314
C18   C     C_R   0.747416 0.455789 0.779106 0.144371
C19   C     C_R   0.200037 0.000934 0.166733 -0.236259
C20   C     C_R   0.800074 0.501336 0.833067 -0.236461
C21   C     C_R   0.137884 0.753812 0.227672 -0.154293
C22   C     C_R   0.861970 0.253008 0.772588 -0.154211
C23   C     C_R   0.189457 0.709787 0.281960 -0.186448
C24   C     C_R   0.810361 0.208884 0.718371 -0.186649
H1    H     H_    0.204704 0.110188 0.121024 0.119592
H2    H     H_    0.795515 0.611118 0.878571 0.119786
H3    H     H_    0.094208 0.671879 0.230608 0.118698
H4    H     H_    0.905559 0.170640 0.769801 0.118850
H5    H     H_    0.316133 0.165845 0.173360 0.142091
H6    H     H_    0.684171 0.667291 0.826084 0.142149
H7    H     H_    0.184164 0.596991 0.325827 0.116302
H8    H     H_    0.815541 0.095578 0.674715 0.116351
H9    H     H_    0.405921 0.090725 0.268977 0.160597
H10   H     H_    0.594329 0.592026 0.730585 0.160742
H11   H     H_    0.295365 0.653802 0.378615 0.114822
H12   H     H_    0.704417 0.152863 0.621792 0.115017
C25   C     C_R   0.381033 0.924414 0.836507 -0.155700
C26   C     C_R   0.618963 0.424342 0.163495 -0.155709
H13   H     H_    0.301108 0.965318 0.956629 0.134241
H14   H     H_    0.698889 0.465276 0.043376 0.134336
H15   H     H_    0.404207 0.954894 0.895738 0.151249
H16   H     H_    0.595789 0.454784 0.104265 0.151264
C27   C     C_R   0.390239 0.858991 0.691927 -0.081912
C28   C     C_R   0.609760 0.358962 0.308074 -0.081925
C29   C     C_R   0.078408 0.877206 0.732593 -0.165084
C30   C     C_R   0.921589 0.377257 0.267400 -0.165108
C31   C     C_R   0.113035 0.852365 0.662686 -0.122117
C32   C     C_R   0.886960 0.352457 0.337303 -0.122136
C33   C     C_R   0.179915 0.852083 0.667502 -0.157517
C34   C     C_R   0.820080 0.352182 0.332489 -0.157532
C35   C     C_R   0.214343 0.877993 0.743268 0.087299
C36   C     C_R   0.785654 0.378040 0.256729 0.087304
C37   C     C_R   0.178293 0.906546 0.814903 0.067501
C38   C     C_R   0.821705 0.406571 0.185096 0.067489
C39   C     C_R   0.283207 0.878184 0.750189 0.078924
C40   C     C_R   0.716791 0.378197 0.249810 0.078933
C41   C     C_R   0.313937 0.913231 0.828034 0.097840
C42   C     C_R   0.686060 0.413209 0.171968 0.097819
C43   C     C_R   0.277680 0.939852 0.897071 -0.175880
C44   C     C_R   0.722318 0.439833 0.102932 -0.175856
C45   C     C_R   0.211058 0.935246 0.890863 -0.191136
C46   C     C_R   0.788940 0.435247 0.109140 -0.191152
C47   C     C_R   0.322916 0.847037 0.682781 -0.251826
C48   C     C_R   0.677083 0.347036 0.317219 -0.251827
C49   C     C_R   0.418957 0.901727 0.769081 0.136144
C50   C     C_R   0.581039 0.401647 0.230921 0.136089
C51   C     C_R   0.110007 0.904758 0.808909 -0.080546
C52   C     C_R   0.889991 0.404786 0.191089 -0.080557
H17   H     H_    0.303151 0.817234 0.622089 0.100426
H18   H     H_    0.696850 0.317236 0.377912 0.100425
H19   H     H_    0.026434 0.873858 0.727230 0.100540
H20   H     H_    0.973562 0.373906 0.272762 0.100571
H21   H     H_    0.203184 0.832248 0.610630 0.106298
H22   H     H_    0.796808 0.332411 0.389357 0.106325
H23   H     H_    0.087744 0.831841 0.604035 0.117140
H24   H     H_    0.912249 0.331963 0.395950 0.117162
H25   H     H_    0.185340 0.956717 0.946216 0.109832
H26   H     H_    0.814658 0.456710 0.053789 0.109897
O11   O     O_R   0.950790 0.256670 0.090520 -0.531026
O12   O     O_R   0.049210 0.756670 0.909480 -0.531040
O13   O     O_R   0.927720 0.590370 0.921470 -0.539893
O14   O     O_R   0.072280 0.090370 0.078530 -0.539862
C53   C     C_R   0.910270 0.420155 0.894682 0.685883
C54   C     C_R   0.089736 0.920188 0.105311 0.685870
O15   O     O_R   0.943270 0.586180 0.090640 -0.539390
O16   O     O_R   0.056730 0.086180 0.909360 -0.539391
O17   O     O_R   0.064850 0.759970 0.079840 -0.535951
O18   O     O_R   0.935150 0.259970 0.920160 -0.536019
C55   C     C_R   0.930084 0.417261 0.118848 0.680613
C56   C     C_R   0.069915 0.917254 0.881151 0.680561
O19   O     O_3   0.039850 0.428050 0.996240 -0.368793
O20   O     O_3   0.960150 0.928050 0.003760 -0.368827
V3    V     V_3+5 0.992610 0.701540 0.000700 1.426177
V4    V     V_3+5 0.007390 0.201540 0.999300 1.426220
I1    I     I_    0.519503 0.939918 0.787605 -0.445057
I2    I     I_    0.480489 0.439726 0.212405 -0.445074

loop_
_geom_bond_atom_site_label_1
_geom_bond_atom_site_label_2
_ccdc_geom_bond_type
C35   C37   A    
C28   C48   A    
C15   C17   A    
C29   C51   A    
C1    C28   S    
O1    C3    A    
C2    C27   S    
O2    C4    A    
C2    O7    A    
O20   V4    S    
C32   H24   S    
C37   C45   A    
C37   C51   A    
O5    C3    A    
C34   H22   S    
C26   H16   S    
H13   C43   S    
C11   H9    S    
C36   C40   A    
C32   C34   A    
C27   C49   A    
C29   C31   A    
C30   C32   A    
C38   C46   A    
C54   O17   A    
C28   C50   A    
C50   I2    S    
C41   C43   A    
C34   C36   A    
O13   V3    S    
C8    C12   A    
C29   H19   S    
C51   C56   S    
C20   H2    S    
C23   H7    S    
C13   H11   S    
C30   C52   A    
C27   C47   A    
O5    V1    S    
O6    V2    S    
C25   C41   A    
C6    C53   S    
O11   V4    S    
C5    C21   A    
O11   C55   A    
C26   C50   A    
O20   V3    S    
O17   V3    S    
C35   C39   A    
C3    C8    S    
C31   C33   A    
C49   I1    S    
C44   C46   A    
C48   H18   S    
C5    C54   S    
C53   O18   A    
C47   H17   S    
C15   C23   A    
O16   C56   A    
C9    C17   A    
C19   H1    S    
C39   C41   A    
C36   C38   A    
O4    V2    S    
C7    C11   A    
H14   C44   S    
C30   H20   S    
O6    C4    A    
C33   C35   A    
O19   V3    S    
O1    V2    S    
C21   H3    S    
O14   C54   A    
O2    V1    S    
C6    C22   A    
C33   H21   S    
C9    H5    S    
O4    C2    A    
C9    C11   A    
C13   C15   A    
C5    C19   A    
C10   C12   A    
C24   H8    S    
C6    C20   A    
O3    V1    S    
C43   C45   A    
O14   V4    S    
C10   C18   A    
C14   C16   A    
O3    C1    A    
C14   H12   S    
C40   C48   A    
C38   C52   A    
O18   V4    S    
O16   V4    S    
C52   C55   S    
C12   H10   S    
C46   H26   S    
C16   C18   A    
C26   C42   A    
O15   V3    S    
C1    O8    A    
C17   C19   A    
O8    V2    S    
C18   C20   A    
C10   H6    S    
C8    C14   A    
C25   H15   S    
C4    C7    S    
C21   C23   A    
C25   C49   A    
O19   V4    S    
C22   C24   A    
O7    V1    S    
C7    C13   A    
C31   H23   S    
C45   H25   S    
O12   V3    S    
C39   C47   A    
C16   C24   A    
O13   C53   A    
O9    V2    S    
C40   C42   A    
O10   V1    S    
C22   H4    S    
C42   C44   A    
O15   C55   A    
O12   C56   A    
