data_mof_unit_53736.cif
_audit_creation_date              2012-12-11T15:27:07-0500
_audit_creation_method            fapswitch 2.2
_symmetry_space_group_name_H-M    P1
_symmetry_Int_Tables_number       1
_space_group_crystal_system       triclinic
_cell_length_a                    13.948879
_cell_length_b                    13.948753
_cell_length_c                    27.416945
_cell_angle_alpha                 89.999689
_cell_angle_beta                  90.000447
_cell_angle_gamma                 120.000416
_cell_volume                      4619.79349453

loop_
_atom_site_label
_atom_site_type_symbol
_atom_type_description
_atom_site_fract_x
_atom_site_fract_y
_atom_site_fract_z
_atom_type_partial_charge
C1    C     C_R   0.234175 0.787320 0.568629 0.541052
C2    C     C_R   0.212678 0.446849 0.568628 0.541048
C3    C     C_R   0.553146 0.765826 0.568629 0.541051
C4    C     C_3   0.653219 0.732911 0.788878 -0.213255
C5    C     C_3   0.266630 0.921637 0.788745 -0.213188
C6    C     C_3   0.078002 0.344444 0.788699 -0.213207
C7    C     C_3   0.632226 0.720287 0.733158 -0.212685
C8    C     C_3   0.279246 0.913270 0.733023 -0.212676
C9    C     C_3   0.086365 0.365425 0.732977 -0.212713
C10   C     C_1   0.711672 0.864143 0.857975 -0.078953
C11   C     C_1   0.135884 0.847564 0.857974 -0.078951
C12   C     C_1   0.152411 0.288255 0.857963 -0.078955
C13   C     C_1   0.631734 0.816926 0.657775 -0.075791
C14   C     C_1   0.183093 0.814823 0.657775 -0.075792
C15   C     C_1   0.185162 0.368220 0.657766 -0.075789
C16   C     C_1   0.602779 0.797907 0.615836 -0.017812
C17   C     C_1   0.202101 0.804877 0.615837 -0.017810
C18   C     C_1   0.195113 0.397195 0.615831 -0.017813
C19   C     C_R   0.106769 0.219754 0.948773 0.549824
C20   C     C_R   0.780240 0.887014 0.948775 0.549824
C21   C     C_R   0.112987 0.893228 0.948775 0.549824
C22   C     C_R   0.614434 0.807278 0.385613 0.025135
C23   C     C_R   0.192722 0.807160 0.385614 0.025134
C24   C     C_R   0.192803 0.385491 0.385631 0.025128
C25   C     C_R   0.608727 0.892022 0.360451 -0.126044
C26   C     C_R   0.107980 0.716710 0.360452 -0.126047
C27   C     C_R   0.283216 0.391097 0.360479 -0.126050
C28   C     C_R   0.637372 0.910798 0.311572 -0.123300
C29   C     C_R   0.089203 0.726579 0.311574 -0.123299
C30   C     C_R   0.273305 0.362347 0.311612 -0.123277
C31   C     C_R   0.674312 0.846744 0.287466 0.036547
C32   C     C_R   0.153255 0.827574 0.287467 0.036547
C33   C     C_R   0.172312 0.325423 0.287506 0.036557
C34   C     C_R   0.233204 0.787551 0.431571 0.542802
C35   C     C_R   0.212447 0.445649 0.431573 0.542803
C36   C     C_R   0.554345 0.766796 0.431571 0.542805
C37   C     C_R   0.691081 0.770121 0.313893 -0.120307
C38   C     C_R   0.229875 0.920967 0.313894 -0.120310
C39   C     C_R   0.078948 0.308737 0.313932 -0.120315
C40   C     C_R   0.660641 0.749958 0.362707 -0.127549
C41   C     C_R   0.250039 0.910690 0.362708 -0.127556
C42   C     C_R   0.089267 0.339277 0.362733 -0.127559
C43   C     C_R   0.655500 0.759405 0.206363 -0.120192
C44   C     C_R   0.240595 0.896104 0.206364 -0.120192
C45   C     C_R   0.103753 0.344246 0.206411 -0.120182
C46   C     C_R   0.676471 0.767924 0.156578 -0.132661
C47   C     C_R   0.232076 0.908554 0.156578 -0.132655
C48   C     C_R   0.091345 0.323360 0.156618 -0.132652
C49   C     C_R   0.754848 0.967068 0.161602 -0.126286
C50   C     C_R   0.032936 0.787773 0.161601 -0.126286
C51   C     C_R   0.212206 0.245093 0.161608 -0.126274
C52   C     C_R   0.735831 0.958791 0.211478 -0.121856
C53   C     C_R   0.041212 0.777036 0.211478 -0.121853
C54   C     C_R   0.222896 0.264016 0.211493 -0.121844
C55   C     C_R   0.688968 0.855248 0.234417 0.035915
C56   C     C_R   0.144752 0.833725 0.234418 0.035917
C57   C     C_R   0.166154 0.310787 0.234453 0.035931
C58   C     C_R   0.729562 0.872176 0.134316 0.022599
C59   C     C_R   0.127826 0.857385 0.134316 0.022599
C60   C     C_R   0.142578 0.270371 0.134334 0.022593
C61   C     C_R   0.106573 0.221489 0.086184 0.546371
C62   C     C_R   0.778503 0.885079 0.086179 0.546387
C63   C     C_R   0.114921 0.893423 0.086178 0.546388
C64   C     C_3   0.577286 0.866705 0.735591 -0.213196
C65   C     C_3   0.135131 0.711130 0.735703 -0.213209
C66   C     C_3   0.288699 0.424278 0.735725 -0.213229
C67   C     C_3   0.776212 0.920386 0.720979 -0.216243
C68   C     C_3   0.078336 0.854037 0.721000 -0.216259
C69   C     C_3   0.146433 0.224371 0.720994 -0.216218
C70   C     C_3   0.797096 0.933186 0.776845 -0.212994
C71   C     C_3   0.065567 0.862162 0.776866 -0.213055
C72   C     C_3   0.138285 0.203461 0.776861 -0.212984
C73   C     C_1   0.737046 0.873631 0.900393 -0.026550
C74   C     C_1   0.126378 0.863430 0.900392 -0.026545
C75   C     C_1   0.136552 0.262910 0.900384 -0.026536
C76   C     C_3   0.654578 0.831371 0.710404 0.072606
C77   C     C_3   0.168658 0.823233 0.710403 0.072613
C78   C     C_3   0.176746 0.345360 0.710394 0.072614
C79   C     C_3   0.598159 0.879215 0.791437 -0.216276
C80   C     C_3   0.122614 0.719502 0.791546 -0.216298
C81   C     C_3   0.280330 0.403369 0.791565 -0.216307
C82   C     C_3   0.690115 0.852789 0.805223 0.074059
C83   C     C_3   0.147249 0.837369 0.805222 0.074072
C84   C     C_3   0.162605 0.309802 0.805211 0.074053
Cr1   Cr    Cr6+3 0.164410 0.584450 0.499910 1.016599
Cr2   Cr    Cr6+3 0.415550 0.579960 0.499910 1.016606
Cr3   Cr    Cr6+3 0.420040 0.835590 0.499910 1.016601
Cr4   Cr    Cr6+3 0.156760 0.076070 0.017830 1.018572
Cr5   Cr    Cr6+3 0.923930 0.080690 0.017830 1.018574
Cr6   Cr    Cr6+3 0.919310 0.843240 0.017830 1.018576
H1    H     H_    0.622815 0.965151 0.802722 0.110970
H2    H     H_    0.037062 0.657315 0.802922 0.110933
H3    H     H_    0.342752 0.380340 0.802959 0.110928
H4    H     H_    0.489108 0.803952 0.728525 0.106778
H5    H     H_    0.198848 0.687003 0.728629 0.106800
H6    H     H_    0.312457 0.512028 0.728654 0.106694
H7    H     H_    0.520186 0.822282 0.811050 0.107302
H8    H     H_    0.180500 0.699759 0.811149 0.107312
H9    H     H_    0.299737 0.480902 0.811169 0.107273
H10   H     H_    0.718158 0.711882 0.798345 0.111651
H11   H     H_    0.286374 0.007261 0.798135 0.111542
H12   H     H_    0.992474 0.278317 0.798070 0.111532
H13   H     H_    0.573784 0.937997 0.377241 0.132403
H14   H     H_    0.062006 0.635792 0.377242 0.132402
H15   H     H_    0.364139 0.426043 0.377263 0.132380
H16   H     H_    0.615645 0.678202 0.223098 0.103710
H17   H     H_    0.321796 0.937459 0.223100 0.103701
H18   H     H_    0.062355 0.384037 0.223158 0.103675
H19   H     H_    0.656251 0.693923 0.135946 0.116615
H20   H     H_    0.306076 0.962339 0.135947 0.116615
H21   H     H_    0.037538 0.343566 0.135998 0.116623
H22   H     H_    0.623766 0.970428 0.292037 0.099560
H23   H     H_    0.029577 0.653343 0.292039 0.099565
H24   H     H_    0.346518 0.375884 0.292081 0.099543
H25   H     H_    0.762485 0.033885 0.232326 0.101274
H26   H     H_    0.966119 0.728591 0.232325 0.101278
H27   H     H_    0.271358 0.237367 0.232328 0.101251
H28   H     H_    0.796916 0.048620 0.145158 0.129589
H29   H     H_    0.951384 0.748283 0.145156 0.129591
H30   H     H_    0.251751 0.203104 0.145146 0.129582
H31   H     H_    0.723291 0.722550 0.296294 0.101288
H32   H     H_    0.277442 0.000749 0.296295 0.101281
H33   H     H_    0.999165 0.276537 0.296338 0.101267
H34   H     H_    0.591759 0.946639 0.720117 0.112558
H35   H     H_    0.055588 0.644747 0.720324 0.112473
H36   H     H_    0.355336 0.411494 0.720365 0.112467
H37   H     H_    0.667360 0.685375 0.381606 0.126116
H38   H     H_    0.314621 0.981991 0.381607 0.126111
H39   H     H_    0.017993 0.332635 0.381626 0.126128
H40   H     H_    0.833462 0.896602 0.703622 0.108857
H41   H     H_    0.100795 0.934656 0.703556 0.108826
H42   H     H_    0.065935 0.165967 0.703524 0.108766
H43   H     H_    0.825361 0.020219 0.787706 0.109540
H44   H     H_    0.978866 0.802464 0.787827 0.109605
H45   H     H_    0.198208 0.176769 0.787851 0.109660
H46   H     H_    0.864827 0.916120 0.786145 0.105954
H47   H     H_    0.081372 0.946575 0.786081 0.105906
H48   H     H_    0.053975 0.134622 0.786050 0.105856
H49   H     H_    0.545096 0.654674 0.726083 0.109445
H50   H     H_    0.345786 0.893083 0.725926 0.109518
H51   H     H_    0.106200 0.452045 0.725875 0.109617
H52   H     H_    0.686905 0.692990 0.715968 0.112505
H53   H     H_    0.305228 0.994899 0.715755 0.112445
H54   H     H_    0.004836 0.309523 0.715689 0.112426
H55   H     H_    0.576233 0.673309 0.808452 0.109545
H56   H     H_    0.327150 0.905563 0.808298 0.109596
H57   H     H_    0.093732 0.420931 0.808247 0.109667
O1    O     O_R   0.137310 0.468260 0.552980 -0.510243
O2    O     O_R   0.531740 0.669050 0.552980 -0.510243
O3    O     O_R   0.330950 0.862690 0.552980 -0.510247
O4    O     O_R   0.180530 0.983530 0.965090 -0.512211
O5    O     O_R   0.016470 0.197000 0.965090 -0.512204
O6    O     O_R   0.803000 0.819470 0.965090 -0.512208
O7    O     O_R   0.174120 0.688790 0.549730 -0.498827
O8    O     O_R   0.311210 0.485330 0.549730 -0.498831
O9    O     O_R   0.514670 0.825880 0.549730 -0.498831
O10   O     O_R   0.139940 0.470480 0.446230 -0.521925
O11   O     O_R   0.529520 0.669460 0.446230 -0.521906
O12   O     O_R   0.330540 0.860060 0.446230 -0.521915
O13   O     O_R   0.176560 0.690850 0.450770 -0.506202
O14   O     O_R   0.309150 0.485710 0.450770 -0.506194
O15   O     O_R   0.514290 0.823440 0.450770 -0.506204
O16   O     O_3   0.333333 0.666667 0.499990 -0.263998
O17   O     O_3   0.000000 0.000000 0.017910 -0.215934
O18   O     O_R   0.149710 0.171070 0.967700 -0.496744
O19   O     O_R   0.828930 0.978640 0.967700 -0.496746
O20   O     O_R   0.021360 0.850290 0.967700 -0.496745
O21   O     O_R   0.178510 0.985930 0.071830 -0.519549
O22   O     O_R   0.014070 0.192580 0.071830 -0.519546
O23   O     O_R   0.807420 0.821490 0.071830 -0.519547
O24   O     O_R   0.147830 0.173300 0.066650 -0.501035
O25   O     O_R   0.826700 0.974530 0.066650 -0.501043
O26   O     O_R   0.025470 0.852170 0.066650 -0.501041
H58   H     H_    0.794434 0.001196 0.705081 0.110979
H59   H     H_    0.997852 0.790476 0.705203 0.111052
H60   H     H_    0.210259 0.207805 0.705228 0.111104

loop_
_geom_bond_atom_site_label_1
_geom_bond_atom_site_label_2
_ccdc_geom_bond_type
C58   C62   S    
C15   C18   T    
Cr3   O16   S    
C2    O8    A    
Cr6   O20   S    
C2    C18   S    
C53   H26   S    
C24   C42   A    
C41   H38   S    
Cr1   O1    S    
C6    C9    S    
C71   H47   S    
C28   H22   S    
C25   C28   A    
Cr6   O26   S    
C45   C57   A    
C35   O14   A    
C50   C59   A    
C21   O4    A    
C52   H25   S    
C37   C40   A    
C80   C83   S    
C5    C83   S    
C10   C73   T    
C14   C77   S    
C15   C78   S    
C27   H15   S    
C67   H58   S    
C2    O1    A    
C39   H33   S    
C12   C84   S    
C45   H18   S    
C23   C26   A    
C26   H14   S    
C68   H59   S    
Cr5   O5    S    
Cr3   O12   S    
Cr4   O21   S    
Cr3   O3    S    
C70   H43   S    
C24   C27   A    
C48   C60   A    
C61   O24   A    
C69   H60   S    
C32   C38   A    
C8    H53   S    
Cr5   O17   S    
C79   H1    S    
C44   C47   A    
C36   O11   A    
Cr1   O7    S    
C34   O12   A    
C49   C52   A    
C72   H48   S    
C65   C80   S    
C46   C58   A    
C27   C30   A    
C70   H46   S    
C14   C17   T    
Cr6   O23   S    
C69   C78   S    
Cr1   O10   S    
C71   H44   S    
C4    C7    S    
C62   O23   A    
C9    H54   S    
C63   O26   A    
C39   C42   A    
C71   C83   S    
C66   C78   S    
C5    H11   S    
C3    O2    A    
C24   C35   S    
C6    C84   S    
C20   O6    A    
C50   H29   S    
C50   C53   A    
C65   C77   S    
C38   C41   A    
Cr2   O2    S    
C9    H51   S    
C25   H13   S    
C72   H45   S    
C81   H9    S    
C11   C83   S    
C64   H34   S    
C40   H37   S    
C47   C59   A    
C21   C74   S    
C22   C25   A    
C49   C58   A    
C66   H36   S    
C72   C84   S    
Cr6   O17   S    
C60   C61   S    
C43   H16   S    
C65   H35   S    
C80   H2    S    
C68   H41   S    
Cr2   O8    S    
C35   O10   A    
C5    C8    S    
C81   H3    S    
C44   C56   A    
C49   H28   S    
C13   C76   S    
C23   C34   S    
C22   C40   A    
C44   H17   S    
C51   H30   S    
C64   C76   S    
C1    O3    A    
Cr2   O14   S    
C33   C39   A    
Cr6   O6    S    
Cr2   O11   S    
C38   H32   S    
C37   H31   S    
C43   C55   A    
C63   O21   A    
Cr1   O13   S    
C4    H10   S    
C8    C77   S    
Cr1   O16   S    
C64   C79   S    
C12   C75   T    
C67   H40   S    
C61   O22   A    
C69   H42   S    
C81   C84   S    
C22   C36   S    
C66   H6    S    
C30   H24   S    
C45   C48   A    
C68   C77   S    
C29   H23   S    
C33   C57   S    
C5    H56   S    
C30   C33   A    
C80   H8    S    
C59   C63   S    
C79   H7    S    
C28   C31   A    
Cr5   O25   S    
C69   C72   S    
C11   C74   T    
C21   O20   A    
C79   C82   S    
C62   O25   A    
C52   C55   A    
C7    C76   S    
Cr2   O16   S    
C29   C32   A    
C47   H20   S    
C20   O19   A    
C48   H21   S    
C1    C17   S    
C23   C41   A    
C8    H50   S    
C67   C70   S    
C51   C54   A    
C51   C60   A    
C19   C75   S    
C13   C16   T    
Cr5   O22   S    
Cr4   O17   S    
C66   C81   S    
C7    H49   S    
C6    H57   S    
C36   O15   A    
C68   C71   S    
C4    H55   S    
C3    O9    A    
Cr4   O4    S    
C10   C82   S    
C20   C73   S    
C42   H39   S    
C9    C78   S    
C6    H12   S    
C1    O7    A    
C70   C82   S    
C43   C46   A    
C53   C56   A    
Cr5   O19   S    
C64   H4    S    
C31   C37   A    
C65   H5    S    
Cr3   O15   S    
C4    C82   S    
C26   C29   A    
Cr4   O18   S    
C54   H27   S    
C46   H19   S    
Cr4   O24   S    
Cr3   O9    S    
C67   C76   S    
C19   O18   A    
C31   C55   S    
C32   C56   S    
C7    H52   S    
C3    C16   S    
C34   O13   A    
C54   C57   A    
C19   O5    A    
