data_mof_unit_44154.cif
_audit_creation_date              2012-12-10T17:15:56-0500
_audit_creation_method            fapswitch 2.2
_symmetry_space_group_name_H-M    P1
_symmetry_Int_Tables_number       1
_space_group_crystal_system       triclinic
_cell_length_a                    10.132087
_cell_length_b                    10.597538
_cell_length_c                    10.71733
_cell_angle_alpha                 91.210095
_cell_angle_beta                  96.510377
_cell_angle_gamma                 83.003711
_cell_volume                      1134.80971649

loop_
_atom_site_label
_atom_site_type_symbol
_atom_type_description
_atom_site_fract_x
_atom_site_fract_y
_atom_site_fract_z
_atom_type_partial_charge
C1    C     C_R   0.442935 0.506152 0.266249 0.914385
C2    C     C_2   0.489967 0.439170 0.929940 -0.141972
C3    C     C_2   0.070196 0.504691 0.468774 0.224759
C4    C     C_R   0.495317 0.259828 0.491249 0.894353
C5    C     C_2   0.922386 0.535164 0.469209 -0.075827
C6    C     C_R   0.556635 0.486708 0.732866 0.949051
C7    C     C_R   0.507343 0.738306 0.519037 0.910377
C8    C     C_R   0.671363 0.072947 0.345852 0.192432
C9    C     C_R   0.801715 0.006213 0.344204 0.200971
C10   C     C_R   0.850064 0.915508 0.439413 0.128670
C11   C     C_R   0.759449 0.875244 0.517504 0.145046
C12   C     C_R   0.591741 0.042176 0.438999 0.012135
C13   C     C_R   0.623930 0.925831 0.498109 -0.057343
C14   C     C_3   0.270283 0.544916 0.070687 -0.825273
C15   C     C_3   0.614169 0.167200 0.244135 -0.847983
C16   C     C_3   0.892950 0.035041 0.248043 -0.814743
C17   C     C_3   0.996641 0.864279 0.455649 -0.815875
C18   C     C_R   0.487900 0.124974 0.485157 -0.115344
C19   C     C_R   0.398490 0.078496 0.558575 -0.214504
C20   C     C_R   0.411556 0.950848 0.586085 0.165208
C21   C     C_R   0.519930 0.871602 0.545540 -0.126196
C22   C     C_2   0.408867 0.496101 0.131111 0.014252
C23   C     C_2   0.507199 0.445045 0.064406 -0.162546
C24   C     C_2   0.588737 0.464626 0.865710 -0.334266
H1    H     H_    0.321862 0.141574 0.598930 0.203269
H2    H     H_    0.673582 0.248707 0.249974 0.260427
H3    H     H_    0.617335 0.120704 0.150549 0.240770
H4    H     H_    0.507661 0.203007 0.250801 0.222644
H5    H     H_    0.846931 0.107024 0.177931 0.247772
H6    H     H_    0.983788 0.071664 0.295694 0.265937
H7    H     H_    0.923185 0.946850 0.195489 0.239899
H8    H     H_    0.058201 0.943985 0.472115 0.275742
H9    H     H_    0.023839 0.799928 0.536067 0.251498
H10   H     H_    0.023638 0.810641 0.370299 0.231583
H11   H     H_    0.880264 0.633198 0.470369 0.146456
H12   H     H_    0.119638 0.608646 0.620772 0.176612
H13   H     H_    0.391248 0.426774 0.883515 0.204066
H14   H     H_    0.607872 0.415784 0.108481 0.171660
H15   H     H_    0.688230 0.475241 0.911423 0.171438
H16   H     H_    0.206912 0.591800 0.140318 0.258738
H17   H     H_    0.277081 0.616406 0.998094 0.258712
H18   H     H_    0.220393 0.464832 0.026584 0.255068
I1    I     I_    0.124056 0.377127 0.319620 -0.337150
I2    I     I_    0.917208 0.272094 0.531277 -0.244269
I3    I     I_    0.825016 0.778504 0.692084 -0.367521
I4    I     I_    0.281200 0.890327 0.709095 -0.343937
N1    N     N_2   0.157290 0.551390 0.551110 -0.210873
N2    N     N_2   0.842740 0.448550 0.448960 -0.017475
O1    O     O_R   0.568950 0.489660 0.307530 -0.634853
O2    O     O_R   0.348880 0.522640 0.340350 -0.580214
O3    O     O_R   0.610060 0.300270 0.483590 -0.578206
O4    O     O_R   0.389990 0.333260 0.516410 -0.599921
O5    O     O_R   0.651120 0.477360 0.659650 -0.579013
O6    O     O_R   0.431050 0.510340 0.692470 -0.606815
O7    O     O_R   0.610010 0.666740 0.483590 -0.613572
O8    O     O_R   0.389940 0.699730 0.516410 -0.585457
Zn1   Zn    Zn3+2 0.646940 0.477980 0.478090 1.005575
Zn2   Zn    Zn3+2 0.353060 0.522020 0.521910 0.991635

loop_
_geom_bond_atom_site_label_1
_geom_bond_atom_site_label_2
_ccdc_geom_bond_type
C17   H10   S    
O3    Zn1   S    
C1    O2    A    
C8    C12   A    
C23   H14   S    
C9    C10   A    
C15   H3    S    
C19   C20   A    
C7    O7    A    
C14   H18   S    
C6    C24   S    
C14   C22   S    
C13   C21   A    
N2    Zn1   S    
C17   H9    S    
C20   C21   A    
N1    Zn2   S    
C11   C13   A    
C2    H13   S    
C3    I1    S    
C15   H4    S    
O4    Zn2   S    
C7    O8    A    
C4    O4    A    
C14   H17   S    
C5    H11   S    
C3    N1    D    
C9    C16   S    
O8    Zn2   S    
C6    O6    A    
C8    C15   S    
O7    Zn1   S    
C2    C24   D    
C19   H1    S    
C5    N2    D    
C6    O5    A    
C11   I3    S    
C10   C11   A    
C4    O3    A    
C14   H16   S    
O2    Zn2   S    
C1    C22   S    
C24   H15   S    
O1    Zn1   S    
C12   C13   A    
H12   N1    S    
C18   C19   A    
O6    Zn2   S    
C12   C18   A    
C2    C23   S    
C17   H8    S    
O5    Zn1   S    
C22   C23   D    
C15   H2    S    
C10   C17   S    
C3    C5    S    
C16   H5    S    
C7    C21   S    
C16   H6    S    
C4    C18   S    
C20   I4    S    
I2    N2    S    
C8    C9    A    
C16   H7    S    
C1    O1    A    
