data_mof_unit_31439.cif
_audit_creation_date              2013-03-05T15:58:07-0500
_audit_creation_method            fapswitch 2.2
_symmetry_space_group_name_H-M    P1
_symmetry_Int_Tables_number       1
_space_group_crystal_system       triclinic
_cell_length_a                    15.116273
_cell_length_b                    13.727005
_cell_length_c                    10.966199
_cell_angle_alpha                 90.975941
_cell_angle_beta                  85.743972
_cell_angle_gamma                 90.656465
_cell_volume                      2268.7762594

loop_
_atom_site_label
_atom_site_type_symbol
_atom_site_description
_atom_site_fract_x
_atom_site_fract_y
_atom_site_fract_z
_atom_type_partial_charge
O1    O     O_R   0.370250 0.582280 0.500040 -0.571569
O2    O     O_R   0.370250 0.417720 0.500040 -0.590794
C1    C     C_R   0.328955 0.499538 0.499675 0.885631
O3    O     O_R   0.499970 0.582270 0.317700 -0.561106
O4    O     O_R   0.499970 0.417730 0.317700 -0.523952
C2    C     C_R   0.491526 0.498851 0.261001 0.856761
Cu1   Cu    Cu3+1 0.499990 0.597420 0.500010 1.121244
Cu2   Cu    Cu3+1 0.499990 0.402580 0.500010 1.096793
O5    O     O_R   0.629730 0.582260 0.499980 -0.504209
O6    O     O_R   0.629730 0.417740 0.499980 -0.524822
O7    O     O_R   0.500000 0.582270 0.682320 -0.546751
O8    O     O_R   0.500000 0.417730 0.682320 -0.558288
C3    C     C_R   0.671951 0.500434 0.487463 0.982133
C4    C     C_R   0.498788 0.500926 0.740590 0.957912
C5    C     C_3   0.415493 0.567877 0.079002 0.174158
C6    C     C_3   0.461979 0.393810 0.065139 0.263871
H1    H     H_    0.349953 0.536501 0.112098 0.096938
H2    H     H_    0.389025 0.385812 0.085383 0.104916
C7    C     C_3   0.419313 0.565283 0.936513 -0.369976
C8    C     C_3   0.477339 0.397004 0.924679 -0.410807
H3    H     H_    0.356362 0.531690 0.912116 0.247957
H4    H     H_    0.416716 0.367484 0.884801 0.219099
H5    H     H_    0.418859 0.638348 0.896553 0.293669
H6    H     H_    0.531218 0.347354 0.890420 0.282753
C9    C     C_3   0.580812 0.533057 0.068535 -0.345955
C10   C     C_3   0.488545 0.497369 0.123211 -0.254566
C11   C     C_3   0.497665 0.502169 0.878763 -0.241620
C12   C     C_3   0.589061 0.539154 0.926570 0.579390
C13   C     C_R   0.823873 0.465382 0.373888 0.350484
C14   C     C_R   0.770363 0.502819 0.476628 -0.128136
C15   C     C_R   0.811438 0.548776 0.572297 -0.136394
C16   C     C_R   0.902952 0.551098 0.575431 0.070448
C17   C     C_R   0.956594 0.511160 0.477490 0.037234
C18   C     C_R   0.917871 0.472607 0.373339 -0.004033
C19   C     C_R   0.941555 0.593460 0.675731 -0.165277
C20   C     C_R   0.032684 0.589165 0.684066 -0.077169
C21   C     C_R   0.087216 0.542490 0.591884 -0.001730
C22   C     C_R   0.049400 0.509987 0.484038 0.043511
C23   C     C_R   0.104102 0.474922 0.383538 0.115841
C24   C     C_R   0.066607 0.444006 0.277052 -0.159243
C25   C     C_R   0.975007 0.442731 0.271758 -0.073034
C26   C     C_R   0.178414 0.527979 0.603004 0.332092
C27   C     C_R   0.232687 0.499053 0.498809 -0.141499
C28   C     C_R   0.195674 0.472963 0.390128 -0.236461
H7    H     H_    0.771775 0.580855 0.647565 0.245519
H8    H     H_    0.059746 0.625168 0.761526 0.227527
H9    H     H_    0.238434 0.449857 0.311263 0.148116
H10   H     H_    0.108178 0.419446 0.197917 0.178459
C29   C     C_R   0.431620 0.791677 0.564895 0.119079
C30   C     C_R   0.427231 0.209932 0.557374 0.106677
N1    N     N_R   0.499930 0.743810 0.499950 -0.243393
N2    N     N_R   0.499930 0.256190 0.499950 -0.241452
C31   C     C_R   0.562202 0.799492 0.429384 0.483404
C32   C     C_R   0.569423 0.199817 0.453956 0.471434
C33   C     C_R   0.545748 0.899173 0.408607 -0.040791
C34   C     C_R   0.550436 0.103430 0.419065 0.024070
C35   C     C_R   0.482590 0.948909 0.485646 0.015320
C36   C     C_R   0.482839 0.052455 0.486848 0.027803
C37   C     C_R   0.424553 0.896120 0.566418 -0.152773
C38   C     C_R   0.419568 0.105568 0.559188 -0.143577
C39   C     C_R   0.595079 0.952974 0.317961 -0.031577
C40   C     C_R   0.603540 0.053745 0.329690 -0.066367
C41   C     C_R   0.352229 0.052885 0.628931 0.285769
C42   C     C_R   0.361385 0.949471 0.644138 0.295601
H11   H     H_    0.382757 0.747846 0.616012 0.210146
H12   H     H_    0.378876 0.254705 0.608188 0.194946
H13   H     H_    0.629898 0.917374 0.240363 0.202833
H14   H     H_    0.651628 0.092619 0.270108 0.165368
S1    S     S_3+6 0.405424 0.691698 0.139081 0.073683
O9    O     O_2   0.342676 0.745668 0.065156 -0.160282
O10   O     O_2   0.365340 0.690782 0.268685 -0.294972
O11   O     O_3   0.502008 0.753626 0.133228 -0.476127
H15   H     H_    0.527929 0.740737 0.211000 0.347990
S2    S     S_3+6 0.497316 0.275702 0.114229 0.040314
O12   O     O_2   0.455476 0.251454 0.238576 -0.284757
O13   O     O_2   0.464710 0.200734 0.025930 -0.240779
O14   O     O_3   0.607796 0.266403 0.111548 -0.458381
H16   H     H_    0.620378 0.196473 0.096085 0.378705
S3    S     S_3+6 0.223558 0.528963 0.747614 -0.019487
O15   O     O_2   0.269975 0.624923 0.764860 -0.253613
O16   O     O_2   0.154445 0.514085 0.851616 -0.282051
O17   O     O_3   0.296678 0.437750 0.749184 -0.600163
H17   H     H_    0.260938 0.377387 0.740987 0.387963
H18   H     H_    0.950952 0.418541 0.186184 0.227059
S4    S     S_3+6 0.674633 0.760377 0.392301 0.020698
O18   O     O_2   0.714187 0.735876 0.509482 -0.230394
O19   O     O_2   0.675815 0.673858 0.306365 -0.332619
O20   O     O_3   0.744001 0.844878 0.328055 -0.531586
H19   H     H_    0.801052 0.810875 0.309763 0.396669
S5    S     S_3+6 0.669729 0.207249 0.528913 0.049732
O21   O     O_2   0.742069 0.258165 0.452878 -0.285867
O22   O     O_2   0.652913 0.260025 0.649241 -0.200042
O23   O     O_3   0.704567 0.094272 0.556883 -0.495868
H20   H     H_    0.757742 0.104199 0.603416 0.402660
S6    S     S_3+6 0.254260 0.115003 0.686053 0.073896
O24   O     O_2   0.271765 0.166727 0.803858 -0.202279
O25   O     O_2   0.229102 0.189174 0.595709 -0.313870
O26   O     O_3   0.167584 0.038171 0.710645 -0.404418
H21   H     H_    0.155929 0.012025 0.628551 0.363257
S7    S     S_3+6 0.305022 0.889624 0.770911 0.099199
O27   O     O_2   0.225076 0.836604 0.728437 -0.259396
O28   O     O_2   0.365962 0.817547 0.821914 -0.223970
O29   O     O_3   0.273346 0.968549 0.884315 -0.394599
H22   H     H_    0.240872 0.928380 0.947483 0.402523
H23   H     H_    0.597376 0.603977 0.110725 0.216505
H24   H     H_    0.630618 0.483436 0.098747 0.289830
S8    S     S_3+6 0.619357 0.663998 0.881520 0.088722
O30   O     O_2   0.651317 0.666029 0.749017 -0.225667
O31   O     O_2   0.544482 0.734672 0.899524 -0.220551
O32   O     O_3   0.703130 0.704350 0.962818 -0.442696
H25   H     H_    0.675592 0.747605 0.027799 0.379278
S9    S     S_3+6 0.683304 0.464563 0.869597 0.057828
O33   O     O_2   0.686045 0.369892 0.935394 -0.200406
O34   O     O_2   0.679043 0.442317 0.736487 -0.317041
O35   O     O_3   0.778649 0.525046 0.889232 -0.456646
H26   H     H_    0.826089 0.478213 0.863551 0.382298
S10   S     S_3+6 0.776705 0.414421 0.243623 0.046536
O36   O     O_2   0.794837 0.482944 0.139283 -0.230079
O37   O     O_2   0.818386 0.317816 0.209255 -0.241874
O38   O     O_3   0.667806 0.397326 0.267313 -0.526923
H27   H     H_    0.660363 0.330070 0.296870 0.403783
H28   H     H_    0.901114 0.628970 0.748791 0.210687

loop_
_geom_bond_atom_site_label_1
_geom_bond_atom_site_label_2
_geom_bond_distance
_ccdc_geom_bond_type
O23   H20   0.990499 S    
S6    O24   1.502749 D    
C7    H5    1.101619 S    
C19   C20   1.389296 A    
S9    O34   1.492133 D    
S5    O21   1.498833 D    
S6    O26   1.681462 S    
C9    H23   1.104884 S    
Cu1   Cu2   2.674568 S    
C2    C10   1.514833 S    
S4    O18   1.501757 D    
C12   S9    1.829698 S    
C9    C12   1.556160 S    
C5    C7    1.559154 S    
C1    C27   1.455886 S    
C37   C42   1.431261 A    
C21   C22   1.414572 A    
C29   H11   1.077786 S    
C38   C41   1.424951 A    
C6    S2    1.815462 S    
C20   C21   1.406509 A    
C7    H3    1.101484 S    
C32   S5    1.778675 S    
S10   O37   1.504794 D    
C14   C15   1.396179 A    
O7    C4    1.295207 A    
C35   C37   1.404018 A    
C12   S8    1.835189 S    
C36   C38   1.399745 A    
O35   H26   0.990591 S    
C41   S6    1.784847 S    
C24   H10   1.084248 S    
C21   C26   1.409640 A    
S1    O10   1.503302 D    
O5    C3    1.298455 A    
O32   H25   0.990371 S    
C8    H6    1.107950 S    
C29   N1    1.376836 A    
S2    O14   1.674416 S    
C30   N2    1.379250 A    
S8    O30   1.497469 D    
C20   H8    1.079712 S    
C4    C11   1.513876 S    
C7    C11   1.564600 S    
Cu2   N2    2.009475 S    
C28   H9    1.085705 S    
C6    C8    1.541880 S    
S4    O19   1.502917 D    
C26   S3    1.772119 S    
S8    O31   1.498889 D    
C39   C40   1.392376 A    
C18   C25   1.415913 A    
O3    Cu1   2.006531 S    
S9    O33   1.499592 D    
N2    C32   1.372380 A    
C9    H24   1.094070 S    
C31   C33   1.418768 A    
C6    C10   1.606755 S    
C22   C23   1.409202 A    
C5    S1    1.816346 S    
C32   C34   1.403472 A    
S2    O12   1.500955 D    
C16   C19   1.397914 A    
C3    C14   1.483571 S    
O3    C2    1.303190 A    
S10   O38   1.661957 S    
C23   C24   1.393139 A    
S3    O16   1.503370 D    
C5    C10   1.584657 S    
C9    C10   1.554029 S    
O14   H16   0.990076 S    
C25   H18   1.077205 S    
C13   S10   1.773164 S    
C13   C18   1.422787 A    
S7    O29   1.681435 S    
S3    O15   1.501080 D    
O1    C1    1.289830 A    
S1    O11   1.678644 S    
Cu1   O7    2.013566 S    
C27   C28   1.393409 A    
C13   C14   1.429079 A    
S3    O17   1.680764 S    
C39   H13   1.079444 S    
S5    O22   1.500840 D    
C15   C16   1.386314 A    
Cu2   O8    2.006520 S    
S7    O28   1.502180 D    
C17   C18   1.413760 A    
C30   H12   1.077361 S    
S2    O13   1.504933 D    
Cu2   O6    1.969801 S    
C24   C25   1.390051 A    
O8    C4    1.298761 A    
O26   H21   0.990659 S    
C33   C35   1.402466 A    
S8    O32   1.685210 S    
C34   C40   1.393963 A    
C26   C27   1.410388 A    
C11   C12   1.588608 S    
O38   H27   0.986133 S    
S5    O23   1.683863 S    
S4    O20   1.682776 S    
C5    H1    1.113970 S    
O1    Cu1   1.969773 S    
C19   H28   1.083545 S    
O2    Cu2   1.974508 S    
C8    H4    1.113619 S    
O11   H15   0.984141 S    
O6    C3    1.300161 A    
O4    Cu2   2.013578 S    
S6    O25   1.503970 D    
C23   C28   1.392044 A    
C8    C11   1.556775 S    
C17   C22   1.410327 A    
C29   C37   1.438607 A    
C40   H14   1.082846 S    
C30   C38   1.436316 A    
C16   C17   1.404453 A    
O2    C1    1.291380 A    
Cu1   N1    2.009518 S    
S10   O36   1.501104 D    
C35   C36   1.421176 A    
O4    C2    1.296724 A    
C33   C39   1.411379 A    
S7    O27   1.502982 D    
C34   C36   1.405294 A    
S1    O9    1.502134 D    
C41   C42   1.441569 A    
Cu1   O5    1.974541 S    
C42   S7    1.783404 S    
O20   H19   0.991051 S    
C6    H2    1.113195 S    
O17   H17   0.990433 S    
C15   H7    1.074659 S    
O29   H22   0.990551 S    
C31   S4    1.803602 S    
N1    C31   1.401668 A    
S9    O35   1.680907 S    
