data_mof_unit_64088.cif
_audit_creation_date              2012-12-10T16:49:21-0500
_audit_creation_method            fapswitch 2.2
_symmetry_space_group_name_H-M    P1
_symmetry_Int_Tables_number       1
_space_group_crystal_system       triclinic
_cell_length_a                    18.860431
_cell_length_b                    18.765709
_cell_length_c                    18.771917
_cell_angle_alpha                 109.366319
_cell_angle_beta                  109.341693
_cell_angle_gamma                 109.398212
_cell_volume                      5133.81445738

loop_
_atom_site_label
_atom_site_type_symbol
_atom_type_description
_atom_site_fract_x
_atom_site_fract_y
_atom_site_fract_z
_atom_type_partial_charge
C1    C     C_R   0.380895 0.383208 0.502298 0.915961
C2    C     C_2   0.313239 0.323818 0.506752 -0.331794
C3    C     C_2   0.422659 0.165978 0.186239 -0.177805
C4    C     C_R   0.497518 0.616688 0.619575 0.873241
C5    C     C_2   0.481341 0.185155 0.159802 -0.006524
C6    C     C_2   0.416202 0.234499 0.245801 0.215696
C7    C     C_2   0.490441 0.302251 0.316798 -0.344882
C8    C     C_2   0.819060 0.740645 0.493373 -0.157413
C9    C     C_2   0.823717 0.817695 0.511142 -0.332712
C10   C     C_2   0.757637 0.679192 0.504240 -0.154416
C11   C     C_2   0.681637 0.675787 0.487757 -0.338750
C12   C     C_R   0.494567 0.669166 0.757593 0.100166
C13   C     C_R   0.381396 0.995808 0.876177 0.936512
C14   C     C_R   0.502993 0.877414 0.880436 0.872947
C15   C     C_R   0.618818 0.998192 0.117592 0.944585
C16   C     C_R   0.618619 0.616761 0.497192 0.942142
C17   C     C_R   0.495675 0.117156 0.111965 0.920565
C18   C     C_R   0.883810 0.003275 0.381440 0.942191
C19   C     C_R   0.121364 0.118729 0.502067 0.929443
C20   C     C_R   0.116863 0.997434 0.618671 0.928786
C21   C     C_R   0.883163 0.881221 0.502490 0.932347
C22   C     C_2   0.180662 0.920623 0.673361 -0.155990
C23   C     C_R   0.494877 0.678841 0.686152 -0.104607
C24   C     C_2   0.176358 0.993205 0.686531 -0.331619
C25   C     C_2   0.242057 0.920219 0.745243 -0.153094
C26   C     C_2   0.318327 0.992399 0.804333 -0.337403
C27   C     C_2   0.824072 0.081513 0.320720 0.216362
C28   C     C_R   0.496202 0.376364 0.380529 0.938599
C29   C     C_2   0.824380 0.007765 0.313501 -0.345687
C30   C     C_2   0.760839 0.076060 0.245020 -0.157414
C31   C     C_2   0.682364 0.005079 0.191931 -0.387997
C32   C     C_R   0.483937 0.592363 0.761248 -0.174418
C33   C     C_R   0.488944 0.587169 0.834972 -0.141064
C34   C     C_R   0.499141 0.752211 0.680609 -0.207465
C35   C     C_R   0.504633 0.657929 0.906053 -0.138084
C36   C     C_R   0.512305 0.733005 0.902483 -0.175626
C37   C     C_R   0.504118 0.738268 0.826886 0.098968
C38   C     C_3   0.528351 0.274163 0.169357 -0.871602
C39   C     C_3   0.328242 0.223528 0.228344 -0.842714
C40   C     C_3   0.889222 0.169696 0.400504 -0.839257
C41   C     C_R   0.504414 0.817909 0.746398 -0.207575
C42   C     C_R   0.506165 0.811020 0.818534 -0.106894
C43   C     C_2   0.253368 0.258068 0.579104 -0.153208
C44   C     C_2   0.193841 0.181997 0.506465 -0.335432
C45   C     C_2   0.325812 0.319290 0.579133 -0.159663
H1    H     H_    0.499582 0.759130 0.625632 0.158457
H2    H     H_    0.470642 0.535423 0.707220 0.143224
H3    H     H_    0.212851 0.049757 0.751243 0.156810
H4    H     H_    0.226064 0.860216 0.747767 0.166897
H5    H     H_    0.338311 0.049190 0.796149 0.156168
H6    H     H_    0.783922 0.947992 0.251057 0.130706
H7    H     H_    0.777758 0.131504 0.234467 0.170868
H8    H     H_    0.661674 0.953163 0.206862 0.154516
H9    H     H_    0.481320 0.528295 0.837188 0.131690
H10   H     H_    0.510277 0.654449 0.963949 0.135148
H11   H     H_    0.525775 0.786773 0.959773 0.150002
H12   H     H_    0.248829 0.287871 0.450362 0.157256
H13   H     H_    0.505726 0.873778 0.740376 0.160613
H14   H     H_    0.250644 0.273984 0.638960 0.164038
H15   H     H_    0.202181 0.161918 0.449827 0.157571
H16   H     H_    0.387766 0.362588 0.638876 0.156028
H17   H     H_    0.524205 0.266479 0.106597 0.244987
H18   H     H_    0.499650 0.315721 0.185962 0.252064
H19   H     H_    0.597603 0.308323 0.219519 0.235596
H20   H     H_    0.276249 0.159376 0.170483 0.226234
H21   H     H_    0.319897 0.227301 0.285113 0.227482
H22   H     H_    0.320786 0.274830 0.215238 0.253053
H23   H     H_    0.381934 0.099254 0.168227 0.149715
H24   H     H_    0.881957 0.222124 0.389576 0.218868
H25   H     H_    0.879297 0.172682 0.456258 0.253578
H26   H     H_    0.956036 0.182521 0.416777 0.233947
H27   H     H_    0.550605 0.300728 0.331504 0.144295
H28   H     H_    0.862412 0.724170 0.474320 0.163256
H29   H     H_    0.787543 0.838051 0.539839 0.158148
H30   H     H_    0.773424 0.635018 0.522613 0.164818
H31   H     H_    0.661810 0.712735 0.459713 0.156168
H32   H     H_    0.137009 0.860863 0.611158 0.163854
O1    O     O_R   0.460610 0.409240 0.550770 -0.623765
O2    O     O_R   0.909530 0.949160 0.358700 -0.624466
O3    O     O_R   0.090460 0.141840 0.551380 -0.620086
O4    O     O_R   0.358470 0.409870 0.449260 -0.625005
O5    O     O_R   0.090460 0.039050 0.448590 -0.622037
O6    O     O_R   0.090470 0.050840 0.641300 -0.626402
O7    O     O_R   0.090460 0.948050 0.538510 -0.619124
O8    O     O_R   0.909540 0.960950 0.551410 -0.622535
O9    O     O_R   0.909540 0.858160 0.448620 -0.619712
O10   O     O_R   0.551070 0.590720 0.641790 -0.625093
O11   O     O_R   0.448930 0.591350 0.540280 -0.621056
O12   O     O_R   0.358520 0.946380 0.906940 -0.615036
O13   O     O_R   0.641530 0.590130 0.550740 -0.612530
O14   O     O_R   0.539390 0.590760 0.449230 -0.624245
O15   O     O_R   0.551070 0.408650 0.459720 -0.626921
O16   O     O_R   0.448930 0.409280 0.358210 -0.613066
O17   O     O_R   0.460650 0.048500 0.906910 -0.627504
O18   O     O_R   0.551120 0.956920 0.905770 -0.620098
O19   O     O_R   0.449000 0.854790 0.905800 -0.628149
O20   O     O_R   0.641600 0.047410 0.086710 -0.617257
O21   O     O_R   0.539480 0.945290 0.086740 -0.630921
O22   O     O_R   0.551130 0.138990 0.087850 -0.616044
O23   O     O_R   0.449000 0.036870 0.087880 -0.637311
O24   O     O_R   0.909540 0.051950 0.461490 -0.611426
Zn1   Zn    Zn3+2 0.568200 0.499580 0.567780 0.951183
Zn2   Zn    Zn3+2 0.431800 0.500420 0.432220 0.948822
Zn3   Zn    Zn3+2 0.568250 0.065080 0.996810 0.949726
Zn4   Zn    Zn3+2 0.431870 0.928710 0.996840 0.945920
Zn5   Zn    Zn3+2 0.000000 0.068630 0.568630 0.948929
Zn6   Zn    Zn3+2 0.000000 0.931370 0.431370 0.951758

loop_
_geom_bond_atom_site_label_1
_geom_bond_atom_site_label_2
_ccdc_geom_bond_type
O19   Zn4   S    
C16   O13   A    
C40   H26   S    
O1    Zn1   S    
C41   C42   A    
O9    Zn6   S    
C3    C6    S    
O16   Zn2   S    
C2    H12   S    
C4    O10   A    
C19   C44   S    
C12   C23   A    
O23   Zn4   S    
O21   Zn4   S    
C40   H25   S    
C36   C37   A    
C3    H23   S    
C41   H13   S    
C11   H31   S    
C26   H5    S    
C29   H6    S    
C30   C31   D    
C27   C29   D    
C1    O4    A    
O3    Zn5   S    
C12   C37   A    
O7    Zn6   S    
C1    C2    S    
C11   C16   S    
C37   C42   A    
O13   Zn1   S    
C33   C35   A    
C20   C24   S    
C18   O2    A    
C22   C25   S    
C34   H1    S    
C19   O5    A    
O15   Zn1   S    
C14   C42   S    
O22   Zn3   S    
O17   Zn3   S    
C5    C38   S    
C12   C32   A    
C27   C30   S    
C1    O1    A    
C39   H20   S    
C34   C41   A    
C15   O20   A    
C14   O19   A    
C38   H19   S    
C2    C45   D    
C21   O8    A    
C40   H24   S    
C35   H10   S    
C24   H3    S    
C7    H27   S    
C4    C23   S    
C8    C9    D    
C25   C26   D    
C7    C28   S    
C28   O16   A    
C18   O24   A    
C43   C44   D    
C36   H11   S    
O10   Zn1   S    
C43   C45   S    
C10   H30   S    
C27   C40   S    
C23   C34   A    
O2    Zn6   S    
C28   O15   A    
C18   C29   S    
O5    Zn6   S    
C31   H8    S    
C17   O22   A    
C20   O7    A    
C32   H2    S    
C22   C24   D    
C13   C26   S    
C9    H29   S    
C15   O21   A    
O8    Zn5   S    
C14   O18   A    
O24   Zn5   S    
O11   Zn2   S    
O18   Zn3   S    
C38   H18   S    
O4    Zn2   S    
C33   H9    S    
C30   H7    S    
C21   O9    A    
C13   O12   A    
C39   H22   S    
C22   H32   S    
O14   Zn2   S    
C3    C5    D    
C15   C31   S    
C6    C7    D    
C4    O11   A    
C43   H14   S    
O6    Zn5   S    
C13   O17   A    
C32   C33   A    
C9    C21   S    
C44   H15   S    
C45   H16   S    
C8    H28   S    
C39   H21   S    
C19   O3    A    
C17   O23   A    
C25   H4    S    
O20   Zn3   S    
C10   C11   D    
C5    C17   S    
C16   O14   A    
C8    C10   S    
C20   O6    A    
O12   Zn4   S    
C6    C39   S    
C35   C36   A    
C38   H17   S    
