data_mof_unit_60718.cif
_audit_creation_date              2012-12-10T19:50:21-0500
_audit_creation_method            fapswitch 2.2
_symmetry_space_group_name_H-M    P1
_symmetry_Int_Tables_number       1
_space_group_crystal_system       triclinic
_cell_length_a                    36.805627
_cell_length_b                    18.262111
_cell_length_c                    18.265808
_cell_angle_alpha                 90.076713
_cell_angle_beta                  119.931627
_cell_angle_gamma                 89.908177
_cell_volume                      10639.7857148

loop_
_atom_site_label
_atom_site_type_symbol
_atom_type_description
_atom_site_fract_x
_atom_site_fract_y
_atom_site_fract_z
_atom_type_partial_charge
C1    C     C_R   0.500062 0.999960 0.358835 0.939719
C2    C     C_1   0.336881 0.002125 0.343471 0.108105
C3    C     C_3   0.757800 0.364391 0.473381 -0.979821
C4    C     C_3   0.776680 0.637498 0.441239 0.043827
C5    C     C_3   0.810886 0.662204 0.528159 -0.858292
C6    C     C_3   0.215024 0.356708 0.557049 0.111813
C7    C     C_3   0.231431 0.373632 0.497164 -0.885931
C8    C     C_3   0.675129 0.840393 0.673424 0.100616
C9    C     C_3   0.673426 0.757236 0.674682 -0.847318
C10   C     C_3   0.324090 0.169270 0.342517 0.139383
C11   C     C_3   0.344714 0.185196 0.289871 -0.864125
C12   C     C_3   0.295261 0.804796 0.334384 0.245920
C13   C     C_1   0.163134 0.499796 0.657000 0.022230
C14   C     C_3   0.298072 0.743214 0.281359 -0.866939
C15   C     C_3   0.671789 0.163970 0.637405 0.141936
C16   C     C_3   0.646136 0.187755 0.677747 -0.837325
C17   C     C_3   0.175131 0.340389 0.672932 0.100638
C18   C     C_3   0.173428 0.257222 0.673932 -0.847351
C19   C     C_3   0.824092 0.669194 0.343394 0.139388
C20   C     C_3   0.844714 0.685512 0.290832 -0.864113
C21   C     C_3   0.795263 0.304618 0.333357 0.245895
C22   C     C_3   0.798073 0.243331 0.280008 -0.866888
C23   C     C_3   0.171787 0.664066 0.637885 0.141946
C24   C     C_1   0.836882 0.502112 0.343478 0.108090
C25   C     C_3   0.146129 0.687658 0.678285 -0.837297
C26   C     C_3   0.824435 0.844271 0.736455 0.097118
C27   C     C_3   0.848703 0.779178 0.790774 -0.785366
C28   C     C_3   0.176268 0.163814 0.250173 0.113743
C29   C     C_3   0.153340 0.226599 0.189939 -0.788566
C30   C     C_3   0.180557 0.825937 0.215315 0.111954
C31   C     C_3   0.162805 0.770854 0.143289 -0.806299
C32   C     C_3   0.817170 0.176945 0.783656 0.129160
C33   C     C_3   0.832396 0.236231 0.851019 -0.791673
C34   C     C_3   0.324430 0.344541 0.735939 0.097134
C35   C     C_1   0.625623 0.999844 0.622383 -0.239380
C36   C     C_3   0.348669 0.279302 0.789983 -0.785368
C37   C     C_3   0.676272 0.663452 0.251026 0.113733
C38   C     C_3   0.653369 0.726469 0.191165 -0.788544
C39   C     C_3   0.680558 0.325778 0.214396 0.111977
C40   C     C_3   0.662804 0.270985 0.142077 -0.806327
C41   C     C_3   0.317163 0.677051 0.784232 0.129200
C42   C     C_3   0.332380 0.736172 0.851782 -0.791666
C43   C     C_1   0.374356 0.000540 0.377880 -0.194392
C44   C     C_1   0.125623 0.499847 0.622381 -0.239377
C45   C     C_1   0.874356 0.500537 0.377881 -0.194381
C46   C     C_1   0.500143 0.999892 0.282512 -0.191738
C47   C     C_1   0.499863 0.000117 0.717493 -0.192062
C48   C     C_1   0.000143 0.499892 0.282513 -0.191726
C49   C     C_R   0.499945 0.000043 0.641172 0.939474
C50   C     C_1   0.999863 0.500117 0.717493 -0.192072
C51   C     C_1   0.500158 0.999912 0.217782 -0.188915
C52   C     C_1   0.499845 0.000100 0.782220 -0.189667
C53   C     C_1   0.000158 0.499912 0.217782 -0.188910
C54   C     C_1   0.999844 0.500100 0.782220 -0.189674
C55   C     C_R   0.000028 0.141044 0.000071 0.935121
C56   C     C_R   0.999979 0.858956 0.999935 0.935114
C57   C     C_R   0.500028 0.641044 0.000071 0.935122
C58   C     C_R   0.499979 0.358956 0.999935 0.935112
C59   C     C_R   0.918804 0.999879 0.918600 0.902744
C60   C     C_R   0.000062 0.499960 0.358836 0.939728
C61   C     C_R   0.081199 0.999955 0.081402 0.902741
C62   C     C_R   0.418804 0.499878 0.918600 0.902750
C63   C     C_R   0.581199 0.499958 0.081402 0.902746
C64   C     C_R   0.500021 0.858707 0.000059 0.934617
C65   C     C_R   0.499980 0.141293 0.999938 0.934415
C66   C     C_R   0.000021 0.358707 0.000059 0.934618
C67   C     C_R   0.999980 0.641293 0.999939 0.934414
C68   C     C_R   0.500056 0.999974 0.141273 0.934413
C69   C     C_R   0.499944 0.000035 0.858727 0.934418
C70   C     C_R   0.000056 0.499974 0.141273 0.934412
C71   C     C_R   0.999945 0.500042 0.641172 0.939462
C72   C     C_R   0.999944 0.500035 0.858727 0.934421
C73   C     C_1   0.000059 0.217488 0.000179 -0.198725
C74   C     C_1   0.999949 0.782513 0.999826 -0.198872
C75   C     C_1   0.500059 0.717487 0.000179 -0.198721
C76   C     C_1   0.499949 0.282513 0.999827 -0.198875
C77   C     C_R   0.581213 0.999958 0.580849 0.911110
C78   C     C_R   0.418779 0.000070 0.419197 0.903333
C79   C     C_R   0.081213 0.499958 0.580848 0.911117
C80   C     C_R   0.918779 0.500070 0.419196 0.903325
C81   C     C_1   0.500061 0.782260 0.000166 -0.193367
C82   C     C_1   0.836922 0.998510 0.833289 0.039494
C83   C     C_1   0.499944 0.217741 0.999835 -0.193484
C84   C     C_1   0.000061 0.282260 0.000165 -0.193385
C85   C     C_1   0.999944 0.717741 0.999835 -0.193478
C86   C     C_3   0.725795 0.071204 0.677816 0.784551
C87   C     C_3   0.275320 0.930318 0.322472 0.789574
C88   C     C_3   0.273941 0.074807 0.323400 0.770888
C89   C     C_3   0.725577 0.927043 0.676876 0.804331
C90   C     C_3   0.225796 0.571344 0.678033 0.784523
C91   C     C_3   0.775320 0.430095 0.322101 0.789578
C92   C     C_3   0.773942 0.574571 0.323783 0.770902
C93   C     C_1   0.163096 0.000356 0.166680 0.039575
C94   C     C_3   0.225577 0.427186 0.676646 0.804352
C95   C     C_3   0.774790 0.934222 0.718575 0.202150
C96   C     C_3   0.224341 0.068191 0.277038 0.210894
C97   C     C_3   0.225202 0.928759 0.268720 0.149011
C98   C     C_3   0.775445 0.071219 0.734210 0.209247
C99   C     C_3   0.274790 0.434392 0.718363 0.202132
C100  C     C_3   0.724342 0.567938 0.277388 0.210874
C101  C     C_3   0.725203 0.428554 0.268341 0.149022
C102  C     C_3   0.275445 0.571342 0.734439 0.209261
C103  C     C_1   0.874392 0.999174 0.873227 -0.215536
C104  C     C_1   0.336922 0.498515 0.833285 0.039469
C105  C     C_1   0.125619 0.000102 0.126769 -0.220315
C106  C     C_1   0.374392 0.499174 0.873225 -0.215541
C107  C     C_1   0.625619 0.500105 0.126769 -0.220331
C108  C     C_3   0.708983 0.999105 0.700217 -0.024591
C109  C     C_3   0.290988 0.003480 0.300511 -0.018784
C110  C     C_3   0.208982 0.499123 0.700211 -0.024596
C111  C     C_3   0.790988 0.503454 0.300524 -0.018791
C112  C     C_3   0.791146 0.998261 0.784037 -0.002335
C113  C     C_3   0.208878 0.000966 0.215956 0.015221
C114  C     C_3   0.291146 0.498274 0.784031 -0.002333
C115  C     C_1   0.663096 0.500354 0.166678 0.039563
C116  C     C_3   0.708878 0.500950 0.215956 0.015219
C117  C     C_3   0.773676 0.990364 0.845198 -0.356325
C118  C     C_3   0.226224 0.006780 0.154427 -0.349004
C119  C     C_3   0.273676 0.490125 0.845164 -0.356316
C120  C     C_3   0.726225 0.507177 0.154458 -0.348996
C121  C     C_3   0.725674 0.998477 0.796815 -0.529548
C122  C     C_3   0.274413 0.004875 0.203608 -0.511108
C123  C     C_3   0.225674 0.498248 0.796807 -0.529534
C124  C     C_3   0.774413 0.505267 0.203630 -0.511097
C125  C     C_3   0.728052 0.127233 0.561204 0.061172
C126  C     C_1   0.663134 0.999786 0.657003 0.022226
C127  C     C_3   0.695319 0.147852 0.471270 -0.833667
C128  C     C_3   0.272809 0.937210 0.455479 0.123228
C129  C     C_3   0.257804 0.865496 0.474100 -0.979674
C130  C     C_3   0.276677 0.138327 0.440529 0.043884
C131  C     C_3   0.310880 0.163297 0.527329 -0.858346
C132  C     C_3   0.715027 0.856227 0.557500 0.111791
C133  C     C_3   0.731438 0.872909 0.497568 -0.885876
C134  C     C_3   0.228061 0.627728 0.561597 0.061182
C135  C     C_3   0.195332 0.648517 0.471721 -0.833697
C136  C     C_3   0.772809 0.436279 0.455141 0.123274
H1    H     H_    0.787541 0.032395 0.896076 0.220702
H2    H     H_    0.211008 0.926273 0.309651 0.020385
H3    H     H_    0.871932 0.760218 0.772950 0.203603
H4    H     H_    0.865549 0.795207 0.858481 0.255576
H5    H     H_    0.192434 0.185511 0.315737 0.111120
H6    H     H_    0.152556 0.122676 0.243631 0.134149
H7    H     H_    0.136375 0.206112 0.123864 0.254078
H8    H     H_    0.130328 0.251186 0.205305 0.203378
H9    H     H_    0.176071 0.269348 0.195786 0.257805
H10   H     H_    0.154228 0.860437 0.209077 0.136627
H11   H     H_    0.194309 0.795460 0.275897 0.119637
H12   H     H_    0.188104 0.734175 0.148616 0.250310
H13   H     H_    0.214635 0.057458 0.324752 -0.031826
H14   H     H_    0.138325 0.737222 0.145755 0.209000
H15   H     H_    0.148568 0.799991 0.081760 0.257188
H16   H     H_    0.801430 0.203703 0.720615 0.117997
H17   H     H_    0.844968 0.145788 0.791811 0.127991
H18   H     H_    0.848685 0.210951 0.914816 0.254287
H19   H     H_    0.854601 0.273038 0.844482 0.202808
H20   H     H_    0.805389 0.269019 0.843962 0.259977
H21   H     H_    0.347246 0.388653 0.745912 0.135236
H22   H     H_    0.308593 0.327635 0.668565 0.126944
H23   H     H_    0.326802 0.233655 0.780297 0.256612
H24   H     H_    0.781662 0.949039 0.667358 0.035269
H25   H     H_    0.371894 0.260474 0.772088 0.203597
H26   H     H_    0.365517 0.295113 0.857758 0.255592
H27   H     H_    0.692437 0.684855 0.316718 0.111070
H28   H     H_    0.652546 0.622235 0.244224 0.134233
H29   H     H_    0.636406 0.706278 0.124967 0.254087
H30   H     H_    0.630359 0.750857 0.206661 0.203339
H31   H     H_    0.676117 0.769295 0.197285 0.257797
H32   H     H_    0.654230 0.360171 0.208345 0.136578
H33   H     H_    0.694310 0.295053 0.274815 0.119650
H34   H     H_    0.688102 0.234413 0.147208 0.250320
H35   H     H_    0.289618 0.573557 0.692974 -0.016069
H36   H     H_    0.638324 0.237211 0.144366 0.209005
H37   H     H_    0.648567 0.300375 0.080706 0.257205
H38   H     H_    0.301424 0.703958 0.721277 0.117994
H39   H     H_    0.344965 0.645966 0.792298 0.127958
H40   H     H_    0.348668 0.710743 0.915500 0.254285
H41   H     H_    0.354583 0.773080 0.845368 0.202807
H42   H     H_    0.305368 0.768887 0.844822 0.259991
H43   H     H_    0.716745 0.049947 0.816577 0.244262
H44   H     H_    0.285556 0.956296 0.183536 0.239002
H45   H     H_    0.286672 0.053270 0.185918 0.225057
H46   H     H_    0.711008 0.425780 0.309257 0.020381
H47   H     H_    0.711594 0.952878 0.814600 0.212383
H48   H     H_    0.216748 0.549631 0.816729 0.244274
H49   H     H_    0.785557 0.456852 0.183304 0.238997
H50   H     H_    0.786673 0.553818 0.186194 0.225057
H51   H     H_    0.211591 0.452553 0.814449 0.212379
H52   H     H_    0.714635 0.556905 0.325045 -0.031810
H53   H     H_    0.281660 0.449398 0.667192 0.035273
H54   H     H_    0.756319 0.108370 0.559485 0.143862
H55   H     H_    0.736353 0.176988 0.601420 0.142486
H56   H     H_    0.707691 0.192059 0.448043 0.203209
H57   H     H_    0.214198 0.961152 0.107787 0.222539
H58   H     H_    0.687694 0.099505 0.429146 0.271421
H59   H     H_    0.666251 0.167587 0.469015 0.236656
H60   H     H_    0.247407 0.977749 0.425478 0.112140
H61   H     H_    0.294946 0.962036 0.517563 0.207303
H62   H     H_    0.284496 0.826795 0.506480 0.265146
H63   H     H_    0.244527 0.876260 0.515925 0.233010
H64   H     H_    0.233164 0.839798 0.415370 0.231619
H65   H     H_    0.249650 0.119908 0.446892 0.130289
H66   H     H_    0.266726 0.186230 0.397298 0.174802
H67   H     H_    0.338530 0.182988 0.523967 0.245785
H68   H     H_    0.215391 0.058628 0.117694 0.224112
H69   H     H_    0.298975 0.208654 0.550240 0.206999
H70   H     H_    0.320583 0.117114 0.572807 0.264269
H71   H     H_    0.685111 0.825801 0.521307 0.153006
H72   H     H_    0.737332 0.819070 0.608140 0.175177
H73   H     H_    0.761722 0.902551 0.531230 0.240383
H74   H     H_    0.736323 0.820983 0.471894 0.203171
H75   H     H_    0.708445 0.907209 0.444293 0.279095
H76   H     H_    0.256329 0.608954 0.559830 0.143842
H77   H     H_    0.236360 0.677388 0.601961 0.142468
H78   H     H_    0.207707 0.692828 0.448629 0.203109
H79   H     H_    0.782386 0.935827 0.876487 0.228399
H80   H     H_    0.187709 0.600272 0.429454 0.271421
H81   H     H_    0.166262 0.668173 0.469514 0.236663
H82   H     H_    0.747408 0.476843 0.425352 0.112141
H83   H     H_    0.794945 0.460895 0.517354 0.207291
H84   H     H_    0.784491 0.325658 0.505559 0.265147
H85   H     H_    0.744523 0.374868 0.515261 0.232986
H86   H     H_    0.733159 0.338874 0.414516 0.231649
H87   H     H_    0.749656 0.618906 0.447517 0.130309
H88   H     H_    0.766724 0.685569 0.398251 0.174800
H89   H     H_    0.838537 0.682044 0.524890 0.245771
H90   H     H_    0.287543 0.532033 0.896182 0.220703
H91   H     H_    0.798985 0.707392 0.551296 0.207023
H92   H     H_    0.820590 0.615844 0.573406 0.264269
H93   H     H_    0.185108 0.326300 0.520765 0.153002
H94   H     H_    0.237331 0.319464 0.607572 0.175196
H95   H     H_    0.261716 0.403263 0.530914 0.240381
H96   H     H_    0.236314 0.321802 0.471323 0.203165
H97   H     H_    0.208437 0.408027 0.443999 0.279098
H98   H     H_    0.655492 0.858676 0.606953 0.167704
H99   H     H_    0.661157 0.861752 0.710842 0.154153
H100  H     H_    0.691407 0.737005 0.740733 0.271006
H101  H     H_    0.714198 0.461730 0.107580 0.222542
H102  H     H_    0.640362 0.738935 0.646471 0.211355
H103  H     H_    0.687068 0.733589 0.637668 0.239122
H104  H     H_    0.345787 0.135266 0.397417 0.174834
H105  H     H_    0.320101 0.222169 0.367729 0.149526
H106  H     H_    0.324412 0.221962 0.236468 0.267645
H107  H     H_    0.375445 0.212285 0.329723 0.218853
H108  H     H_    0.349934 0.133518 0.264406 0.247838
H109  H     H_    0.268375 0.793334 0.344096 0.143259
H110  H     H_    0.324693 0.805122 0.396612 0.163181
H111  H     H_    0.325495 0.751893 0.272500 0.259458
H112  H     H_    0.715392 0.559160 0.117998 0.224110
H113  H     H_    0.301724 0.689945 0.313585 0.199823
H114  H     H_    0.269096 0.741673 0.218567 0.275937
H115  H     H_    0.652649 0.125794 0.584782 0.180949
H116  H     H_    0.677925 0.213464 0.610061 0.143066
H117  H     H_    0.663325 0.230457 0.726245 0.259189
H118  H     H_    0.615598 0.210544 0.628748 0.214092
H119  H     H_    0.640245 0.140329 0.708332 0.259050
H120  H     H_    0.155493 0.358816 0.606518 0.167678
H121  H     H_    0.161160 0.361587 0.710418 0.154173
H122  H     H_    0.191411 0.236842 0.739920 0.271004
H123  H     H_    0.282382 0.435513 0.876274 0.228403
H124  H     H_    0.140365 0.238904 0.645668 0.211352
H125  H     H_    0.187069 0.233733 0.636842 0.239118
H126  H     H_    0.845790 0.635012 0.398110 0.174789
H127  H     H_    0.820104 0.721936 0.368890 0.149516
H128  H     H_    0.824412 0.722460 0.237632 0.267614
H129  H     H_    0.875447 0.712545 0.330828 0.218833
H130  H     H_    0.849928 0.633999 0.265082 0.247891
H131  H     H_    0.768378 0.292963 0.343011 0.143276
H132  H     H_    0.824696 0.304774 0.395584 0.163196
H133  H     H_    0.825494 0.252202 0.271191 0.259461
H134  H     H_    0.789614 0.073250 0.692730 -0.016050
H135  H     H_    0.801726 0.189912 0.311955 0.199847
H136  H     H_    0.769095 0.241966 0.217211 0.275938
H137  H     H_    0.152649 0.625988 0.585148 0.180975
H138  H     H_    0.177927 0.713657 0.610692 0.143077
H139  H     H_    0.163316 0.730267 0.726911 0.259200
H140  H     H_    0.115593 0.710503 0.629347 0.214093
H141  H     H_    0.140235 0.640125 0.708724 0.259022
H142  H     H_    0.847233 0.888359 0.746232 0.135164
H143  H     H_    0.808599 0.827149 0.669152 0.126974
H144  H     H_    0.826855 0.733552 0.781292 0.256633
O1    O     O_R   0.500010 0.060620 0.392670 -0.621090
O2    O     O_R   0.438570 0.939380 0.438570 -0.608017
O3    O     O_R   0.438570 0.060620 0.438570 -0.625883
O4    O     O_R   0.561430 0.939380 0.561430 -0.626304
O5    O     O_R   0.061430 0.560620 0.561430 -0.619663
O6    O     O_R   0.938570 0.439380 0.438570 -0.607991
O7    O     O_R   0.938570 0.560620 0.438570 -0.625899
O8    O     O_R   0.061430 0.439380 0.561430 -0.626319
O9    O     O_R   0.000000 0.107140 0.939380 -0.619887
O10   O     O_R   0.000000 0.892860 0.060620 -0.619851
O11   O     O_R   0.000000 0.107140 0.060620 -0.619942
O12   O     O_R   0.499990 0.939380 0.607330 -0.619392
O13   O     O_R   0.000000 0.892860 0.939380 -0.620151
O14   O     O_R   0.500000 0.607140 0.939380 -0.619887
O15   O     O_R   0.500000 0.392860 0.060620 -0.619852
O16   O     O_R   0.500000 0.607140 0.060620 -0.619939
O17   O     O_R   0.500000 0.392860 0.939380 -0.620147
O18   O     O_R   0.938580 0.000000 0.877970 -0.628807
O19   O     O_R   0.061420 0.000000 0.122030 -0.628388
O20   O     O_R   0.438580 0.500000 0.877970 -0.628806
O21   O     O_R   0.561420 0.500000 0.122030 -0.628387
O22   O     O_R   0.938570 0.000000 0.999140 -0.609475
O23   O     O_R   0.499990 0.060620 0.607330 -0.620941
O24   O     O_R   0.061430 0.000000 0.000860 -0.610001
O25   O     O_R   0.438570 0.500000 0.999140 -0.609477
O26   O     O_R   0.561430 0.500000 0.000860 -0.610005
O27   O     O_R   0.534690 0.892630 0.034650 -0.621290
O28   O     O_R   0.465310 0.107370 0.965350 -0.620587
O29   O     O_R   0.465310 0.892630 0.965350 -0.623354
O30   O     O_R   0.534690 0.107370 0.034650 -0.623908
O31   O     O_R   0.034690 0.392630 0.034650 -0.621338
O32   O     O_R   0.965310 0.607370 0.965350 -0.620613
O33   O     O_R   0.965310 0.392630 0.965350 -0.623321
O34   O     O_R   0.500010 0.939380 0.392670 -0.619441
O35   O     O_R   0.034690 0.607370 0.034650 -0.623863
O36   O     O_R   0.534680 0.000000 0.141990 -0.621740
O37   O     O_R   0.465320 0.000000 0.858010 -0.622004
O38   O     O_R   0.034680 0.500000 0.141990 -0.621750
O39   O     O_R   0.965320 0.500000 0.858010 -0.622023
O40   O     O_R   0.465320 0.000000 0.072630 -0.619971
O41   O     O_R   0.534680 0.000000 0.927370 -0.620608
O42   O     O_R   0.965320 0.500000 0.072630 -0.619960
O43   O     O_R   0.034680 0.500000 0.927370 -0.620592
O44   O     O_3   0.712519 0.069112 0.589373 -0.636540
O45   O     O_R   0.000010 0.560620 0.392670 -0.621066
O46   O     O_3   0.295760 0.924523 0.413427 -0.653807
O47   O     O_3   0.291882 0.078915 0.413202 -0.672935
O48   O     O_3   0.706769 0.922730 0.586908 -0.629648
O49   O     O_3   0.212524 0.569478 0.589587 -0.636538
O50   O     O_3   0.795760 0.423931 0.413025 -0.653799
O51   O     O_3   0.791883 0.578305 0.413605 -0.672942
O52   O     O_3   0.206766 0.423093 0.586665 -0.629645
O53   O     O_3   0.717591 0.862774 0.712035 -0.597058
O54   O     O_3   0.283882 0.138156 0.290103 -0.589892
O55   O     O_3   0.290731 0.872241 0.292531 -0.592698
O56   O     O_R   0.999990 0.439380 0.607330 -0.619372
O57   O     O_3   0.710581 0.134771 0.700783 -0.595815
O58   O     O_3   0.217592 0.362783 0.711608 -0.597061
O59   O     O_3   0.783884 0.638144 0.290818 -0.589887
O60   O     O_3   0.790731 0.372257 0.291857 -0.592713
O61   O     O_3   0.210577 0.634793 0.701184 -0.595818
O62   O     O_3   0.794697 0.867393 0.759326 -0.554855
O63   O     O_3   0.205633 0.133401 0.230178 -0.552706
O64   O     O_3   0.211664 0.868377 0.211318 -0.559933
O65   O     O_3   0.788929 0.130650 0.792693 -0.551947
O66   O     O_3   0.294697 0.367497 0.758898 -0.554865
O67   O     O_R   0.999990 0.560620 0.607330 -0.620967
O68   O     O_3   0.705635 0.633293 0.230868 -0.552716
O69   O     O_3   0.711665 0.368403 0.210623 -0.559929
O70   O     O_3   0.288923 0.630627 0.793114 -0.551944
O71   O     O_R   0.000010 0.439380 0.392670 -0.619459
O72   O     O_R   0.561430 0.060620 0.561430 -0.619672
Zn1   Zn    Zn3+2 0.500000 0.080950 0.500000 0.948231
Zn2   Zn    Zn3+2 0.453690 0.000000 0.953700 0.960538
Zn3   Zn    Zn3+2 0.046310 0.500000 0.046300 0.959887
Zn4   Zn    Zn3+2 0.953690 0.500000 0.953700 0.960525
Zn5   Zn    Zn3+2 0.500000 0.919050 0.500000 0.961508
Zn6   Zn    Zn3+2 0.000000 0.580950 0.500000 0.948227
Zn7   Zn    Zn3+2 0.000000 0.419050 0.500000 0.961514
Zn8   Zn    Zn3+2 0.000010 0.000000 0.919080 0.955043
Zn9   Zn    Zn3+2 0.999990 0.000000 0.080920 0.955937
Zn10  Zn    Zn3+2 0.500010 0.500000 0.919080 0.955042
Zn11  Zn    Zn3+2 0.499990 0.500000 0.080920 0.955931
Zn12  Zn    Zn3+2 0.546310 0.000000 0.046300 0.959895

loop_
_geom_bond_atom_site_label_1
_geom_bond_atom_site_label_2
_ccdc_geom_bond_type
C41   H38   S    
C133  H74   S    
C19   C20   S    
C33   H20   S    
C55   O11   A    
O25   Zn11  S    
O15   Zn11  S    
C10   H105  S    
C100  H52   S    
C1    C46   S    
C66   O33   A    
C12   H109  S    
O24   Zn8   S    
C100  O68   S    
C69   O37   A    
C128  H61   S    
C87   O46   S    
O4    Zn5   S    
C6    O52   S    
C61   C105  S    
O36   Zn12  S    
O43   Zn3   S    
C120  H101  S    
C59   O22   A    
C21   C22   S    
C88   O47   S    
C104  C106  T    
C7    H96   S    
C90   O61   S    
C38   H31   S    
C118  H68   S    
C67   C85   S    
C31   H14   S    
O33   Zn4   S    
C97   O64   S    
O14   Zn10  S    
O39   Zn4   S    
C102  C114  S    
C127  H59   S    
C110  C123  S    
C16   H117  S    
O72   Zn1   S    
C125  H55   S    
C102  O70   S    
C6    C7    S    
C14   H114  S    
C88   C109  S    
C3    H86   S    
O20   Zn10  S    
C36   H25   S    
O32   Zn4   S    
O67   Zn6   S    
C12   O55   S    
O35   Zn3   S    
C26   H142  S    
C55   O9    A    
C98   O65   S    
C39   O69   S    
C4    O51   S    
C111  C124  S    
O10   Zn9   S    
C44   C79   S    
C86   C108  S    
C4    C5    S    
O18   Zn8   S    
C92   C111  S    
C47   C52   T    
C62   C106  S    
C119  C123  S    
C80   O6    A    
C30   H10   S    
C136  O50   S    
C130  C131  S    
C39   H33   S    
C42   H40   S    
C20   H128  S    
C124  H50   S    
C23   H137  S    
C30   C31   S    
C42   H42   S    
C89   C108  S    
C5    H89   S    
C45   C80   S    
C77   O4    A    
C78   O3    A    
C8    H99   S    
C5    H91   S    
C134  O49   S    
C15   H116  S    
C101  O69   S    
C125  C127  S    
C121  H47   S    
C108  C126  S    
C13   C44   T    
C135  H81   S    
C22   H135  S    
C38   H29   S    
C1    O1    A    
C34   O66   S    
C2    C109  S    
C11   H107  S    
C32   O65   S    
C21   O60   S    
C26   O62   S    
C90   O49   S    
C128  C129  S    
C99   C114  S    
C58   C76   S    
C30   H11   S    
C136  H83   S    
O45   Zn6   S    
C68   O36   A    
C134  H77   S    
C25   H140  S    
O2    Zn5   S    
C16   H119  S    
C30   O64   S    
C115  C116  S    
O22   Zn9   S    
C3    C136  S    
O19   Zn9   S    
C117  H79   S    
C118  H57   S    
C90   C102  S    
C3    H84   S    
C52   C69   S    
O41   Zn12  S    
C114  C119  S    
C36   H23   S    
C62   O25   A    
C69   O41   A    
C1    O34   A    
C63   O26   A    
C91   C101  S    
C64   O29   A    
C48   C53   T    
C98   C112  S    
C68   O40   A    
O56   Zn7   S    
C71   O67   A    
C70   O38   A    
C20   H130  S    
C39   C40   S    
C46   C51   T    
C27   H3    S    
C116  C120  S    
C91   O60   S    
C59   O18   A    
C31   H15   S    
C135  H80   S    
C32   H16   S    
C17   C18   S    
C15   O57   S    
C129  H63   S    
C37   H28   S    
C22   H133  S    
C6    H94   S    
C133  H75   S    
C17   H121  S    
C131  H69   S    
O26   Zn10  S    
C14   H111  S    
C125  O44   S    
C130  H66   S    
O13   Zn8   S    
C33   H19   S    
C132  H72   S    
C27   H144  S    
C4    H87   S    
C86   O57   S    
C59   C103  S    
C57   C75   S    
C19   H126  S    
C58   O15   A    
C12   H110  S    
C71   O56   A    
O5    Zn6   S    
C132  C133  S    
C34   C36   S    
C74   C85   T    
C64   C81   S    
C10   C11   S    
O38   Zn3   S    
C55   C73   S    
C34   H21   S    
C56   O10   A    
C132  O48   S    
C132  H71   S    
C49   O12   A    
C28   H5    S    
C120  H112  S    
C86   O44   S    
C63   C107  S    
C119  H90   S    
C8    H98   S    
C79   O5    A    
C119  H123  S    
C88   C96   S    
C17   H120  S    
C61   O19   A    
C41   C42   S    
C100  C116  S    
C108  C121  S    
C40   H34   S    
C121  H43   S    
C7    H95   S    
C43   C78   S    
C122  H44   S    
C26   C27   S    
C50   C54   T    
O16   Zn11  S    
C28   C29   S    
C95   C112  S    
C29   H9    S    
C112  C117  S    
C135  H78   S    
C136  H82   S    
C67   O32   A    
C29   H7    S    
C133  H73   S    
C76   C83   T    
O42   Zn4   S    
C39   H32   S    
C92   O59   S    
C57   O14   A    
C21   H132  S    
C16   H118  S    
C122  H45   S    
O37   Zn2   S    
C9    H103  S    
C125  H54   S    
C131  H67   S    
C18   H124  S    
C72   O43   A    
C41   H39   S    
C3    H85   S    
C36   H26   S    
C96   O63   S    
C53   C70   S    
C26   H143  S    
C94   O58   S    
C56   C74   S    
C60   O71   A    
C49   O23   A    
C94   O52   S    
C18   H125  S    
C23   O61   S    
C14   H113  S    
C35   C77   S    
C82   C112  S    
C89   C95   S    
C50   C71   S    
C123  H48   S    
C65   O28   A    
C10   O54   S    
O34   Zn5   S    
C93   C113  S    
C134  C135  S    
C130  H65   S    
C31   H12   S    
C67   O35   A    
C128  O46   S    
C96   C113  S    
C40   H36   S    
C17   O58   S    
C22   H136  S    
C102  H35   S    
C38   H30   S    
C95   O62   S    
O3    Zn1   S    
C127  H56   S    
O27   Zn12  S    
C87   C109  S    
O23   Zn1   S    
O30   Zn12  S    
C32   C33   S    
C25   H139  S    
C57   O16   A    
C29   H8    S    
C87   O55   S    
C8    O53   S    
C92   O51   S    
C19   O59   S    
C96   H13   S    
O28   Zn2   S    
C94   C110  S    
C86   C98   S    
C18   H122  S    
C19   H127  S    
C32   H17   S    
O31   Zn3   S    
C101  C116  S    
C124  H49   S    
C88   O54   S    
C56   O13   A    
C7    H97   S    
C10   H104  S    
O9    Zn8   S    
C62   O20   A    
C41   O70   S    
C28   O63   S    
C47   C49   S    
C98   H134  S    
C37   C38   S    
C61   O24   A    
C24   C45   T    
C65   O30   A    
C118  C122  S    
C40   H37   S    
C23   H138  S    
C109  C122  S    
C65   C83   S    
C42   H41   S    
C15   C16   S    
C91   C111  S    
C64   O27   A    
C117  C121  S    
C78   O2    A    
C93   C105  T    
C8    C9    S    
O6    Zn7   S    
C82   C103  T    
C77   O72   A    
C129  H62   S    
C99   O66   S    
C37   H27   S    
O40   Zn2   S    
C9    H100  S    
C11   H108  S    
C24   C111  S    
C60   O45   A    
O71   Zn7   S    
C48   C60   S    
C134  H76   S    
O17   Zn10  S    
C95   H24   S    
O7    Zn6   S    
C25   H141  S    
C127  H58   S    
C99   H53   S    
C33   H18   S    
C75   C81   T    
C4    H88   S    
C89   O53   S    
C113  C118  S    
O12   Zn5   S    
C35   C126  T    
C13   C110  S    
O11   Zn9   S    
C72   O39   A    
C2    C43   T    
O8    Zn7   S    
C107  C115  T    
C104  C114  S    
C34   H22   S    
O1    Zn1   S    
C12   C14   S    
C63   O21   A    
C91   O50   S    
C28   H6    S    
C90   C110  S    
C97   C113  S    
C97   H2    S    
C58   O17   A    
C92   C100  S    
C79   O8    A    
C11   H106  S    
C80   O7    A    
C73   C84   T    
C117  H1    S    
C128  H60   S    
C20   H129  S    
C66   O31   A    
O29   Zn2   S    
C27   H4    S    
C5    H92   S    
C70   O42   A    
C15   H115  S    
C94   C99   S    
C51   C68   S    
C23   C25   S    
C123  H51   S    
C129  H64   S    
C21   H131  S    
C66   C84   S    
C130  O47   S    
C120  C124  S    
C54   C72   S    
C6    H93   S    
C9    H102  S    
C89   O48   S    
C131  H70   S    
C37   O68   S    
C101  H46   S    
O21   Zn11  S    
C87   C97   S    
