data_mof_unit_41872.cif
_audit_creation_date              2012-12-11T16:08:51-0500
_audit_creation_method            fapswitch 2.2
_symmetry_space_group_name_H-M    P1
_symmetry_Int_Tables_number       1
_space_group_crystal_system       triclinic
_cell_length_a                    12.91658
_cell_length_b                    13.287022
_cell_length_c                    27.773615
_cell_angle_alpha                 94.610023
_cell_angle_beta                  90.216668
_cell_angle_gamma                 118.873009
_cell_volume                      4155.60347247

loop_
_atom_site_label
_atom_site_type_symbol
_atom_type_description
_atom_site_fract_x
_atom_site_fract_y
_atom_site_fract_z
_atom_type_partial_charge
C1    C     C_R   0.626511 0.898421 0.426635 0.535350
C2    C     C_R   0.555688 0.225797 0.210853 0.293847
C3    C     C_R   0.539016 0.197664 0.258918 -0.081340
C4    C     C_R   0.631976 0.255719 0.294027 -0.017549
C5    C     C_R   0.667962 0.309309 0.197642 0.037389
C6    C     C_1   0.685357 0.346413 0.149536 -0.034867
C7    C     C_1   0.613275 0.229103 0.343578 -0.064203
C8    C     C_1   0.699530 0.384530 0.110680 -0.022005
C9    C     C_R   0.277357 0.800067 0.341907 -0.122401
C10   C     C_R   0.272018 0.801279 0.292415 -0.030464
C11   C     C_R   0.231529 0.779711 0.192745 0.031471
C12   C     C_R   0.572239 0.171611 0.433157 0.554912
C13   C     C_R   0.287456 0.722966 0.213188 0.249552
C14   C     C_R   0.305564 0.733022 0.262939 -0.114701
C15   C     C_R   0.180581 0.747797 0.145518 0.291833
C16   C     C_R   0.134807 0.813713 0.125296 -0.023158
C17   C     C_R   0.216535 0.946920 0.352830 -0.136437
C18   C     C_R   0.207498 0.946540 0.302554 -0.028940
C19   C     C_R   0.233053 0.871485 0.272293 0.031264
C20   C     C_R   0.172882 0.019026 0.282010 -0.119978
C21   C     C_R   0.153751 0.010577 0.231776 0.272386
C22   C     C_R   0.171788 0.929964 0.201792 0.025964
C23   C     C_R   0.276520 0.879731 0.423945 0.537655
C24   C     C_R   0.214840 0.862516 0.222077 -0.055011
C25   C     C_R   0.139213 0.909343 0.152554 -0.158557
C26   C     C_R   0.248477 0.871289 0.372467 0.006234
C27   C     C_R   0.688141 0.970535 0.348318 -0.129865
C28   C     C_R   0.688328 0.954042 0.298569 0.001953
C29   C     C_R   0.695022 0.921060 0.198467 0.010021
C30   C     C_R   0.732019 0.031927 0.220910 -0.135581
C31   C     C_R   0.730506 0.048506 0.270893 -0.137504
C32   C     C_R   0.709762 0.905467 0.149347 -0.126915
C33   C     C_R   0.679670 0.795453 0.128129 0.014232
C34   C     C_R   0.627072 0.899016 0.565080 0.548640
C35   C     C_R   0.596541 0.763483 0.354212 -0.145695
C36   C     C_R   0.600485 0.745687 0.304180 0.002938
C37   C     C_R   0.645401 0.841424 0.276281 0.058271
C38   C     C_R   0.560661 0.634387 0.281525 -0.128999
C39   C     C_R   0.568305 0.618357 0.231721 -0.092339
C40   C     C_R   0.613549 0.713291 0.204082 0.045699
C41   C     C_R   0.649909 0.825039 0.226188 0.068694
C42   C     C_R   0.626988 0.699034 0.154901 -0.084603
C43   C     C_R   0.641724 0.875895 0.376100 0.005851
C44   C     C_R   0.739199 0.290915 0.651066 -0.126047
C45   C     C_R   0.603590 0.227687 0.578170 0.557811
C46   C     C_R   0.753765 0.315284 0.701218 0.004366
C47   C     C_R   0.767209 0.342442 0.803200 0.019255
C48   C     C_R   0.849012 0.320352 0.777430 -0.087284
C49   C     C_R   0.842210 0.306992 0.726988 -0.119858
C50   C     C_R   0.772670 0.357282 0.854275 0.211181
C51   C     C_R   0.691285 0.384308 0.878100 0.012421
C52   C     C_R   0.572360 0.327812 0.650487 -0.131081
C53   C     C_R   0.584496 0.350408 0.700474 0.014158
C54   C     C_R   0.673398 0.340821 0.726222 0.060652
C55   C     C_R   0.503787 0.374465 0.725253 -0.128062
C56   C     C_R   0.272138 0.879678 0.563531 0.552782
C57   C     C_R   0.508262 0.384879 0.775448 -0.123160
C58   C     C_R   0.594520 0.372919 0.801282 -0.005002
C59   C     C_R   0.678985 0.352737 0.776969 0.021478
C60   C     C_R   0.599294 0.384949 0.851198 -0.167854
C61   C     C_R   0.643860 0.290016 0.626154 -0.008824
C62   C     C_1   0.223027 0.863163 0.610351 -0.004664
C63   C     C_R   0.082872 0.743923 0.718528 -0.098051
C64   C     C_R   0.067920 0.733925 0.768094 -0.097527
C65   C     C_R   0.229875 0.928891 0.785774 -0.093953
C66   C     C_R   0.244812 0.938904 0.736168 -0.089460
C67   C     C_1   0.596099 0.205015 0.384812 -0.018381
C68   C     C_R   0.171576 0.846341 0.702425 0.043193
C69   C     C_R   0.141911 0.826013 0.801855 0.037394
C70   C     C_1   0.124445 0.814118 0.852724 -0.042605
C71   C     C_1   0.194546 0.853974 0.651758 -0.045411
C72   C     C_1   0.100606 0.797165 0.894279 0.006745
C73   C     C_1   0.642943 0.865680 0.611240 0.019036
C74   C     C_R   0.750865 0.919200 0.733630 0.258137
C75   C     C_R   0.751463 0.909117 0.783369 -0.060845
C76   C     C_R   0.572506 0.723990 0.772016 -0.116722
C77   C     C_R   0.571115 0.733920 0.722231 -0.149764
C78   C     C_R   0.743166 0.339218 0.280773 -0.137137
C79   C     C_R   0.660049 0.831411 0.702800 0.047972
C80   C     C_R   0.662115 0.812185 0.802735 -0.003749
C81   C     C_1   0.669297 0.800062 0.853529 -0.041814
C82   C     C_1   0.651878 0.846027 0.652256 0.006873
C83   C     C_1   0.684604 0.790100 0.895356 0.005789
C84   C     C_R   0.064868 0.771898 0.079213 0.551139
C85   C     C_R   0.716792 0.440403 0.067009 0.539223
C86   C     C_R   0.720211 0.781154 0.080882 0.543349
C87   C     C_R   0.056443 0.766080 0.941197 0.547793
C88   C     C_R   0.710770 0.434814 0.928643 0.576033
C89   C     C_R   0.761196 0.365520 0.232751 -0.170611
C90   C     C_R   0.716586 0.776112 0.942887 0.552200
Cr1   Cr    Cr6+3 0.416430 0.829200 0.492370 1.020134
Cr2   Cr    Cr6+3 0.674630 0.087020 0.504170 1.033362
Cr3   Cr    Cr6+3 0.408920 0.083740 0.503490 1.028591
Cr4   Cr    Cr6+3 0.914010 0.832750 0.013970 1.040906
Cr5   Cr    Cr6+3 0.922310 0.578600 0.003000 1.106831
Cr6   Cr    Cr6+3 0.656280 0.574630 0.003870 1.049658
H1    H     H_    0.815797 0.384200 0.307589 0.127344
H2    H     H_    0.157757 0.080244 0.304880 0.118667
H3    H     H_    0.199326 0.005616 0.376488 0.122351
H4    H     H_    0.750611 0.979226 0.128269 0.127642
H5    H     H_    0.719473 0.057361 0.365303 0.131796
H6    H     H_    0.766641 0.106162 0.200093 0.121370
H7    H     H_    0.764234 0.135258 0.288034 0.125679
H8    H     H_    0.604268 0.613741 0.138286 0.136927
H9    H     H_    0.539731 0.532026 0.214860 0.113028
H10   H     H_    0.525731 0.560251 0.302389 0.114663
H11   H     H_    0.847341 0.431430 0.223162 0.106034
H12   H     H_    0.558829 0.690942 0.376023 0.114362
H13   H     H_    0.795813 0.263283 0.632183 0.149055
H14   H     H_    0.918525 0.312692 0.795770 0.194849
H15   H     H_    0.905099 0.288279 0.708114 0.169042
H16   H     H_    0.534948 0.403572 0.868911 0.151090
H17   H     H_    0.444117 0.402147 0.794093 0.117032
H18   H     H_    0.435344 0.382149 0.705849 0.115127
H19   H     H_    0.500144 0.329463 0.631158 0.135722
H20   H     H_    0.026558 0.671391 0.692880 0.116890
H21   H     H_    0.999140 0.654082 0.780114 0.123244
H22   H     H_    0.287177 0.000811 0.811475 0.122470
H23   H     H_    0.314570 0.018149 0.724141 0.123862
H24   H     H_    0.822164 0.976605 0.806881 0.160416
H25   H     H_    0.504114 0.647632 0.786486 0.124666
H26   H     H_    0.500139 0.666122 0.698963 0.117162
H27   H     H_    0.453062 0.132125 0.268867 0.133961
H28   H     H_    0.308429 0.745569 0.356534 0.141835
H29   H     H_    0.342876 0.684758 0.278657 0.145750
H30   H     H_    0.104270 0.959398 0.136760 0.178201
O1    O     O_R   0.296680 0.802170 0.437540 -0.520503
O2    O     O_R   0.662610 0.183990 0.557860 -0.495864
O3    O     O_R   0.500730 0.201280 0.562180 -0.511841
O4    O     O_R   0.312500 0.978850 0.548170 -0.488988
O5    O     O_3   0.499990 0.999990 0.500010 -0.270872
O6    O     O_R   0.820790 0.857990 0.068830 -0.517953
O7    O     O_R   0.016700 0.827330 0.062850 -0.517706
O8    O     O_R   0.041970 0.673520 0.060040 -0.461665
O9    O     O_R   0.817980 0.483660 0.048840 -0.502647
O10   O     O_R   0.637200 0.461990 0.052510 -0.505098
O11   O     O_R   0.664790 0.681920 0.057970 -0.495072
O12   O     O_R   0.525380 0.838530 0.443500 -0.505858
O13   O     O_R   0.815840 0.852920 0.961840 -0.494799
O14   O     O_R   0.012100 0.822630 0.963670 -0.496938
O15   O     O_R   0.037010 0.668460 0.953040 -0.474363
O16   O     O_R   0.813390 0.478970 0.949660 -0.435654
O17   O     O_R   0.632250 0.456930 0.945520 -0.530721
O18   O     O_R   0.660200 0.677230 0.958780 -0.495270
O19   O     O_3   0.830870 0.661990 0.006950 -0.272985
O20   O     O_R   0.702130 0.995190 0.446810 -0.524016
O21   O     O_R   0.661770 0.181390 0.458760 -0.496801
O22   O     O_R   0.499820 0.198480 0.455280 -0.503325
O23   O     O_R   0.311660 0.976250 0.449080 -0.515485
O24   O     O_R   0.297580 0.804960 0.544440 -0.503641
O25   O     O_R   0.526220 0.841130 0.542590 -0.499208
O26   O     O_R   0.703030 0.997990 0.553710 -0.489457
O27   O     O_3   0.119871 0.082951 0.211899 -0.594455
C91   C     C_3   0.997807 0.039962 0.217596 -0.123814
H31   H     H_    0.945006 0.949150 0.201280 0.120862
H32   H     H_    0.969637 0.093305 0.198352 0.151000
H33   H     H_    0.978283 0.046669 0.256333 0.125940
Cl1   Cl    Cl    0.879500 0.340986 0.888026 -0.592019
O28   O     O_3   0.462830 0.169045 0.176730 -0.560038
C92   C     C_3   0.397983 0.229264 0.177028 -0.085925
H34   H     H_    0.452362 0.317519 0.165461 0.115463
H35   H     H_    0.363191 0.234297 0.213240 0.143971
H36   H     H_    0.321075 0.181955 0.150805 0.181860
Cl2   Cl    Cl    0.864753 0.043092 0.711091 -0.639903
O29   O     O_3   0.164245 0.645819 0.120875 -0.476752
C93   C     C_3   0.063343 0.552076 0.138074 -0.043186
H37   H     H_    0.983997 0.564421 0.137161 0.090622
H38   H     H_    0.080281 0.537283 0.175399 0.122935
H39   H     H_    0.042038 0.472639 0.114353 0.162273
Cl3   Cl    Cl    0.336768 0.638228 0.178781 -0.585979

loop_
_geom_bond_atom_site_label_1
_geom_bond_atom_site_label_2
_ccdc_geom_bond_type
C66   C68   A    
C45   O3    A    
O29   C93   S    
Cr4   O14   S    
C48   H14   S    
C35   C36   A    
Cr5   O19   S    
C90   O18   A    
C87   O14   A    
C25   H30   S    
C9    H28   S    
C90   O13   A    
Cr6   O10   S    
C53   C54   A    
C50   Cl1   S    
Cr6   O19   S    
C46   C49   A    
C84   O8    A    
C14   H29   S    
Cr1   O1    S    
C5    C6    S    
C33   C42   A    
C12   O21   A    
C36   C37   A    
C8    C85   S    
C29   C32   A    
C2    C3    A    
C52   C61   A    
C38   C39   A    
Cr1   O5    S    
C45   O2    A    
C58   C60   A    
C15   C16   A    
C11   C24   A    
C16   C84   S    
Cr4   O7    S    
Cr3   O22   S    
C18   C19   A    
C23   C26   S    
C77   H26   S    
C86   O11   A    
C11   C15   A    
C1    C43   S    
O28   C92   S    
C44   C46   A    
C2    O28   S    
C22   C25   A    
Cr2   O26   S    
C65   H22   S    
C35   H12   S    
C35   C43   A    
C75   C80   A    
C88   O17   A    
C91   H32   S    
C49   H15   S    
C44   H13   S    
Cr4   O19   S    
C40   C42   A    
C23   O23   A    
C21   C22   A    
Cr2   O21   S    
C93   H38   S    
Cr4   O13   S    
C89   H11   S    
C1    O20   A    
C4    C7    S    
Cr3   O3    S    
Cr2   O2    S    
C88   O16   A    
C81   C83   T    
C3    H27   S    
C9    C26   A    
C50   C51   A    
C47   C50   A    
C54   C59   A    
C53   C55   A    
C78   C89   A    
C12   C67   S    
C84   O7    A    
C74   Cl2   S    
C74   C75   A    
Cr2   O20   S    
C92   H36   S    
Cr2   O5    S    
C76   C77   A    
C91   H33   S    
C10   C14   A    
Cr6   O11   S    
C34   O26   A    
C57   H17   S    
C85   O10   A    
C58   C59   A    
C47   C59   A    
C27   H5    S    
Cr5   O8    S    
Cr4   O6    S    
C64   H21   S    
C32   H4    S    
C31   H7    S    
C38   H10   S    
C33   C86   S    
C4    C78   A    
C29   C30   A    
C60   H16   S    
Cr6   O18   S    
Cr1   O12   S    
C47   C48   A    
C10   C19   A    
C46   C54   A    
C78   H1    S    
Cr5   O9    S    
C17   C18   A    
Cr5   O16   S    
C77   C79   A    
C64   C69   A    
C87   O15   A    
C17   H3    S    
C91   H31   S    
C30   H6    S    
C85   O9    A    
Cr3   O23   S    
C40   C41   A    
Cr5   O15   S    
C74   C79   A    
C55   C57   A    
C76   H25   S    
C93   H37   S    
C22   C24   A    
C2    C5    A    
C63   H20   S    
C56   O24   A    
C3    C4    A    
C73   C82   T    
C39   C40   A    
C72   C87   S    
C52   C53   A    
C23   O1    A    
C9    C10   A    
C52   H19   S    
C16   C25   A    
C39   H9    S    
C83   C90   S    
C63   C68   A    
C48   C49   A    
C29   C41   A    
C28   C31   A    
C75   H24   S    
C76   C80   A    
C80   C81   S    
C42   H8    S    
C51   C88   S    
C79   C82   S    
C6    C8    T    
C34   O25   A    
C13   Cl3   S    
C18   C20   A    
C55   H18   S    
C44   C61   A    
C66   H23   S    
C32   C33   A    
C12   O22   A    
C36   C38   A    
Cr1   O24   S    
Cr3   O5    S    
C92   H34   S    
Cr6   O17   S    
Cr1   O25   S    
C11   C13   A    
C86   O6    A    
C57   C58   A    
C30   C31   A    
C28   C37   A    
C68   C71   S    
C65   C69   A    
C45   C61   S    
C17   C26   A    
C62   C71   T    
C19   C24   A    
C56   C62   S    
C37   C41   A    
C69   C70   S    
C56   O4    A    
C34   C73   S    
C7    C67   T    
C63   C64   A    
C27   C43   A    
C20   H2    S    
C20   C21   A    
C93   H39   S    
C65   C66   A    
C27   C28   A    
C21   O27   S    
C15   O29   S    
C70   C72   T    
C51   C60   A    
O27   C91   S    
C13   C14   A    
C5    C89   A    
C1    O12   A    
Cr3   O4    S    
C92   H35   S    
