data_mof_unit_30658.cif
_audit_creation_date              2012-12-10T20:51:41-0500
_audit_creation_method            fapswitch 2.2
_symmetry_space_group_name_H-M    P1
_symmetry_Int_Tables_number       1
_space_group_crystal_system       triclinic
_cell_length_a                    8.100775
_cell_length_b                    8.918075
_cell_length_c                    16.801265
_cell_angle_alpha                 89.705576
_cell_angle_beta                  95.19168
_cell_angle_gamma                 90.051092
_cell_volume                      1208.78360699

loop_
_atom_site_label
_atom_site_type_symbol
_atom_type_description
_atom_site_fract_x
_atom_site_fract_y
_atom_site_fract_z
_atom_type_partial_charge
C1    C     C_R   0.499955 0.217977 0.500016 0.930135
C2    C     C_R   0.500067 0.782005 0.499784 0.912697
C3    C     C_R   0.522405 0.500507 0.653674 0.937555
C4    C     C_R   0.477503 0.505599 0.346066 0.937248
C5    C     C_R   0.539081 0.519142 0.739425 -0.276982
C6    C     C_R   0.460792 0.531599 0.260171 -0.261922
C7    C     C_R   0.437696 0.624064 0.773925 0.394217
C8    C     C_R   0.583446 0.615438 0.225222 0.362072
C9    C     C_R   0.450762 0.639645 0.856329 -0.269980
C10   C     C_R   0.571940 0.634383 0.143004 -0.280409
C11   C     C_R   0.567847 0.555261 0.904221 0.182420
C12   C     C_R   0.437354 0.573927 0.095450 0.201525
C13   C     C_R   0.676705 0.459960 0.869397 -0.278892
C14   C     C_R   0.308877 0.502749 0.130429 -0.291508
C15   C     C_R   0.660518 0.438017 0.787058 0.465400
C16   C     C_R   0.318224 0.481955 0.213124 0.429058
C17   C     C_1   0.500020 0.065196 0.499784 -0.201586
C18   C     C_1   0.500197 0.934772 0.499671 -0.213664
H1    H     H_    0.669925 0.693620 0.116152 0.173946
H2    H     H_    0.368405 0.716635 0.882924 0.178576
H3    H     H_    0.768487 0.396832 0.906634 0.173781
H4    H     H_    0.205978 0.455952 0.092893 0.169274
N1    N     N_1   0.073640 0.500030 0.499990 -0.022282
N2    N     N_1   0.926360 0.499970 0.500010 -0.023441
N3    N     N_2   0.572904 0.558340 0.987937 -0.160731
N4    N     N_2   0.432991 0.575218 0.011792 -0.156093
O1    O     O_R   0.636850 0.285340 0.500000 -0.616878
O2    O     O_R   0.363150 0.714660 0.500000 -0.622289
O3    O     O_R   0.363100 0.285350 0.500000 -0.615758
O4    O     O_R   0.636900 0.714650 0.500000 -0.626581
O5    O     O_R   0.652140 0.498630 0.616140 -0.583631
O6    O     O_R   0.347860 0.501370 0.383860 -0.597091
O7    O     O_R   0.378390 0.498650 0.616130 -0.578438
O8    O     O_R   0.621610 0.501350 0.383870 -0.587058
Zn1   Zn    Zn3+2 0.682780 0.499990 0.500010 1.011805
Zn2   Zn    Zn3+2 0.317220 0.500010 0.499990 1.013264
O9    O     O_3   0.720100 0.672121 0.270568 -0.611390
C19   C     C_3   0.687669 0.822532 0.289698 0.108348
H5    H     H_    0.576449 0.830501 0.323952 0.126931
H6    H     H_    0.668203 0.892779 0.234613 0.138784
C20   C     C_3   0.835639 0.884968 0.341297 -0.776511
H7    H     H_    0.810017 0.002232 0.358408 0.212472
H8    H     H_    0.859850 0.816161 0.396380 0.269008
H9    H     H_    0.947499 0.883553 0.307645 0.240210
O10   O     O_3   0.319582 0.705935 0.727610 -0.569532
C21   C     C_3   0.383006 0.850974 0.715318 0.083350
H10   H     H_    0.493804 0.845084 0.680705 0.121542
H11   H     H_    0.417259 0.908882 0.773105 0.127549
C22   C     C_3   0.250839 0.944557 0.668036 -0.757078
H12   H     H_    0.300605 0.057808 0.656277 0.197845
H13   H     H_    0.212316 0.889894 0.610089 0.269497
H14   H     H_    0.140882 0.956452 0.702488 0.251697
O11   O     O_3   0.765708 0.339490 0.753382 -0.568499
C23   C     C_3   0.692515 0.195838 0.751331 -0.306478
H15   H     H_    0.572079 0.195212 0.713736 0.135093
H16   H     H_    0.675502 0.154027 0.812607 0.155071
H17   H     H_    0.776392 0.116629 0.724079 0.194146
O12   O     O_3   0.198465 0.398125 0.246975 -0.607711
C24   C     C_3   0.050150 0.481668 0.243889 -0.167938
H18   H     H_    0.992288 0.492732 0.181566 0.148236
H19   H     H_    0.070572 0.594386 0.271377 0.173048
H20   H     H_    0.960996 0.421013 0.278804 0.204550

loop_
_geom_bond_atom_site_label_1
_geom_bond_atom_site_label_2
_ccdc_geom_bond_type
C3    O5    A    
N1    N2    T    
C22   H12   S    
C23   H16   S    
O9    C19   S    
C2    C18   S    
C11   C13   A    
C20   H7    S    
C9    H2    S    
C1    C17   S    
C21   C22   S    
C10   H1    S    
C2    O4    A    
C22   H14   S    
C7    C9    A    
C14   H4    S    
C22   H13   S    
C1    O3    A    
C17   C18   T    
N3    N4    D    
C13   H3    S    
C24   H18   S    
C7    O10   S    
C16   O12   S    
O10   C21   S    
C19   H6    S    
C20   H8    S    
O3    Zn2   S    
C9    C11   A    
C4    O6    A    
C10   C12   A    
O4    Zn1   S    
C6    C8    A    
O6    Zn2   S    
C8    C10   A    
C12   C14   A    
O8    Zn1   S    
C14   C16   A    
C13   C15   A    
C4    O8    A    
C19   H5    S    
C20   H9    S    
O5    Zn1   S    
C5    C15   A    
N2    Zn1   S    
C24   H19   S    
C8    O9    S    
C3    O7    A    
C6    C16   A    
C21   H11   S    
C15   O11   S    
O7    Zn2   S    
O2    Zn2   S    
C19   C20   S    
C1    O1    A    
N1    Zn2   S    
C21   H10   S    
C5    C7    A    
C11   N3    S    
C23   H15   S    
C24   H20   S    
C2    O2    A    
O1    Zn1   S    
O12   C24   S    
O11   C23   S    
C4    C6    S    
C12   N4    S    
C3    C5    S    
C23   H17   S    
