data_mof_unit_37132.cif
_audit_creation_date              2013-03-05T16:34:03-0500
_audit_creation_method            fapswitch 2.2
_symmetry_space_group_name_H-M    P1
_symmetry_Int_Tables_number       1
_space_group_crystal_system       triclinic
_cell_length_a                    9.536471
_cell_length_b                    10.883206
_cell_length_c                    17.139958
_cell_angle_alpha                 88.282184
_cell_angle_beta                  94.124232
_cell_angle_gamma                 88.017011
_cell_volume                      1772.30143463

loop_
_atom_site_label
_atom_site_type_symbol
_atom_site_description
_atom_site_fract_x
_atom_site_fract_y
_atom_site_fract_z
_atom_type_partial_charge
O1    O     O_R   0.618810 0.319640 0.500000 -0.582050
O2    O     O_R   0.381230 0.319680 0.499990 -0.518236
C1    C     C_R   0.501379 0.263084 0.494978 0.842228
O3    O     O_R   0.631790 0.498830 0.613930 -0.549083
O4    O     O_R   0.394210 0.498870 0.613920 -0.499195
C2    C     C_R   0.517497 0.495862 0.651309 0.883964
Cu1   Cu    Cu3+1 0.640670 0.499980 0.500000 1.022684
Cu2   Cu    Cu3+1 0.359330 0.500020 0.500000 1.077676
O5    O     O_R   0.618770 0.680320 0.500010 -0.580338
O6    O     O_R   0.381190 0.680360 0.500000 -0.569519
O7    O     O_R   0.605790 0.501130 0.386080 -0.570829
O8    O     O_R   0.368210 0.501170 0.386070 -0.559790
C3    C     C_R   0.497720 0.738401 0.502053 0.863263
C4    C     C_R   0.482257 0.497290 0.349319 0.849709
C5    C     C_R   0.526234 0.491963 0.738201 -0.245027
C6    C     C_R   0.406684 0.526078 0.778458 0.368724
C7    C     C_R   0.415023 0.521594 0.860182 -0.234200
C8    C     C_R   0.542401 0.489169 0.903352 0.260014
C9    C     C_R   0.660604 0.458767 0.864009 -0.237481
C10   C     C_R   0.653107 0.455521 0.782426 0.314892
C11   C     C_R   0.582926 0.456949 0.143521 -0.214925
C12   C     C_R   0.590930 0.458298 0.224694 -0.141565
C13   C     C_R   0.453353 0.482771 0.100053 0.304621
N1    N     N_2   0.555406 0.482183 0.986288 -0.230033
N2    N     N_2   0.441042 0.489291 0.017078 -0.197980
C14   C     C_R   0.471124 0.487202 0.263989 -0.078925
H1    H     H_    0.691028 0.436652 0.256730 0.208786
H2    H     H_    0.678412 0.436777 0.115125 0.177340
H3    H     H_    0.757578 0.430121 0.897502 0.184321
C15   C     C_R   0.340663 0.504892 0.221238 -0.299260
C16   C     C_R   0.330994 0.502054 0.139409 0.401876
H4    H     H_    0.246609 0.523858 0.250881 0.237707
H5    H     H_    0.320690 0.543140 0.889432 0.193951
C17   C     C_R   0.625821 0.059148 0.496340 0.034447
C18   C     C_R   0.502550 0.131333 0.483088 -0.220624
C19   C     C_R   0.375513 0.072699 0.464414 0.240913
C20   C     C_R   0.366764 0.946553 0.483801 0.209770
C21   C     C_R   0.493497 0.873586 0.498983 -0.179822
C22   C     C_R   0.621804 0.932525 0.501495 -0.003001
C23   C     C_3   0.740026 0.926261 0.564680 0.188321
C24   C     C_3   0.744109 0.065776 0.557752 -0.443956
H6    H     H_    0.836902 0.878234 0.546896 0.132448
H7    H     H_    0.713293 0.114768 0.610195 0.249523
H8    H     H_    0.841383 0.098188 0.532995 0.207225
C25   C     C_R   0.063890 0.544270 0.436119 0.140199
N3    N     N_R   0.147870 0.500930 0.499500 -0.248328
C26   C     C_R   0.085289 0.435337 0.556599 0.587805
C27   C     C_R   0.934803 0.439315 0.557166 -0.176570
H9    H     H_    0.884490 0.394772 0.603797 0.208456
N4    N     N_R   0.851960 0.500890 0.499500 -0.231295
C28   C     C_R   0.916113 0.544906 0.436334 0.135021
C29   C     C_3   0.902164 0.673115 0.402431 0.082689
C30   C     C_3   0.062466 0.671360 0.402259 0.139914
H10   H     H_    0.859877 0.740521 0.442912 0.094784
H11   H     H_    0.116183 0.729320 0.445171 0.158500
N5    N     N_R   0.233592 0.901390 0.503347 0.103395
O9    O     O_R   0.225404 0.845384 0.570803 -0.405990
O10   O     O_R   0.117276 0.940865 0.464923 -0.399628
N6    N     N_R   0.696105 0.881184 0.640286 0.142391
O11   O     O_R   0.762566 0.786711 0.675760 -0.373443
O12   O     O_R   0.586878 0.930136 0.670681 -0.359571
O13   O     O_3   0.172033 0.373864 0.614930 -0.521340
C31   C     C_3   0.115647 0.264159 0.643355 0.066405
H12   H     H_    0.052474 0.215907 0.597333 0.163178
H13   H     H_    0.049075 0.285030 0.692070 0.216902
C32   C     C_3   0.235976 0.177007 0.675024 -0.624731
H14   H     H_    0.299579 0.220909 0.722648 0.242812
H15   H     H_    0.193324 0.090883 0.698532 0.209930
H16   H     H_    0.304738 0.153731 0.627568 0.254575
N7    N     N_R   0.827619 0.679701 0.324558 0.171449
O14   O     O_R   0.723408 0.759203 0.309827 -0.368017
O15   O     O_R   0.862814 0.606578 0.269907 -0.349631
O16   O     O_3   0.114631 0.674395 0.327223 -0.544176
C33   C     C_3   0.135831 0.797666 0.304258 0.139722
H17   H     H_    0.227110 0.833549 0.339530 0.157095
H18   H     H_    0.040413 0.857428 0.311020 0.193251
C34   C     C_3   0.167462 0.804208 0.218568 -0.697412
H19   H     H_    0.083365 0.760222 0.182172 0.283764
H20   H     H_    0.173005 0.901858 0.198691 0.207659
H21   H     H_    0.270159 0.756854 0.210821 0.244506
N8    N     N_R   0.770740 0.402786 0.746536 0.123818
O17   O     O_R   0.896984 0.436518 0.767795 -0.390419
O18   O     O_R   0.755260 0.300897 0.709597 -0.422175
O19   O     O_3   0.204675 0.530659 0.096776 -0.570676
C35   C     C_3   0.112330 0.433391 0.105714 0.085614
H22   H     H_    0.078123 0.427856 0.166411 0.178126
H23   H     H_    0.162723 0.343608 0.091441 0.148066
C36   C     C_3   0.982115 0.456636 0.049873 -0.721024
H24   H     H_    0.012592 0.463687 0.988595 0.258415
H25   H     H_    0.909823 0.379496 0.055187 0.194287
H26   H     H_    0.926413 0.543519 0.064160 0.262777
O20   O     O_3   0.277052 0.551467 0.738675 -0.526834
C37   C     C_3   0.245135 0.678966 0.739698 0.064968
H27   H     H_    0.319074 0.730339 0.704631 0.196764
H28   H     H_    0.250713 0.713623 0.800305 0.132142
C38   C     C_3   0.095744 0.704126 0.704160 -0.543490
H29   H     H_    0.070438 0.804595 0.702211 0.217139
H30   H     H_    0.084500 0.669592 0.643806 0.245153
H31   H     H_    0.020227 0.657324 0.740275 0.268788
N9    N     N_R   0.256411 0.141300 0.427151 0.168741
O21   O     O_R   0.152754 0.176736 0.467439 -0.334776
O22   O     O_R   0.264606 0.188145 0.356980 -0.378236

loop_
_geom_bond_atom_site_label_1
_geom_bond_atom_site_label_2
_geom_bond_distance
_ccdc_geom_bond_type
C32   H15   1.110698 S    
C31   H13   1.108811 S    
C37   H27   1.113171 S    
O16   C33   1.412165 S    
C18   C19   1.409721 A    
C26   O13   1.390723 S    
N8    O17   1.300950 A    
Cu1   Cu2   2.682976 S    
C34   H19   1.110869 S    
Cu1   O7    1.956581 S    
C20   C21   1.426519 A    
C33   H18   1.114989 S    
C8    N1    1.417531 S    
O4    C2    1.296836 A    
C19   C20   1.409508 A    
C8    C9    1.389881 A    
C21   C22   1.399603 A    
O7    C4    1.297996 A    
C34   H21   1.109173 S    
C32   H16   1.110566 S    
C25   C28   1.409323 A    
C5    C6    1.418791 A    
C38   H31   1.109882 S    
N5    O9    1.299395 A    
C17   C18   1.392017 A    
O5    C3    1.300020 A    
O20   C37   1.411153 S    
C2    C5    1.484911 S    
C20   N5    1.435705 S    
O19   C35   1.412020 S    
C9    C10   1.396574 A    
C6    C7    1.396571 A    
C33   C34   1.520578 S    
C38   H30   1.110425 S    
N7    O14   1.300518 A    
C27   N4    1.364359 A    
C32   H14   1.111175 S    
C31   C32   1.521610 S    
C25   C30   1.483079 S    
N6    O11   1.300197 A    
C37   H28   1.114061 S    
C23   N6    1.466160 S    
C11   C12   1.388440 A    
C24   H7    1.111077 S    
C17   C24   1.491666 S    
C7    H5    1.083020 S    
O3    Cu1   1.960349 S    
N8    O18   1.300863 A    
C29   H10   1.110191 S    
N4    C28   1.363959 A    
C30   H11   1.094190 S    
C5    C10   1.418673 A    
C30   O16   1.411841 S    
N6    O12   1.302511 A    
C33   H17   1.112517 S    
C35   H23   1.115491 S    
C28   C29   1.493222 S    
N1    N2    1.246348 D    
O3    C2    1.304276 A    
C22   C23   1.504402 S    
C35   H22   1.113000 S    
C16   O19   1.384137 S    
C17   C22   1.380284 A    
O1    C1    1.295150 A    
C13   C16   1.401941 A    
O13   C31   1.413953 S    
C26   C27   1.435003 A    
C36   H26   1.110887 S    
C1    C18   1.454094 S    
Cu2   O8    1.960351 S    
C38   H29   1.110553 S    
N9    O22   1.300817 A    
C7    C8    1.404631 A    
C34   H20   1.110430 S    
C19   N9    1.436583 S    
C4    C14   1.466455 S    
C3    C21   1.469660 S    
C23   C24   1.521506 S    
C11   H2    1.081943 S    
C36   H25   1.110367 S    
C14   C15   1.402042 A    
C37   C38   1.521137 S    
C12   H1    1.081445 S    
C11   C13   1.411357 A    
C24   H8    1.111455 S    
C9    H3    1.083947 S    
C29   C30   1.528391 S    
C35   C36   1.521473 S    
Cu1   O5    1.966565 S    
N3    C26   1.376654 A    
C27   H9    1.073343 S    
O1    Cu1   1.980878 S    
O2    Cu2   1.966565 S    
Cu1   N4    2.015961 S    
O8    C4    1.295537 A    
O6    C3    1.295949 A    
O4    Cu2   1.956581 S    
C6    O20   1.383256 S    
O2    C1    1.291550 A    
C15   H4    1.079028 S    
C15   C16   1.400268 A    
C23   H6    1.111878 S    
N9    O21   1.300195 A    
N5    O10   1.301429 A    
C13   N2    1.418011 S    
Cu2   N3    2.015663 S    
C29   N7    1.465016 S    
C31   H12   1.113240 S    
C25   N3    1.364565 A    
C36   H24   1.110913 S    
Cu2   O6    1.980878 S    
C12   C14   1.398735 A    
N7    O15   1.301851 A    
C10   N8    1.429032 S    
