data_mof_unit_12831.cif
_audit_creation_date              2012-12-10T17:31:06-0500
_audit_creation_method            fapswitch 2.2
_symmetry_space_group_name_H-M    P1
_symmetry_Int_Tables_number       1
_space_group_crystal_system       triclinic
_cell_length_a                    12.173388
_cell_length_b                    12.854466
_cell_length_c                    15.44622
_cell_angle_alpha                 84.800366
_cell_angle_beta                  116.473274
_cell_angle_gamma                 94.526772
_cell_volume                      2152.69794108

loop_
_atom_site_label
_atom_site_type_symbol
_atom_type_description
_atom_site_fract_x
_atom_site_fract_y
_atom_site_fract_z
_atom_type_partial_charge
Br1   Br    Br    0.822455 0.319088 0.663833 -0.344301
Br2   Br    Br    0.264020 0.343799 0.616226 -0.287627
Br3   Br    Br    0.177391 0.680210 0.335598 -0.338998
Br4   Br    Br    0.886646 0.642802 0.267452 -0.330469
Br5   Br    Br    0.113392 0.357828 0.733145 -0.337537
Br6   Br    Br    0.884304 0.304092 0.012168 -0.382150
Br7   Br    Br    0.106002 0.683883 0.984782 -0.388790
Br8   Br    Br    0.371795 0.799641 0.603120 -0.339323
Br9   Br    Br    0.621817 0.202514 0.390710 -0.282236
Br10  Br    Br    0.738232 0.658361 0.386238 -0.346807
C1    C     C_R   0.472694 0.300440 0.490269 0.988579
C2    C     C_R   0.651083 0.974395 0.503406 0.421318
C3    C     C_R   0.345579 0.135861 0.475723 0.311025
C4    C     C_R   0.651720 0.865220 0.520848 0.318128
C5    C     C_R   0.537577 0.134515 0.463520 0.310568
C6    C     C_R   0.458636 0.866419 0.531702 0.300959
C7    C     C_R   0.546234 0.027468 0.489219 -0.144360
C8    C     C_R   0.449566 0.973243 0.504977 -0.130910
C9    C     C_R   0.997278 0.586544 0.395252 0.250365
C10   C     C_R   0.002909 0.413698 0.605068 0.225721
C11   C     C_R   0.121423 0.586300 0.413134 0.323236
C12   C     C_R   0.526972 0.699758 0.509288 0.958473
C13   C     C_R   0.878554 0.413563 0.586780 0.332311
C14   C     C_R   0.161864 0.457046 0.541931 0.431546
C15   C     C_R   0.838602 0.543474 0.458634 0.414567
C16   C     C_R   0.577271 0.494773 0.680484 0.879345
C17   C     C_R   0.422602 0.504474 0.319478 0.947286
C18   C     C_R   0.042569 0.467409 0.538104 -0.211218
C19   C     C_R   0.957767 0.532898 0.462325 -0.179486
C20   C     C_R   0.626982 0.485303 0.785862 -0.256988
C21   C     C_R   0.372538 0.512897 0.214045 -0.148118
C22   C     C_R   0.748696 0.392411 0.938760 0.319730
C23   C     C_R   0.630698 0.448681 0.112789 0.461806
C24   C     C_R   0.244846 0.599115 0.059024 0.326876
C25   C     C_R   0.719078 0.415753 0.841222 -0.209978
C26   C     C_R   0.277483 0.579399 0.157487 -0.258848
C27   C     C_R   0.568601 0.534928 0.829834 0.518164
C28   C     C_R   0.429176 0.461455 0.170533 0.409471
C29   C     C_R   0.573454 0.490985 0.917857 0.025877
C30   C     C_R   0.421465 0.502373 0.080238 -0.081777
C31   C     C_R   0.674556 0.428848 0.977565 -0.114928
C32   C     C_R   0.318826 0.562578 0.020019 0.004175
C33   C     C_R   0.484226 0.510128 0.949699 0.031081
C34   C     C_R   0.366332 0.547489 0.884982 0.561048
C35   C     C_R   0.511856 0.485859 0.048701 -0.145588
C36   C     C_R   0.703225 0.410690 0.075402 -0.091618
C37   C     C_R   0.290176 0.581013 0.922171 -0.237399
C38   C     C_R   0.547283 0.811710 0.521659 -0.273139
C39   C     C_R   0.450668 0.189037 0.475803 -0.269721
C40   C     C_R   0.344710 0.026463 0.490667 0.426116
H1    H     H_    0.787669 0.374650 0.125479 0.219736
H2    H     H_    0.168645 0.148300 0.421063 0.365351
H3    H     H_    0.203383 0.011669 0.518138 0.365833
H4    H     H_    0.791367 0.988104 0.474608 0.366108
H5    H     H_    0.205256 0.616757 0.872831 0.191465
H6    H     H_    0.228905 0.616211 0.189344 0.237065
H7    H     H_    0.767556 0.379270 0.809111 0.235999
H8    H     H_    0.485713 0.326494 0.165747 0.370497
H9    H     H_    0.547971 0.661882 0.746464 0.341755
H10   H     H_    0.652581 0.515367 0.226259 0.378620
H11   H     H_    0.242089 0.576554 0.751854 0.350819
H12   H     H_    0.828993 0.854789 0.576002 0.363766
N1    N     N_R   0.799120 0.480200 0.517090 -0.168184
N2    N     N_R   0.200880 0.519800 0.482910 -0.174437
O1    O     O_R   0.580150 0.341050 0.504560 -0.567364
O2    O     O_3   0.517750 0.631059 0.793443 -0.672911
O3    O     O_3   0.682662 0.452843 0.211993 -0.680848
O4    O     O_3   0.323395 0.544773 0.785829 -0.675423
O5    O     O_3   0.754400 0.809995 0.541875 -0.693707
O6    O     O_3   0.244000 0.191716 0.456669 -0.692264
O7    O     O_3   0.241561 0.970970 0.487981 -0.675552
O8    O     O_3   0.753067 0.029960 0.503843 -0.679138
O9    O     O_R   0.419850 0.658950 0.495440 -0.573503
O10   O     O_R   0.388090 0.353760 0.493600 -0.537498
O11   O     O_R   0.611910 0.646240 0.506400 -0.535458
O12   O     O_R   0.650890 0.490020 0.640860 -0.600371
O13   O     O_R   0.349110 0.509980 0.359140 -0.610700
O14   O     O_R   0.458830 0.502730 0.629890 -0.552193
O15   O     O_R   0.541170 0.497270 0.370110 -0.554115
O16   O     O_3   0.485404 0.369525 0.215762 -0.682644
Zn1   Zn    Zn3+2 0.628240 0.491510 0.507320 1.087614
Zn2   Zn    Zn3+2 0.371760 0.508490 0.492680 1.086226

loop_
_geom_bond_atom_site_label_1
_geom_bond_atom_site_label_2
_ccdc_geom_bond_type
Br6   C22   S    
C23   C35   A    
C12   C38   S    
C24   C32   A    
C40   O7    S    
C6    C38   A    
C29   C31   A    
Br5   C10   S    
C23   O3    S    
C16   O14   A    
C20   C25   A    
N1    Zn1   S    
C26   H6    S    
C18   C19   A    
C9    C11   A    
C17   O15   A    
H9    O2    S    
C3    O6    S    
C15   N1    A    
C11   N2    A    
Br4   C9    S    
H10   O3    S    
C2    C7    A    
C16   O12   A    
C31   C36   A    
C34   C37   A    
H8    O16   S    
C30   C32   A    
C2    O8    S    
C14   N2    A    
C23   C36   A    
C12   O11   A    
O10   Zn2   S    
C15   C19   A    
C30   C35   A    
C17   C21   S    
C22   C25   A    
O15   Zn1   S    
O11   Zn1   S    
C29   C33   A    
C10   C18   A    
C36   H1    S    
C20   C27   A    
C33   C34   A    
C1    C39   S    
O14   Zn2   S    
O1    Zn1   S    
C10   C13   A    
C22   C31   A    
C27   O2    S    
C7    C8    A    
C33   C35   A    
N2    Zn2   S    
C3    C39   A    
Br10  C15   S    
C6    C8    A    
C2    C4    A    
Br1   C13   S    
Br2   C14   S    
C4    O5    S    
Br3   C11   S    
H3    O7    S    
O9    Zn2   S    
C8    C40   A    
C37   H5    S    
C5    C7    A    
C21   C26   A    
C14   C18   A    
C17   O13   A    
C1    O10   A    
O12   Zn1   S    
C4    C38   A    
C16   C20   S    
C21   C28   A    
C25   H7    S    
Br9   C5    S    
C27   C29   A    
C28   C30   A    
H11   O4    S    
C28   O16   S    
O13   Zn2   S    
C13   N1    A    
Br7   C24   S    
C24   C26   A    
C32   C37   A    
C5    C39   A    
H2    O6    S    
C3    C40   A    
H4    O8    S    
H12   O5    S    
Br8   C6    S    
C34   O4    S    
C12   O9    A    
C1    O1    A    
C9    C19   A    
