data_mof_unit_26803.cif
_audit_creation_date              2012-12-10T17:45:20-0500
_audit_creation_method            fapswitch 2.2
_symmetry_space_group_name_H-M    P1
_symmetry_Int_Tables_number       1
_space_group_crystal_system       triclinic
_cell_length_a                    14.988288
_cell_length_b                    13.994601
_cell_length_c                    23.540699
_cell_angle_alpha                 90.533095
_cell_angle_beta                  84.585835
_cell_angle_gamma                 90.613894
_cell_volume                      4915.30009219

loop_
_atom_site_label
_atom_site_type_symbol
_atom_type_description
_atom_site_fract_x
_atom_site_fract_y
_atom_site_fract_z
_atom_type_partial_charge
C1    C     C_R   0.329770 0.499096 0.496548 0.902797
C2    C     C_R   0.670265 0.500253 0.503409 0.906343
C3    C     C_R   0.522887 0.405376 0.240674 -0.159818
C4    C     C_R   0.488397 0.402254 0.757634 -0.159362
C5    C     C_R   0.520687 0.413116 0.299434 -0.230363
C6    C     C_R   0.488353 0.411502 0.699204 -0.198651
C7    C     C_R   0.493422 0.497981 0.328276 -0.166975
C8    C     C_R   0.506150 0.500033 0.672124 -0.142919
C9    C     C_R   0.463629 0.576172 0.296303 0.384956
C10   C     C_R   0.527257 0.581653 0.706056 0.355660
C11   C     C_R   0.472085 0.568861 0.235727 0.170628
C12   C     C_R   0.522114 0.571284 0.766421 0.169208
C13   C     C_R   0.499688 0.482765 0.208808 0.264417
C14   C     C_R   0.504543 0.481392 0.791209 0.263966
C15   C     C_R   0.818114 0.515696 0.452375 -0.069789
C16   C     C_R   0.182698 0.520440 0.546938 -0.075221
C17   C     C_R   0.767336 0.501264 0.504175 -0.160284
C18   C     C_R   0.232726 0.497523 0.496016 -0.160502
C19   C     C_R   0.809251 0.492181 0.554902 0.389288
C20   C     C_R   0.190133 0.478848 0.446182 0.415115
C21   C     C_R   0.901489 0.516134 0.553746 -0.039925
C22   C     C_R   0.098959 0.504640 0.446003 -0.048937
C23   C     C_R   0.496485 0.499853 0.391211 0.926789
C24   C     C_R   0.503006 0.500743 0.608966 0.926710
C25   C     C_R   0.953605 0.518967 0.500440 -0.060957
C26   C     C_R   0.047228 0.517590 0.498957 -0.061572
C27   C     C_R   0.911895 0.519605 0.448835 -0.026008
C28   C     C_R   0.089100 0.524985 0.550422 -0.027398
C29   C     C_R   0.942563 0.537759 0.604197 0.175468
C30   C     C_R   0.058715 0.518988 0.394615 0.154436
C31   C     C_R   0.037099 0.540329 0.603376 0.356558
C32   C     C_R   0.964471 0.526733 0.395473 0.364869
C33   C     C_R   0.434579 0.795911 0.534293 0.483135
C34   C     C_R   0.566615 0.206029 0.465693 0.487270
C35   C     C_R   0.564898 0.797045 0.466097 0.461308
C36   C     C_R   0.430790 0.205006 0.531099 0.480742
C37   C     C_R   0.553283 0.897250 0.457575 -0.155840
C38   C     C_R   0.428682 0.102372 0.528033 -0.178673
C39   C     C_R   0.438500 0.898479 0.535753 -0.166048
C40   C     C_R   0.565786 0.102533 0.464744 -0.154713
C41   C     C_R   0.495720 0.948699 0.496069 -0.055153
C42   C     C_R   0.496850 0.052070 0.496207 -0.070659
C43   C     C_R   0.604551 0.951627 0.415893 0.249083
C44   C     C_R   0.360128 0.045469 0.556725 0.256049
C45   C     C_R   0.384275 0.954822 0.574734 0.257061
C46   C     C_R   0.629076 0.045076 0.430893 0.285840
C47   C     C_R   0.583383 0.473698 0.875763 0.587108
C48   C     C_R   0.422350 0.465238 0.123967 0.583556
C49   C     C_R   0.423591 0.463106 0.884314 0.561578
C50   C     C_R   0.582125 0.476258 0.115470 0.564761
C51   C     C_R   0.420550 0.462734 0.944517 -0.051418
C52   C     C_R   0.585265 0.475160 0.055243 -0.051069
C53   C     C_R   0.502681 0.467480 0.969837 -0.063154
C54   C     C_R   0.503252 0.468213 0.029900 -0.063442
C55   C     C_R   0.584416 0.472305 0.935155 -0.041742
C56   C     C_R   0.421542 0.462728 0.064566 -0.041750
C57   C     C_R   0.338865 0.458574 0.980205 0.247225
C58   C     C_R   0.666857 0.481199 0.019558 0.248105
C59   C     C_R   0.340533 0.456987 0.039481 -0.221053
C60   C     C_R   0.665425 0.478070 0.960249 -0.220949
Cu1   Cu    Cu3+1 0.500000 0.597420 0.500000 1.161607
Cu2   Cu    Cu3+1 0.500000 0.402580 0.500000 1.136218
H1    H     H_    0.277336 0.453784 0.065909 0.191883
H2    H     H_    0.728541 0.482830 0.933824 0.191863
H3    H     H_    0.543395 0.338946 0.219629 0.179790
H4    H     H_    0.475068 0.333115 0.777107 0.177896
H5    H     H_    0.540325 0.351283 0.322307 0.240326
H6    H     H_    0.474273 0.347679 0.675177 0.232040
H7    H     H_    0.782507 0.518397 0.414786 0.232475
H8    H     H_    0.218865 0.530691 0.583969 0.231460
N1    N     N_R   0.503859 0.470752 0.851819 -0.445523
N2    N     N_R   0.501598 0.473300 0.147968 -0.445756
N3    N     N_R   0.500000 0.743810 0.500000 -0.262758
N4    N     N_R   0.500000 0.256190 0.500000 -0.299228
O1    O     O_R   0.370260 0.582280 0.500010 -0.517536
O2    O     O_R   0.629740 0.417720 0.499990 -0.501663
O3    O     O_R   0.629740 0.582280 0.499990 -0.492145
O4    O     O_R   0.370260 0.417720 0.500010 -0.501462
O5    O     O_R   0.499980 0.582290 0.417880 -0.530916
O6    O     O_R   0.500020 0.417710 0.582120 -0.544157
O7    O     O_R   0.500020 0.582290 0.582120 -0.495623
O8    O     O_R   0.499980 0.417710 0.417880 -0.539270
O9    O     O_2   0.661225 0.478838 0.841987 -0.536238
O10   O     O_2   0.344465 0.460266 0.157716 -0.535219
O11   O     O_2   0.347526 0.456586 0.858091 -0.485046
O12   O     O_2   0.658270 0.480627 0.141709 -0.488873
N5    N     N_2   0.254262 0.457836 0.957388 -0.371246
H9    H     H_    0.207860 0.412589 0.978593 0.253663
C61   C     C_3   0.218137 0.552073 0.950548 -0.570435
H10   H     H_    0.155452 0.545921 0.929074 0.235351
H11   H     H_    0.266598 0.597320 0.923835 0.238494
H12   H     H_    0.202664 0.587007 0.992885 0.200173
N6    N     N_2   0.750950 0.492231 0.042430 -0.371890
H13   H     H_    0.801507 0.453047 0.020814 0.252956
C62   C     C_3   0.777592 0.590821 0.050220 -0.574752
H14   H     H_    0.840458 0.593509 0.071664 0.233563
H15   H     H_    0.724996 0.629831 0.077359 0.239718
H16   H     H_    0.789562 0.626750 0.008231 0.201313
S1    S     S_3+6 0.091294 0.561313 0.667399 0.010894
O13   O     O_2   0.145913 0.474996 0.678160 -0.283806
O14   O     O_2   0.153038 0.646174 0.657983 -0.221895
O15   O     O_3   0.022481 0.582732 0.726622 -0.546009
H17   H     H_    0.062639 0.593832 0.757173 0.390233
S2    S     S_3+6 0.911278 0.545332 0.331145 0.001519
O16   O     O_2   0.856574 0.457726 0.319910 -0.285913
O17   O     O_2   0.849829 0.629369 0.340333 -0.250327
O18   O     O_3   0.980869 0.567015 0.272329 -0.549371
H18   H     H_    0.941233 0.575095 0.241377 0.391089
S3    S     S_3+6 0.331782 0.742826 0.567979 0.076620
O19   O     O_2   0.347256 0.652084 0.598594 -0.214591
O20   O     O_2   0.280419 0.805495 0.611176 -0.260877
O21   O     O_3   0.262601 0.721850 0.516911 -0.546970
H19   H     H_    0.255992 0.784530 0.498676 0.315448
S4    S     S_3+6 0.655896 0.262651 0.418703 0.045592
O22   O     O_2   0.740892 0.255035 0.447414 -0.249618
O23   O     O_2   0.665850 0.206634 0.363698 -0.333262
O24   O     O_3   0.653006 0.376329 0.397751 -0.541626
H20   H     H_    0.702313 0.383083 0.366932 0.389560
S5    S     S_3+6 0.677301 0.754267 0.448441 0.041194
O25   O     O_2   0.741579 0.826025 0.420044 -0.290488
O26   O     O_2   0.716601 0.729730 0.502811 -0.251522
O27   O     O_3   0.675680 0.659001 0.404453 -0.503065
H21   H     H_    0.659462 0.684383 0.367737 0.360122
S6    S     S_3+6 0.339216 0.259303 0.576776 0.046539
O28   O     O_2   0.258785 0.260748 0.543174 -0.258920
O29   O     O_2   0.317930 0.196941 0.628092 -0.298357
O30   O     O_3   0.348117 0.369371 0.603947 -0.536564
H22   H     H_    0.291141 0.380111 0.627909 0.390948
N7    N     N_2   0.632968 0.913662 0.360540 -0.391164
H23   H     H_    0.613185 0.844396 0.353622 0.298031
C63   C     C_3   0.619231 0.974109 0.312628 -0.602920
H24   H     H_    0.640603 0.935842 0.272153 0.226052
H25   H     H_    0.659995 0.040471 0.313821 0.263408
H26   H     H_    0.547147 0.992143 0.312938 0.235690
N8    N     N_2   0.268270 0.065458 0.549909 -0.368838
H27   H     H_    0.258045 0.090813 0.510046 0.283954
C64   C     C_3   0.198353 0.000731 0.572945 -0.513866
H28   H     H_    0.131952 0.032007 0.567528 0.232997
H29   H     H_    0.202453 0.990058 0.619228 0.247862
H30   H     H_    0.203210 0.931450 0.549657 0.215261
N9    N     N_2   0.388532 0.941558 0.634431 -0.356768
H31   H     H_    0.336929 0.973587 0.659473 0.274478
C65   C     C_3   0.474624 0.964723 0.654578 -0.508187
H32   H     H_    0.473174 0.946972 0.700533 0.242272
H33   H     H_    0.489567 0.042272 0.649220 0.197744
H34   H     H_    0.528872 0.922899 0.630851 0.260508
N10   N     N_2   0.722516 0.066933 0.426024 -0.340286
H35   H     H_    0.758501 0.035582 0.391376 0.295612
C66   C     C_3   0.764598 0.052849 0.478216 -0.497341
H36   H     H_    0.836115 0.075168 0.471707 0.241943
H37   H     H_    0.760927 0.976344 0.490479 0.231233
H38   H     H_    0.731261 0.096590 0.513550 0.234274
S7    S     S_3+6 0.410650 0.677845 0.331116 -0.009342
O31   O     O_2   0.481583 0.742945 0.351018 -0.363098
O32   O     O_2   0.355656 0.733127 0.292918 -0.311962
O33   O     O_3   0.342337 0.643139 0.387935 -0.507247
H39   H     H_    0.323014 0.703386 0.407484 0.370421
S8    S     S_3+6 0.560908 0.694032 0.674464 0.013666
O34   O     O_2   0.478677 0.742646 0.657998 -0.233101
O35   O     O_2   0.605611 0.759834 0.714086 -0.341325
O36   O     O_3   0.632446 0.678441 0.615732 -0.474262
H40   H     H_    0.692973 0.685824 0.628718 0.378053
N11   N     N_2   0.454441 0.646524 0.200047 -0.411354
H41   H     H_    0.389054 0.668685 0.201406 0.309762
C67   C     C_3   0.523015 0.720097 0.193719 -0.592745
H42   H     H_    0.506449 0.771628 0.160818 0.220824
H43   H     H_    0.589003 0.687940 0.179667 0.230453
H44   H     H_    0.527519 0.759220 0.234572 0.265848
N12   N     N_2   0.533413 0.649500 0.804136 -0.416753
H45   H     H_    0.595535 0.681996 0.801639 0.307842
C68   C     C_3   0.456422 0.710251 0.816244 -0.558065
H46   H     H_    0.470080 0.762902 0.849979 0.213379
H47   H     H_    0.396818 0.666755 0.831894 0.229734
H48   H     H_    0.441831 0.749421 0.777472 0.273695
S9    S     S_3+6 0.755078 0.428935 0.614471 0.003805
O37   O     O_2   0.683846 0.361583 0.596989 -0.281385
O38   O     O_2   0.823647 0.371133 0.641393 -0.266963
O39   O     O_3   0.708771 0.506710 0.663002 -0.565161
H49   H     H_    0.701077 0.470861 0.699251 0.385479
S10   S     S_3+6 0.241094 0.403111 0.390810 0.030605
O40   O     O_2   0.308324 0.337187 0.412476 -0.267066
O41   O     O_2   0.169511 0.342778 0.367046 -0.267360
O42   O     O_3   0.292121 0.469358 0.338028 -0.516320
H50   H     H_    0.304540 0.424395 0.305568 0.379936
N13   N     N_2   0.887368 0.567897 0.653292 -0.355138
H51   H     H_    0.892304 0.530130 0.690114 0.341305
C69   C     C_3   0.876310 0.670144 0.659500 -0.521020
H52   H     H_    0.825418 0.685561 0.695714 0.241961
H53   H     H_    0.853151 0.700369 0.620027 0.212913
H54   H     H_    0.940551 0.705360 0.667787 0.257075
N14   N     N_2   0.115037 0.534941 0.343572 -0.355723
H55   H     H_    0.102027 0.494273 0.308613 0.333582
C70   C     C_3   0.140964 0.633531 0.333001 -0.415137
H56   H     H_    0.189762 0.637491 0.294568 0.257512
H57   H     H_    0.172849 0.663726 0.369959 0.223389
H58   H     H_    0.081669 0.677235 0.326055 0.234029

loop_
_geom_bond_atom_site_label_1
_geom_bond_atom_site_label_2
_ccdc_geom_bond_type
C16   C28   A    
C65   H34   S    
S8    O35   D    
N5    H9    S    
C41   C42   A    
C67   H42   S    
C23   O8    A    
O15   H17   S    
C14   N1    S    
C35   S5    S    
C62   H14   S    
N10   H35   S    
C5    H5    S    
C63   H26   S    
S2    O17   D    
S4    O22   D    
C62   H16   S    
C66   H36   S    
N8    H27   S    
C20   S10   S    
C63   H25   S    
C53   C54   A    
Cu1   O1    S    
C40   C46   A    
C68   H47   S    
C1    C18   S    
N6    H13   S    
C37   C41   A    
C34   C40   A    
Cu2   O6    S    
O33   H39   S    
C35   C37   A    
C58   N6    S    
C38   C42   A    
C66   H37   S    
C61   H11   S    
C57   C59   A    
C58   C60   A    
C65   H32   S    
C65   H33   S    
N12   H45   S    
C56   C59   A    
C50   N2    A    
S2    O16   D    
C69   H54   S    
S8    O36   S    
C17   C19   A    
C24   O6    A    
N11   H41   S    
S10   O41   D    
C49   C51   A    
C50   C52   A    
O18   H18   S    
C32   S2    S    
C51   C57   A    
C47   O9    S    
S7    O32   D    
C10   S8    S    
C3    C13   A    
S10   O42   S    
C39   C45   A    
C44   N8    S    
S5    O26   D    
Cu2   O8    S    
C47   C55   A    
C9    S7    S    
C67   H43   S    
C55   C60   A    
C2    C17   S    
C45   N9    S    
C1    O4    A    
N12   C68   S    
Cu2   O2    S    
C3    H3    S    
C48   N2    A    
C10   C12   A    
O21   H19   S    
C68   H48   S    
C52   C54   A    
O39   H49   S    
S9    O39   S    
C7    C9    A    
C53   C55   A    
C15   H7    S    
C64   H30   S    
C54   C56   A    
N14   H55   S    
C1    O1    A    
C49   O11   S    
C43   N7    S    
C16   H8    S    
S9    O38   D    
C66   H38   S    
Cu1   O3    S    
C5    C7    A    
C6    C8    A    
Cu1   N3    S    
C25   C26   A    
C21   C29   A    
C48   O10   S    
C51   C53   A    
N9    C65   S    
C70   H57   S    
C37   C43   A    
O42   H50   S    
N14   C70   S    
C38   C44   A    
C64   H29   S    
C15   C27   A    
C46   N10   S    
C24   O7    A    
C70   H58   S    
C11   N11   S    
C16   C18   A    
C33   C39   A    
C30   N14   S    
C52   C58   A    
C61   H12   S    
C9    C11   A    
C68   H46   S    
C47   N1    A    
C36   N4    A    
C34   N4    A    
S6    O30   S    
C4    C6    A    
S1    O14   D    
C12   C14   A    
C67   H44   S    
C31   S1    S    
N5    C61   S    
C22   C26   A    
S8    O34   D    
S3    O21   S    
C33   S3    S    
C36   S6    S    
O30   H22   S    
C61   H10   S    
C2    O2    A    
S10   O40   D    
S6    O29   D    
N7    H23   S    
S5    O27   S    
C33   N3    A    
N8    C64   S    
C21   C25   A    
C35   N3    A    
C22   C30   A    
N10   C66   S    
C27   C32   A    
C26   C28   A    
Cu2   O4    S    
C28   C31   A    
C44   C45   A    
C20   C22   A    
C40   C42   A    
C3    C5    A    
S4    O23   D    
S5    O25   D    
C62   H15   S    
C15   C17   A    
C12   N12   S    
C13   N2    S    
C48   C56   A    
C34   S4    S    
C39   C41   A    
C64   H28   S    
C59   H1    S    
S1    O13   D    
C60   H2    S    
S3    O20   D    
O27   H21   S    
C69   H52   S    
C29   C31   A    
S9    O37   D    
Cu1   O7    S    
O24   H20   S    
C36   C38   A    
C30   C32   A    
C11   C13   A    
S7    O33   S    
N13   H51   S    
N6    C62   S    
O36   H40   S    
Cu1   O5    S    
C7    C23   S    
C6    H6    S    
C8    C24   S    
C29   N13   S    
C18   C20   A    
C4    C14   A    
Cu1   Cu2   S    
C43   C46   A    
C19   S9    S    
C69   H53   S    
S4    O24   S    
N13   C69   S    
C50   O12   S    
C57   N5    S    
N7    C63   S    
S1    O15   S    
C4    H4    S    
C8    C10   A    
C70   H56   S    
C49   N1    A    
S3    O19   D    
C2    O3    A    
Cu2   N4    S    
N11   C67   S    
C23   O5    A    
S7    O31   D    
N9    H31   S    
S2    O18   S    
C63   H24   S    
S6    O28   D    
C19   C21   A    
C25   C27   A    
