data_mof_unit_41854.cif
_audit_creation_date              2012-12-11T14:44:31-0500
_audit_creation_method            fapswitch 2.2
_symmetry_space_group_name_H-M    P1
_symmetry_Int_Tables_number       1
_space_group_crystal_system       triclinic
_cell_length_a                    24.929938
_cell_length_b                    16.739068
_cell_length_c                    15.587992
_cell_angle_alpha                 90.08199
_cell_angle_beta                  49.8981
_cell_angle_gamma                 89.998737
_cell_volume                      4975.61255441

loop_
_atom_site_label
_atom_site_type_symbol
_atom_type_description
_atom_site_fract_x
_atom_site_fract_y
_atom_site_fract_z
_atom_type_partial_charge
C1    C     C_R   0.334387 0.113697 0.801580 -0.139988
C2    C     C_R   0.665790 0.886925 0.197973 -0.146844
C3    C     C_R   0.665719 0.113095 0.198167 -0.146728
C4    C     C_R   0.342857 0.865979 0.781199 -0.147226
C5    C     C_R   0.851697 0.646602 0.758552 -0.120619
C6    C     C_R   0.148347 0.353494 0.241276 -0.131445
C7    C     C_R   0.164107 0.618310 0.203015 -0.118939
C8    C     C_R   0.851784 0.353463 0.758396 -0.121873
C9    C     C_3   0.299715 0.294096 0.394436 -0.149834
C10   C     C_3   0.725504 0.739293 0.579727 -0.144748
C11   C     C_3   0.701046 0.293005 0.605204 -0.149974
C12   C     C_3   0.284880 0.730553 0.404324 -0.147776
C13   C     C_3   0.727975 0.683587 0.415140 -0.148035
C14   C     C_3   0.252506 0.290682 0.605659 -0.145693
C15   C     C_3   0.264940 0.694173 0.591196 -0.149423
C16   C     C_3   0.746187 0.292222 0.395193 -0.144550
C17   C     C_2   0.693960 0.157289 0.017351 0.189863
C18   C     C_2   0.342572 0.757772 0.892527 0.206917
C19   C     C_2   0.306190 0.158373 0.982248 0.187524
C20   C     C_2   0.694153 0.843094 0.016791 0.189038
C21   C     C_2   0.191809 0.665878 0.024811 0.197601
C22   C     C_2   0.857290 0.237995 0.857814 0.196297
C23   C     C_2   0.857178 0.762312 0.857994 0.197131
C24   C     C_2   0.142933 0.237960 0.141693 0.193410
C25   C     C_2   0.762845 0.140852 0.952506 -0.160655
C26   C     C_2   0.311039 0.704183 0.873691 -0.170519
C27   C     C_2   0.237507 0.140989 0.047291 -0.146451
C28   C     C_2   0.762939 0.859839 0.952013 -0.161124
C29   C     C_2   0.260428 0.649308 0.961547 -0.167712
C30   C     C_2   0.814005 0.191246 0.856368 -0.151533
C31   C     C_2   0.814278 0.809295 0.855904 -0.150622
C32   C     C_2   0.185937 0.191113 0.143663 -0.155275
C33   C     C_R   0.587013 0.149433 0.592723 -0.133794
C34   C     C_R   0.413112 0.851266 0.406192 -0.124257
C35   C     C_R   0.412863 0.149348 0.407518 -0.133404
C36   C     C_R   0.590371 0.852728 0.591946 -0.132274
C37   C     C_R   0.112863 0.613859 0.592360 -0.148045
C38   C     C_R   0.885753 0.389895 0.407721 -0.149633
C39   C     C_R   0.888675 0.614463 0.405816 -0.121020
C40   C     C_R   0.114226 0.389897 0.592232 -0.149206
C41   C     C_R   0.663094 0.147466 0.405813 -0.114946
C42   C     C_R   0.335469 0.853480 0.592604 -0.137350
C43   C     C_R   0.336642 0.147380 0.594461 -0.115072
C44   C     C_R   0.663188 0.852437 0.405530 -0.124217
C45   C     C_R   0.187391 0.613745 0.405145 -0.118196
C46   C     C_R   0.811227 0.390355 0.594368 -0.140350
C47   C     C_R   0.812085 0.611648 0.593030 -0.150976
C48   C     C_R   0.188808 0.390308 0.405567 -0.140949
C49   C     C_R   0.577030 0.109663 0.197569 -0.105032
C50   C     C_R   0.431546 0.869467 0.782068 -0.104257
C51   C     C_R   0.423074 0.110201 0.802221 -0.098271
C52   C     C_R   0.577130 0.890414 0.197347 -0.106938
C53   C     C_R   0.075481 0.614020 0.201056 -0.089294
C54   C     C_R   0.940689 0.357383 0.760279 -0.080837
C55   C     C_R   0.940459 0.642612 0.760726 -0.078038
C56   C     C_R   0.059432 0.357405 0.239400 -0.087496
C57   C     C_R   0.353682 0.132519 0.864704 0.078079
C58   C     C_R   0.646635 0.868551 0.134546 0.079809
C59   C     C_R   0.646506 0.131556 0.134878 0.078522
C60   C     C_R   0.370588 0.829611 0.824118 0.072378
C61   C     C_R   0.883332 0.687908 0.792737 0.053040
C62   C     C_R   0.116657 0.312211 0.207166 0.060111
C63   C     C_R   0.144245 0.638513 0.140947 0.076547
C64   C     C_R   0.883516 0.312176 0.792392 0.053179
C65   C     C_R   0.637773 0.193105 0.498594 0.035839
C66   C     C_R   0.362145 0.807632 0.499402 0.035273
C67   C     C_R   0.361854 0.192902 0.501839 0.035787
C68   C     C_R   0.639225 0.807978 0.498283 0.036789
C69   C     C_R   0.178241 0.636434 0.498131 0.045602
C70   C     C_R   0.819185 0.370471 0.501653 0.048453
C71   C     C_R   0.822389 0.634833 0.499047 0.043175
C72   C     C_R   0.180813 0.370449 0.498263 0.048770
C73   C     C_3   0.340091 0.326555 0.431536 -0.143681
C74   C     C_3   0.662277 0.702473 0.597607 -0.142095
C75   C     C_3   0.659313 0.325988 0.570891 -0.144360
C76   C     C_3   0.340507 0.692291 0.406121 -0.144915
C77   C     C_3   0.791224 0.720247 0.397730 -0.143423
C78   C     C_3   0.212713 0.258050 0.568108 -0.139028
C79   C     C_3   0.209604 0.732523 0.588887 -0.135143
C80   C     C_3   0.787354 0.259061 0.429983 -0.140048
C81   C     C_3   0.745237 0.788178 0.479922 -0.134217
C82   C     C_3   0.279521 0.218430 0.464952 -0.133277
C83   C     C_3   0.264330 0.790199 0.495941 -0.131919
C84   C     C_3   0.721427 0.218232 0.532775 -0.133603
C85   C     C_3   0.272053 0.367282 0.535328 -0.149925
C86   C     C_3   0.708910 0.633573 0.515422 -0.148469
C87   C     C_3   0.726459 0.367967 0.467477 -0.150510
C88   C     C_3   0.284903 0.633516 0.499321 -0.145934
C89   C     C_3   0.682527 0.751175 0.497485 0.160095
C90   C     C_3   0.319226 0.251239 0.502185 0.160679
C91   C     C_3   0.319277 0.751585 0.498049 0.158173
C92   C     C_3   0.680357 0.251540 0.498310 0.161092
C93   C     C_3   0.232995 0.333351 0.497839 0.158289
C94   C     C_3   0.771144 0.671725 0.497772 0.159653
C95   C     C_3   0.766893 0.333486 0.502171 0.158388
C96   C     C_3   0.230425 0.673196 0.497292 0.156318
H1    H     H_    0.281763 0.112889 0.830159 0.122222
H2    H     H_    0.718407 0.887970 0.169422 0.121465
H3    H     H_    0.718327 0.112110 0.169654 0.120765
H4    H     H_    0.291062 0.856914 0.808864 0.136102
H5    H     H_    0.804634 0.662408 0.772451 0.128117
H6    H     H_    0.195469 0.337740 0.227212 0.129736
H7    H     H_    0.216068 0.620498 0.177013 0.125885
H8    H     H_    0.804700 0.337703 0.772363 0.128114
H9    H     H_    0.559956 0.165025 0.679188 0.120696
H10   H     H_    0.440360 0.836393 0.319453 0.116592
H11   H     H_    0.439963 0.164893 0.321091 0.121265
H12   H     H_    0.569516 0.840453 0.676199 0.106395
H13   H     H_    0.092894 0.613573 0.677873 0.108296
H14   H     H_    0.906202 0.390303 0.321932 0.109760
H15   H     H_    0.910635 0.615487 0.319227 0.101343
H16   H     H_    0.093740 0.390317 0.678043 0.110617
H17   H     H_    0.706320 0.161309 0.319163 0.116502
H18   H     H_    0.288165 0.841809 0.676863 0.120073
H19   H     H_    0.293302 0.161196 0.681143 0.116056
H20   H     H_    0.706132 0.838052 0.318828 0.123837
H21   H     H_    0.235280 0.614237 0.318616 0.114253
H22   H     H_    0.763209 0.391427 0.680739 0.113341
H23   H     H_    0.763334 0.610960 0.678734 0.122010
H24   H     H_    0.236836 0.391280 0.319211 0.112236
H25   H     H_    0.548597 0.105445 0.166995 0.124441
H26   H     H_    0.461405 0.862031 0.809394 0.123992
H27   H     H_    0.451475 0.106117 0.832854 0.125306
H28   H     H_    0.548775 0.894809 0.166667 0.124074
H29   H     H_    0.046737 0.611879 0.170890 0.122711
H30   H     H_    0.976618 0.343106 0.774564 0.128363
H31   H     H_    0.976123 0.656844 0.775552 0.127713
H32   H     H_    0.023539 0.343133 0.225027 0.129019
H33   H     H_    0.759325 0.852564 0.465304 0.130980
H34   H     H_    0.283002 0.156392 0.436274 0.130947
H35   H     H_    0.256776 0.855462 0.494590 0.131432
H36   H     H_    0.718928 0.155856 0.559414 0.130573
H37   H     H_    0.267087 0.429418 0.564491 0.115038
H38   H     H_    0.695957 0.568980 0.530276 0.116502
H39   H     H_    0.730359 0.430585 0.440697 0.116665
H40   H     H_    0.291540 0.568098 0.500182 0.114501
H41   H     H_    0.393330 0.353275 0.376396 0.133222
H42   H     H_    0.608268 0.696011 0.678878 0.134403
H43   H     H_    0.605796 0.352080 0.627831 0.132768
H44   H     H_    0.395338 0.677081 0.332077 0.136618
H45   H     H_    0.844926 0.727445 0.316055 0.137846
H46   H     H_    0.159742 0.230556 0.623511 0.136724
H47   H     H_    0.155077 0.748576 0.663273 0.140194
H48   H     H_    0.840597 0.232184 0.372787 0.136723
H49   H     H_    0.318219 0.295615 0.307875 0.146317
H50   H     H_    0.725819 0.761341 0.646635 0.143117
H51   H     H_    0.683382 0.293415 0.691258 0.146415
H52   H     H_    0.291707 0.744916 0.328272 0.149891
H53   H     H_    0.727195 0.662257 0.348497 0.135655
H54   H     H_    0.234301 0.288871 0.692025 0.141800
H55   H     H_    0.258575 0.680548 0.667002 0.139108
H56   H     H_    0.763498 0.291417 0.309370 0.141793
H57   H     H_    0.311252 0.711686 0.804183 0.143176
H58   H     H_    0.782130 0.100885 0.982064 0.149669
H59   H     H_    0.782033 0.899933 0.981839 0.149690
H60   H     H_    0.218519 0.100472 0.017693 0.155514
H61   H     H_    0.806181 0.202364 0.796508 0.147956
H62   H     H_    0.279407 0.607884 0.990237 0.150451
H63   H     H_    0.193416 0.202194 0.203981 0.149459
H64   H     H_    0.806724 0.798105 0.795698 0.146730
N1    N     N_R   0.389620 0.081040 0.705440 -0.041952
N2    N     N_R   0.610380 0.918960 0.294560 -0.041301
N3    N     N_R   0.610380 0.081040 0.294560 -0.041044
N4    N     N_R   0.389620 0.918960 0.705440 -0.040979
N5    N     N_R   0.889620 0.581040 0.705440 -0.043111
N6    N     N_R   0.110380 0.418960 0.294560 -0.045192
N7    N     N_R   0.110380 0.581040 0.294560 -0.045927
N8    N     N_R   0.889620 0.418960 0.705440 -0.043409
N9    N     N_R   0.582320 0.079840 0.556630 -0.044979
N10   N     N_R   0.417680 0.920160 0.443370 -0.044771
N11   N     N_R   0.417680 0.079840 0.443370 -0.045400
N12   N     N_R   0.582320 0.920160 0.556630 -0.043274
N13   N     N_R   0.082320 0.579840 0.556630 -0.040588
N14   N     N_R   0.917680 0.420160 0.443370 -0.041112
N15   N     N_R   0.917680 0.579840 0.443370 -0.039033
N16   N     N_R   0.082320 0.420160 0.556630 -0.040879
N17   N     N_R   0.627920 0.078930 0.443400 -0.043159
N18   N     N_R   0.372080 0.921070 0.556600 -0.040307
N19   N     N_R   0.372080 0.078930 0.556600 -0.042700
N20   N     N_R   0.627920 0.921070 0.443400 -0.043109
N21   N     N_R   0.127920 0.578930 0.443400 -0.038528
N22   N     N_R   0.872080 0.421070 0.556600 -0.039062
N23   N     N_R   0.872080 0.578930 0.556600 -0.039102
N24   N     N_R   0.127920 0.421070 0.443400 -0.039379
N25   N     N_R   0.555090 0.077730 0.294590 -0.046166
N26   N     N_R   0.444910 0.922270 0.705410 -0.045485
N27   N     N_R   0.444910 0.077730 0.705410 -0.047080
N28   N     N_R   0.555090 0.922270 0.294590 -0.046523
N29   N     N_R   0.055090 0.577730 0.294590 -0.049786
N30   N     N_R   0.944910 0.422270 0.705410 -0.049418
N31   N     N_R   0.944910 0.577730 0.705410 -0.049285
N32   N     N_R   0.055090 0.422270 0.294590 -0.050850
Ni1   Ni    Ni4+2 0.382970 0.000000 0.629840 0.231404
Ni2   Ni    Ni4+2 0.617030 0.000000 0.370160 0.222448
Ni3   Ni    Ni4+2 0.882970 0.500000 0.629840 0.231639
Ni4   Ni    Ni4+2 0.117030 0.500000 0.370160 0.220780
Ni5   Ni    Ni4+2 0.514540 0.000000 0.629840 0.221996
Ni6   Ni    Ni4+2 0.485460 0.000000 0.370160 0.216123
Ni7   Ni    Ni4+2 0.014540 0.500000 0.629840 0.221275
Ni8   Ni    Ni4+2 0.985460 0.500000 0.370160 0.214288
I1    I     I_    0.345569 0.747782 0.025600 -0.469102
I2    I     I_    0.651764 0.232795 0.963504 -0.468866
I3    I     I_    0.652296 0.767398 0.962420 -0.472016
I4    I     I_    0.347814 0.235279 0.035897 -0.473217
I5    I     I_    0.876071 0.219073 0.971920 -0.451429
I6    I     I_    0.151097 0.743518 0.970553 -0.461936
I7    I     I_    0.124976 0.219262 0.026486 -0.453524
I8    I     I_    0.875471 0.781342 0.972737 -0.449988

loop_
_geom_bond_atom_site_label_1
_geom_bond_atom_site_label_2
_ccdc_geom_bond_type
C65   C92   S    
C79   C83   S    
C6    N6    A    
C37   C69   A    
C23   I8    S    
C36   H12   S    
C53   C63   A    
C51   H27   S    
N7    Ni4   S    
C50   H26   S    
C80   C84   S    
C69   C96   S    
C33   N9    A    
N14   N22   A    
C88   C96   S    
C45   N21   A    
C40   H16   S    
C71   C94   S    
C19   C57   S    
C54   H30   S    
C43   N19   A    
C54   C64   A    
N27   Ni5   S    
C74   C89   S    
C41   N17   A    
C56   N32   A    
N6    Ni4   S    
C73   C90   S    
N11   Ni6   S    
N4    N26   A    
C78   H46   S    
C38   N14   A    
N13   Ni7   S    
C10   C94   S    
C78   C93   S    
C11   C95   S    
C77   C94   S    
C27   H60   S    
N8    N30   A    
C46   H22   S    
C9    H49   S    
N21   Ni4   S    
C54   N30   A    
C14   C90   S    
C56   H32   S    
C86   C94   S    
C24   I7    S    
C43   H19   S    
C53   H29   S    
C85   C93   S    
C42   H18   S    
C79   H47   S    
C80   H48   S    
N8    Ni3   S    
C87   C95   S    
C13   C86   S    
C28   H59   S    
N23   Ni3   S    
C4    N4    A    
N26   Ni5   S    
C15   C88   S    
C51   C57   A    
C55   N31   A    
C5    N5    A    
N25   Ni6   S    
C38   H14   S    
C19   C27   D    
C76   C88   S    
C37   H13   S    
C31   H64   S    
C34   N10   A    
C3    N3    A    
C9    C82   S    
C52   H28   S    
C32   H63   S    
C81   C89   S    
N12   N20   A    
C47   H23   S    
C27   C32   S    
C1    N1    A    
N2    Ni2   S    
C7    H7    S    
C35   N11   A    
C18   C60   S    
C6    H6    S    
N11   N19   A    
C13   H53   S    
C9    C73   S    
C48   C72   A    
N5    Ni3   S    
N9    N17   A    
C34   C66   A    
C86   H38   S    
N30   Ni7   S    
N9    Ni5   S    
C5    H5    S    
C76   H44   S    
N7    N29   A    
N18   Ni1   S    
C13   C77   S    
C36   N12   A    
C8    N8    A    
N17   Ni2   S    
C45   C69   A    
C34   H10   S    
C35   H11   S    
C87   H39   S    
C33   H9    S    
C88   H40   S    
C47   N23   A    
C1    H1    S    
C48   N24   A    
N4    Ni1   S    
N32   Ni8   S    
C41   C65   A    
C20   C28   D    
N3    Ni2   S    
N24   Ni4   S    
C21   C29   D    
C84   H36   S    
C67   C90   S    
C33   C65   A    
C22   I5    S    
C16   C80   S    
C23   C31   D    
C21   I6    S    
C24   C32   D    
C83   H35   S    
C1    C57   A    
C16   C87   S    
C74   H42   S    
C78   C82   S    
C81   H33   S    
N28   Ni6   S    
C49   H25   S    
C18   C26   D    
C4    C60   A    
C36   C68   A    
C68   C89   S    
N1    Ni1   S    
N12   Ni5   S    
C16   H56   S    
C15   H55   S    
C74   C86   S    
C80   C95   S    
C84   C92   S    
C8    H8    S    
C7    C63   A    
C29   H62   S    
C52   C58   A    
C75   C92   S    
C8    C64   A    
C72   C93   S    
N29   Ni8   S    
C75   C87   S    
C38   C70   A    
C10   H50   S    
C16   C92   S    
C40   C72   A    
C4    H4    S    
C39   N15   A    
C56   C62   A    
C44   C68   A    
C82   H34   S    
C47   C71   A    
N16   Ni7   S    
C20   C58   S    
C50   N26   A    
C9    C93   S    
N10   Ni6   S    
C46   C70   A    
N20   Ni2   S    
C48   H24   S    
N15   N23   A    
N19   Ni1   S    
C23   C61   S    
C45   H21   S    
C25   C30   S    
N16   N24   A    
C7    N7    A    
C24   C62   S    
C22   C30   D    
C13   C89   S    
C25   H58   S    
C44   H20   S    
C28   C31   S    
C12   C83   S    
C20   I3    S    
N31   Ni7   S    
C37   N13   A    
C49   C59   A    
C55   H31   S    
C2    C58   A    
C66   C91   S    
C15   C79   S    
C11   C84   S    
C83   C91   S    
C40   N16   A    
C10   C81   S    
N14   Ni8   S    
C82   C90   S    
C6    C62   A    
N3    N25   A    
C50   C60   A    
C46   N22   A    
C12   C76   S    
C70   C95   S    
C17   C59   S    
C30   H61   S    
C17   C25   D    
C73   C85   S    
N1    N27   A    
C75   H43   S    
C12   H52   S    
N2    N28   A    
C39   H15   S    
C10   C74   S    
C11   H51   S    
C44   N20   A    
C73   H41   S    
C42   N18   A    
C55   C61   A    
C41   H17   S    
C19   I4    S    
N5    N31   A    
C14   C85   S    
C18   I1    S    
N6    N32   A    
C14   C78   S    
N13   N21   A    
C17   I2    S    
C77   H45   S    
N15   Ni8   S    
C21   C63   S    
C51   N27   A    
C35   C67   A    
C76   C91   S    
C15   C91   S    
C14   H54   S    
C3    H3    S    
C79   C96   S    
C49   N25   A    
C2    H2    S    
C26   C29   S    
C43   C67   A    
C77   C81   S    
C42   C66   A    
C39   C71   A    
C12   C96   S    
C26   H57   S    
C11   C75   S    
N22   Ni3   S    
C52   N28   A    
C22   C64   S    
C53   N29   A    
C5    C61   A    
C85   H37   S    
C2    N2    A    
N10   N18   A    
C3    C59   A    
