data_mof_unit_43838.cif
_audit_creation_date              2012-12-10T17:11:09-0500
_audit_creation_method            fapswitch 2.2
_symmetry_space_group_name_H-M    P1
_symmetry_Int_Tables_number       1
_space_group_crystal_system       triclinic
_cell_length_a                    10.067445
_cell_length_b                    10.675249
_cell_length_c                    16.656507
_cell_angle_alpha                 90.198893
_cell_angle_beta                  84.389669
_cell_angle_gamma                 88.836071
_cell_volume                      1781.14674154

loop_
_atom_site_label
_atom_site_type_symbol
_atom_type_description
_atom_site_fract_x
_atom_site_fract_y
_atom_site_fract_z
_atom_type_partial_charge
C1    C     C_R   0.497633 0.737038 0.508125 0.890783
C2    C     C_R   0.354550 0.523809 0.788339 -0.214250
C3    C     C_R   0.427802 0.544455 0.136657 -0.185697
C4    C     C_R   0.421185 0.509510 0.216729 -0.202443
C5    C     C_R   0.652181 0.566828 0.221132 -0.227147
C6    C     C_R   0.660091 0.603786 0.140406 0.128706
C7    C     C_R   0.545379 0.594441 0.098280 0.134809
C8    C     C_2   0.444098 0.667224 0.978245 -0.167740
C9    C     C_2   0.550692 0.622970 0.012239 -0.187427
C10   C     C_R   0.532506 0.522160 0.259724 -0.064598
C11   C     C_2   0.603033 0.066367 0.526100 -0.150216
C12   C     C_R   0.480700 0.506117 0.653145 0.857464
C13   C     C_2   0.506685 0.129537 0.493368 -0.363915
C14   C     C_2   0.604114 0.931786 0.522418 -0.208821
C15   C     C_2   0.491830 0.865632 0.535840 -0.042803
C16   C     C_2   0.078423 0.414157 0.467210 -0.210176
C17   C     C_2   0.929599 0.401318 0.484973 0.459971
C18   C     C_R   0.501692 0.262411 0.497942 0.939207
C19   C     C_R   0.519418 0.501977 0.346525 0.869151
C20   C     C_R   0.467991 0.549527 0.736307 -0.067691
C21   C     C_R   0.563859 0.631636 0.760414 -0.340239
C22   C     C_R   0.550372 0.683423 0.837901 0.471620
C23   C     C_R   0.441121 0.649126 0.891718 0.152166
C24   C     C_R   0.341163 0.573633 0.865949 -0.262323
H1    H     H_    0.648186 0.657058 0.718586 0.154889
H2    H     H_    0.685275 0.112745 0.550718 0.208674
H3    H     H_    0.427384 0.082530 0.465985 0.153775
H4    H     H_    0.697940 0.888396 0.497723 0.164652
H5    H     H_    0.131766 0.344008 0.428530 0.142009
H6    H     H_    0.890669 0.581214 0.476520 0.119290
H7    H     H_    0.328288 0.473790 0.245198 0.159080
H8    H     H_    0.738519 0.577381 0.254499 0.156990
H9    H     H_    0.640157 0.593128 0.974629 0.181917
H10   H     H_    0.257301 0.546656 0.907498 0.153893
H11   H     H_    0.340855 0.530269 0.104497 0.138025
H12   H     H_    0.278646 0.462656 0.769739 0.166053
H13   H     H_    0.351795 0.692171 0.014624 0.138582
N1    N     N_2   0.147950 0.498670 0.499150 -0.102708
N2    N     N_2   0.852290 0.498640 0.499130 -0.193849
O1    O     O_R   0.386960 0.680940 0.500010 -0.628549
O2    O     O_R   0.613100 0.680900 0.499990 -0.636953
O3    O     O_R   0.373570 0.500040 0.615810 -0.639473
O4    O     O_R   0.599710 0.500000 0.615790 -0.599299
O5    O     O_R   0.386900 0.319100 0.500010 -0.624660
O6    O     O_R   0.613040 0.319060 0.499990 -0.529263
O7    O     O_R   0.400290 0.500000 0.384210 -0.608782
O8    O     O_R   0.626430 0.499960 0.384190 -0.609319
Zn1   Zn    Zn3+2 0.349000 0.500030 0.500020 0.919768
Zn2   Zn    Zn3+2 0.651000 0.499970 0.499980 0.973192
C25   C     C_3   0.790427 0.655855 0.102717 -0.445460
C26   C     C_3   0.891342 0.549561 0.078717 -0.328230
C27   C     C_3   0.024606 0.600459 0.042767 -0.902492
H14   H     H_    0.011345 0.653739 0.986833 0.269992
H15   H     H_    0.067361 0.662566 0.086855 0.261043
H16   H     H_    0.095855 0.521201 0.027691 0.239893
H17   H     H_    0.908750 0.492611 0.132613 0.223600
H18   H     H_    0.851002 0.487567 0.033543 0.222245
H19   H     H_    0.775180 0.714252 0.049225 0.227562
H20   H     H_    0.831769 0.719166 0.146828 0.202725
C28   C     C_3   0.364974 0.913811 0.585527 -0.421870
C29   C     C_3   0.342701 0.844074 0.665967 -0.344023
C30   C     C_3   0.215924 0.890583 0.715748 -0.886024
H21   H     H_    0.221968 0.992211 0.729092 0.265513
H22   H     H_    0.127312 0.873978 0.682590 0.257938
H23   H     H_    0.203905 0.839029 0.773721 0.258833
H24   H     H_    0.333818 0.742440 0.655109 0.231605
H25   H     H_    0.429369 0.858383 0.701287 0.236596
H26   H     H_    0.368891 0.014443 0.601158 0.230285
H27   H     H_    0.278102 0.901539 0.550071 0.201461
C31   C     C_3   0.094425 0.571384 0.570379 -0.184339
C32   C     C_3   0.054905 0.489137 0.644450 -0.349859
C33   C     C_3   0.019164 0.569556 0.719755 -0.929802
H28   H     H_    0.105102 0.627287 0.732623 0.273693
H29   H     H_    0.932252 0.632240 0.711270 0.262257
H30   H     H_    0.992789 0.508258 0.772395 0.260497
H31   H     H_    0.967112 0.431974 0.635056 0.226614
H32   H     H_    0.138345 0.423714 0.655092 0.237506
H33   H     H_    0.174265 0.633663 0.586366 0.220341
H34   H     H_    0.014623 0.638959 0.558638 0.118718
O9    O     O_3   0.873953 0.284471 0.485539 -0.746970
H35   H     H_    0.947044 0.221119 0.475168 0.304176
O10   O     O_3   0.643649 0.764195 0.863205 -0.785127
H36   H     H_    0.714311 0.777039 0.818355 0.324775

loop_
_geom_bond_atom_site_label_1
_geom_bond_atom_site_label_2
_ccdc_geom_bond_type
N1    C31   S    
C31   H33   S    
C15   C28   S    
C19   O7    A    
O8    Zn2   S    
C13   C18   S    
C25   H20   S    
C22   O10   S    
C12   O4    A    
C3    C7    A    
C5    C6    A    
C11   C14   S    
C19   O8    A    
C16   C17   S    
C8    C23   S    
O1    Zn1   S    
C26   H17   S    
C17   N2    D    
C12   O3    A    
C1    O1    A    
C29   H24   S    
C8    C9    D    
C30   H22   S    
C23   C24   A    
C31   C32   S    
C1    C15   S    
O6    Zn2   S    
N1    Zn1   S    
C27   H16   S    
C5    H8    S    
C21   C22   A    
C9    H9    S    
C33   H30   S    
O2    Zn2   S    
C27   H15   S    
O7    Zn1   S    
C2    C20   A    
C26   C27   S    
C25   H19   S    
C33   H29   S    
O9    H35   S    
C11   H2    S    
C16   H5    S    
C17   O9    S    
C24   H10   S    
C28   C29   S    
C30   H21   S    
C18   O5    A    
C29   H25   S    
C3    H11   S    
C10   C19   S    
C12   C20   S    
C25   C26   S    
O3    Zn1   S    
C6    C25   S    
C26   H18   S    
C1    O2    A    
N2    Zn2   S    
C2    C24   A    
C8    H13   S    
C4    C10   A    
C3    C4    A    
C18   O6    A    
C32   H32   S    
C27   H14   S    
C2    H12   S    
C7    C9    S    
C21   H1    S    
C30   H23   S    
C31   H34   S    
C14   C15   D    
O4    Zn2   S    
C33   H28   S    
C6    C7    A    
C32   C33   S    
C11   C13   D    
C32   H31   S    
C28   H27   S    
H6    N2    S    
C29   C30   S    
C4    H7    S    
C5    C10   A    
C20   C21   A    
C28   H26   S    
O10   H36   S    
C22   C23   A    
C13   H3    S    
C14   H4    S    
O5    Zn1   S    
C16   N1    D    
