data_mof_unit_45573.cif
_audit_creation_date              2012-10-26T21:21:03-0400
_audit_creation_method            fapswitch 2.2
_symmetry_space_group_name_H-M    P1
_symmetry_Int_Tables_number       1
_space_group_crystal_system       triclinic
_cell_length_a                    10.781641
_cell_length_b                    10.932232
_cell_length_c                    9.694285
_cell_angle_alpha                 89.971324
_cell_angle_beta                  89.710624
_cell_angle_gamma                 90.080273
_cell_volume                      1142.62433319

loop_
_atom_site_label
_atom_site_type_symbol
_atom_type_description
_atom_site_fract_x
_atom_site_fract_y
_atom_site_fract_z
_atom_type_partial_charge
C1    C     C_R   0.501328 0.265357 0.500075 0.559447
C2    C     C_2   0.507309 0.133369 0.502353 -0.116639
C3    C     C_2   0.418442 0.439718 0.922511 0.365120
C4    C     C_R   0.262613 0.504134 0.500328 0.539914
C5    C     C_2   0.430964 0.427607 0.078100 -0.023151
C6    C     C_R   0.498326 0.734640 0.500099 0.537420
C7    C     C_R   0.737403 0.504504 0.499738 0.536831
C8    C     C_R   0.128948 0.694585 0.652995 -0.117986
C9    C     C_R   0.063839 0.783135 0.727008 -0.126311
C10   C     C_R   0.934905 0.783596 0.726247 -0.125256
C11   C     C_R   0.870262 0.695440 0.651558 -0.108260
C12   C     C_R   0.065403 0.602672 0.578586 0.012007
C13   C     C_R   0.934221 0.603056 0.577919 0.023381
C14   C     C_3   0.206355 0.412973 0.906136 0.008553
C15   C     C_3   0.136238 0.302527 0.964249 -0.277637
C16   C     C_3   0.006371 0.338176 0.013013 -0.479723
C17   C     C_R   0.128914 0.512741 0.500615 -0.002407
C18   C     C_R   0.064283 0.429523 0.418780 -0.156914
C19   C     C_R   0.936392 0.429897 0.418129 -0.157751
C20   C     C_R   0.871162 0.513499 0.499303 0.002987
C21   C     C_2   0.501567 0.933085 0.386792 -0.157368
C22   C     C_2   0.491575 0.866581 0.502442 -0.122265
C23   C     C_2   0.495902 0.067029 0.386916 -0.164082
Cu1   Cu    Cu3+1 0.500020 0.500020 0.638630 0.974020
Cu2   Cu    Cu3+1 0.499980 0.499980 0.361370 0.925492
H1    H     H_    0.113227 0.362020 0.357361 0.122752
H2    H     H_    0.887901 0.362518 0.356483 0.126586
H3    H     H_    0.512553 0.888497 0.287360 0.149137
H4    H     H_    0.475478 0.907458 0.602522 0.099379
H5    H     H_    0.484055 0.111780 0.287764 0.146531
H6    H     H_    0.153335 0.449403 0.817271 0.171741
H7    H     H_    0.208313 0.487635 0.984823 0.108361
H8    H     H_    0.128475 0.231126 0.883126 0.176233
H9    H     H_    0.188115 0.263369 0.052503 0.149555
H10   H     H_    0.011934 0.408458 0.095479 0.156211
H11   H     H_    0.958046 0.256426 0.055101 0.147433
H12   H     H_    0.524014 0.092331 0.602085 0.104855
H13   H     H_    0.951533 0.374893 0.925572 0.158943
H14   H     H_    0.574454 0.536574 0.894414 0.163293
H15   H     H_    0.375832 0.358333 0.129916 0.141030
H16   H     H_    0.542907 0.570529 0.105455 0.196231
H17   H     H_    0.228939 0.700916 0.652878 0.138207
H18   H     H_    0.113710 0.852830 0.783517 0.112321
H19   H     H_    0.884711 0.853675 0.782132 0.110856
H20   H     H_    0.770338 0.702512 0.650114 0.136643
N1    N     N_2   0.498640 0.498660 0.846910 -0.322888
N2    N     N_2   0.498610 0.498630 0.153040 -0.377280
O1    O     O_R   0.500020 0.321960 0.617040 -0.453018
O2    O     O_R   0.499980 0.321920 0.382900 -0.500802
O3    O     O_R   0.319670 0.500020 0.617100 -0.465647
O4    O     O_R   0.319630 0.499980 0.382950 -0.500548
O5    O     O_R   0.500020 0.678080 0.617100 -0.520654
O6    O     O_R   0.499980 0.678040 0.382960 -0.494992
O7    O     O_R   0.680370 0.500020 0.617050 -0.513367
O8    O     O_R   0.680330 0.499980 0.382900 -0.491914
O9    O     O_3   0.324588 0.375756 0.856885 -0.524608

loop_
_geom_bond_atom_site_label_1
_geom_bond_atom_site_label_2
_ccdc_geom_bond_type
C12   C17   A    
Cu1   O5    S    
Cu1   O7    S    
C14   O9    S    
Cu2   O4    S    
C1    O1    A    
C22   H4    S    
C11   C13   A    
C9    C10   A    
Cu2   N2    S    
C3    N1    D    
C19   C20   A    
C13   C20   A    
C7    O8    A    
C14   H6    S    
C8    C12   A    
Cu1   N1    S    
C18   H1    S    
C17   C18   A    
H16   N2    S    
C16   H13   S    
C21   C22   D    
C16   H11   S    
C12   C13   A    
C5    N2    D    
C2    H12   S    
C7    C20   S    
H14   N1    S    
C4    C17   S    
C21   H3    S    
C8    H17   S    
C1    C2    S    
C21   C23   S    
C16   H10   S    
Cu1   O3    S    
Cu2   O2    S    
C6    O6    A    
C11   H20   S    
C9    H18   S    
C10   C11   A    
C4    O4    A    
C10   H19   S    
C15   C16   S    
C6    C22   S    
C23   H5    S    
C19   H2    S    
Cu1   Cu2   S    
C18   C19   A    
C3    O9    S    
C5    H15   S    
C4    O3    A    
C2    C23   D    
C14   C15   S    
C15   H9    S    
C7    O7    A    
C6    O5    A    
C1    O2    A    
C15   H8    S    
Cu2   O6    S    
Cu2   O8    S    
C14   H7    S    
C8    C9    A    
C3    C5    S    
Cu1   O1    S    
