data_mof_unit_49667.cif
_audit_creation_date              2012-12-10T19:50:14-0500
_audit_creation_method            fapswitch 2.2
_symmetry_space_group_name_H-M    P1
_symmetry_Int_Tables_number       1
_space_group_crystal_system       triclinic
_cell_length_a                    10.789475
_cell_length_b                    19.351274
_cell_length_c                    18.030883
_cell_angle_alpha                 89.84302
_cell_angle_beta                  90.463507
_cell_angle_gamma                 90.393335
_cell_volume                      3764.44417357

loop_
_atom_site_label
_atom_site_type_symbol
_atom_type_description
_atom_site_fract_x
_atom_site_fract_y
_atom_site_fract_z
_atom_type_partial_charge
C1    C     C_R   0.499350 0.367300 0.499960 0.819577
C2    C     C_R   0.500643 0.632701 0.500038 0.819535
C3    C     C_R   0.871662 0.497554 0.501011 -0.093386
C4    C     C_R   0.128340 0.502453 0.498993 -0.093391
C5    C     C_R   0.939336 0.465481 0.558764 -0.004093
C6    C     C_R   0.060666 0.534533 0.441244 -0.004094
C7    C     C_R   0.406902 0.255797 0.544974 0.092064
C8    C     C_R   0.592845 0.744233 0.454923 0.092046
C9    C     C_R   0.405187 0.182575 0.545841 0.004118
C10   C     C_R   0.594393 0.817456 0.453983 0.004046
C11   C     C_R   0.487686 0.145852 0.500146 -0.071592
C12   C     C_R   0.511936 0.854160 0.499727 -0.071588
C13   C     C_R   0.568386 0.181663 0.453342 -0.179187
C14   C     C_R   0.431406 0.818326 0.546618 -0.179165
C15   C     C_R   0.572565 0.253666 0.452163 0.118336
C16   C     C_R   0.427352 0.746321 0.547843 0.118301
C17   C     C_R   0.493753 0.291233 0.499536 -0.075505
C18   C     C_R   0.506155 0.708772 0.500448 -0.075529
C19   C     C_R   0.506726 0.930191 0.499721 0.415399
C20   C     C_R   0.492787 0.069821 0.500136 0.415434
C21   C     C_R   0.584015 0.538124 0.277477 0.091809
C22   C     C_R   0.415980 0.461880 0.722524 0.091823
C23   C     C_R   0.261995 0.501467 0.499618 0.789377
C24   C     C_R   0.738006 0.498535 0.500382 0.789384
C25   C     C_R   0.581188 0.539326 0.199524 -0.312341
C26   C     C_R   0.418805 0.460682 0.800477 -0.312337
C27   C     C_R   0.492050 0.500613 0.159653 0.011864
C28   C     C_R   0.507944 0.499394 0.840348 0.011858
C29   C     C_R   0.403620 0.462203 0.201318 -0.084987
C30   C     C_R   0.596379 0.537801 0.798682 -0.084981
C31   C     C_R   0.411472 0.462594 0.279718 0.056369
C32   C     C_R   0.588529 0.537405 0.720281 0.056366
C33   C     C_R   0.504030 0.499839 0.923968 0.396234
C34   C     C_R   0.495964 0.500169 0.076032 0.396234
C35   C     C_R   0.249042 0.668834 0.338216 -0.111691
C36   C     C_R   0.750997 0.331197 0.661842 -0.111695
C37   C     C_R   0.193687 0.630851 0.395007 -0.111016
C38   C     C_R   0.806324 0.369174 0.605036 -0.110967
C39   C     C_R   0.120320 0.572396 0.378951 0.074037
C40   C     C_R   0.879692 0.427633 0.621071 0.074039
C41   C     C_R   0.100662 0.552899 0.303855 0.030328
C42   C     C_R   0.899379 0.447142 0.696162 0.030307
C43   C     C_R   0.154300 0.593107 0.247345 -0.175266
C44   C     C_R   0.845775 0.406939 0.752687 -0.175293
C45   C     C_R   0.229108 0.650088 0.264488 -0.133908
C46   C     C_R   0.770964 0.349953 0.735565 -0.133917
C47   C     C_R   0.932357 0.531683 0.443235 -0.214446
C48   C     C_R   0.067645 0.468326 0.556769 -0.214459
Cu1   Cu    Cu3+1 0.499990 0.499980 0.573360 0.935739
Cu2   Cu    Cu3+1 0.500010 0.500020 0.426640 0.935751
H1    H     H_    0.271218 0.679967 0.220435 0.132420
H2    H     H_    0.728880 0.320078 0.779629 0.132437
H3    H     H_    0.654290 0.567537 0.306820 0.116877
H4    H     H_    0.345702 0.432469 0.693182 0.116850
H5    H     H_    0.650587 0.569406 0.170463 0.151319
H6    H     H_    0.349402 0.430604 0.829538 0.151317
H7    H     H_    0.344373 0.433792 0.311831 0.117826
H8    H     H_    0.655632 0.566204 0.688168 0.117828
H9    H     H_    0.306539 0.713265 0.351427 0.131193
H10   H     H_    0.693501 0.286762 0.648647 0.131198
H11   H     H_    0.207826 0.647034 0.451761 0.103479
H12   H     H_    0.792166 0.352982 0.548288 0.103455
H13   H     H_    0.139008 0.580040 0.189739 0.125998
H14   H     H_    0.861095 0.420012 0.810288 0.126008
H15   H     H_    0.879478 0.557455 0.399959 0.150845
H16   H     H_    0.120525 0.442555 0.600046 0.150867
H17   H     H_    0.630362 0.152900 0.418050 0.160798
H18   H     H_    0.369449 0.847071 0.581939 0.160828
N1    N     N_R   0.509060 0.035108 0.435726 -0.243722
N2    N     N_R   0.490437 0.964906 0.564130 -0.243731
N3    N     N_R   0.515299 0.966519 0.435494 -0.224739
N4    N     N_R   0.484192 0.033495 0.564363 -0.224749
N5    N     N_R   0.500010 0.500050 0.316380 -0.169684
N6    N     N_R   0.499990 0.499950 0.683620 -0.169683
N7    N     N_R   0.461253 0.443316 0.036434 -0.227621
N8    N     N_R   0.538741 0.556692 0.963566 -0.227626
N9    N     N_R   0.464618 0.443246 0.962318 -0.244434
N10   N     N_R   0.535376 0.556762 0.037682 -0.244441
O1    O     O_R   0.500010 0.400130 0.561970 -0.572887
O2    O     O_R   0.499990 0.599870 0.438030 -0.572864
O3    O     O_R   0.500020 0.400160 0.438070 -0.583432
O4    O     O_R   0.499980 0.599840 0.561930 -0.583437
O5    O     O_R   0.319640 0.499990 0.561950 -0.584547
O6    O     O_R   0.680360 0.500010 0.438050 -0.584545
O7    O     O_R   0.319650 0.500020 0.438050 -0.585497
O8    O     O_R   0.680350 0.499980 0.561950 -0.585503
C49   C     C_3   0.662139 0.288870 0.399917 -0.840453
H19   H     H_    0.610107 0.315495 0.354966 0.249737
H20   H     H_    0.720499 0.327034 0.430082 0.221232
H21   H     H_    0.725335 0.251408 0.373341 0.213970
C50   C     C_3   0.337901 0.711096 0.600149 -0.840392
H22   H     H_    0.279550 0.672898 0.570027 0.221295
H23   H     H_    0.390033 0.684510 0.645085 0.249719
H24   H     H_    0.274690 0.748539 0.626742 0.213946
C51   C     C_R   0.298412 0.424432 0.166044 0.113905
C52   C     C_R   0.272929 0.355488 0.185872 -0.152614
C53   C     C_R   0.171608 0.320508 0.154505 -0.117673
C54   C     C_R   0.094399 0.354073 0.103546 -0.089633
C55   C     C_R   0.118304 0.422703 0.083868 -0.118900
C56   C     C_R   0.219587 0.457833 0.114999 -0.102868
H25   H     H_    0.331686 0.328763 0.225424 0.116202
H26   H     H_    0.152540 0.267454 0.170034 0.120004
H27   H     H_    0.015631 0.327026 0.079640 0.114545
H28   H     H_    0.058050 0.448799 0.044697 0.111122
H29   H     H_    0.236509 0.511053 0.099251 0.109620
C57   C     C_R   0.701588 0.575571 0.833954 0.113915
C58   C     C_R   0.780404 0.542172 0.885007 -0.102888
C59   C     C_R   0.881695 0.577300 0.916132 -0.118944
C60   C     C_R   0.905614 0.645925 0.896443 -0.089611
C61   C     C_R   0.828413 0.679489 0.845479 -0.117648
C62   C     C_R   0.727086 0.644511 0.814116 -0.152631
H30   H     H_    0.763472 0.488955 0.900762 0.109634
H31   H     H_    0.941942 0.551205 0.955308 0.111129
H32   H     H_    0.984388 0.672971 0.920346 0.114551
H33   H     H_    0.847492 0.732539 0.829941 0.120002
H34   H     H_    0.668335 0.671234 0.774559 0.116189
C63   C     C_R   0.025602 0.491099 0.283150 0.099125
C64   C     C_R   0.049652 0.426350 0.315711 -0.112167
C65   C     C_R   0.976109 0.368951 0.297790 -0.127971
C66   C     C_R   0.879328 0.375284 0.246372 -0.100218
C67   C     C_R   0.856320 0.438966 0.212509 -0.116805
C68   C     C_R   0.928818 0.496725 0.230817 -0.169174
H35   H     H_    0.125053 0.420237 0.355074 0.120359
H36   H     H_    0.994598 0.319442 0.323499 0.120094
H37   H     H_    0.822746 0.330730 0.232368 0.118597
H38   H     H_    0.782119 0.443552 0.172113 0.134129
H39   H     H_    0.908489 0.545942 0.204874 0.116249
C69   C     C_R   0.974437 0.508949 0.716845 0.099147
C70   C     C_R   0.950367 0.573691 0.684273 -0.112153
C71   C     C_R   0.023906 0.631096 0.702174 -0.128018
C72   C     C_R   0.120705 0.624778 0.753581 -0.100253
C73   C     C_R   0.143735 0.561102 0.787454 -0.116780
C74   C     C_R   0.071240 0.503336 0.769167 -0.169145
H40   H     H_    0.874951 0.579793 0.644918 0.120350
H41   H     H_    0.005401 0.680600 0.676456 0.120099
H42   H     H_    0.177285 0.669336 0.767570 0.118608
H43   H     H_    0.217951 0.556527 0.827842 0.134133
H44   H     H_    0.091587 0.454125 0.795117 0.116234
C75   C     C_3   0.312729 0.296417 0.589050 -0.859460
H45   H     H_    0.358021 0.317948 0.639422 0.234517
H46   H     H_    0.273912 0.339019 0.554839 0.217258
H47   H     H_    0.231868 0.265016 0.606610 0.235530
C76   C     C_3   0.687023 0.703650 0.410811 -0.859387
H48   H     H_    0.641718 0.682125 0.360440 0.234520
H49   H     H_    0.767845 0.735085 0.393252 0.235515
H50   H     H_    0.725907 0.661050 0.444996 0.217261
C77   C     C_R   0.314845 0.144393 0.592417 0.134175
C78   C     C_R   0.216436 0.107699 0.559163 -0.137907
C79   C     C_R   0.131817 0.071367 0.603073 -0.130246
C80   C     C_R   0.144827 0.071556 0.680275 -0.106591
C81   C     C_R   0.242509 0.108063 0.713699 -0.134886
C82   C     C_R   0.327451 0.144395 0.669993 -0.124451
H51   H     H_    0.205561 0.107254 0.499395 0.122004
H52   H     H_    0.056174 0.043069 0.577261 0.123722
H53   H     H_    0.079234 0.043413 0.714194 0.121366
H54   H     H_    0.252467 0.108145 0.773474 0.126047
H55   H     H_    0.403002 0.172391 0.696371 0.126438
C83   C     C_R   0.684464 0.855651 0.407230 0.134239
C84   C     C_R   0.671550 0.855537 0.329670 -0.124426
C85   C     C_R   0.756229 0.891871 0.285786 -0.134879
C86   C     C_R   0.853960 0.928490 0.319012 -0.106597
C87   C     C_R   0.867282 0.928789 0.396196 -0.130228
C88   C     C_R   0.782925 0.892456 0.440287 -0.137837
H56   H     H_    0.595958 0.827454 0.303442 0.126376
H57   H     H_    0.746028 0.891702 0.226025 0.126051
H58   H     H_    0.919349 0.956633 0.284955 0.121345
H59   H     H_    0.942966 0.957174 0.421854 0.123708
H60   H     H_    0.794045 0.892987 0.500038 0.121984

loop_
_geom_bond_atom_site_label_1
_geom_bond_atom_site_label_2
_ccdc_geom_bond_type
C59   H31   S    
C76   H50   S    
C21   H3    S    
C49   H19   S    
C21   N5    A    
C2    C18   S    
C41   C43   A    
C58   H30   S    
C19   N3    A    
C51   C52   A    
C32   H8    S    
C79   H52   S    
C33   N9    A    
C69   C70   A    
C53   C54   A    
Cu2   O6    S    
C39   C41   A    
C65   H36   S    
C44   H14   S    
C56   H29   S    
C23   O5    A    
C35   C37   A    
N8    N10   A    
C70   C71   A    
C77   C82   A    
C13   H17   S    
C75   H47   S    
C31   N5    A    
C27   C29   A    
C57   C58   A    
C45   H1    S    
C1    O3    A    
C54   H27   S    
C46   H2    S    
C11   C13   A    
C59   C60   A    
C35   H9    S    
C68   H39   S    
N1    N3    A    
C61   C62   A    
Cu2   O7    S    
C64   C65   A    
C79   C80   A    
C77   C78   A    
C73   C74   A    
C7    C17   A    
C81   C82   A    
C36   C46   A    
C62   H34   S    
C30   C32   A    
C10   C83   S    
C53   H26   S    
C5    C40   S    
C42   C69   S    
C34   N7    A    
C40   C42   A    
C55   H28   S    
C74   H44   S    
C52   H25   S    
C30   C57   S    
C29   C31   A    
C7    C75   S    
C3    C24   S    
C42   C44   A    
C87   H59   S    
C44   C46   A    
C86   C87   A    
C57   C62   A    
C27   C34   S    
C5    C48   A    
C11   C20   S    
C6    C47   A    
C43   H13   S    
C78   C79   A    
C22   H4    S    
C72   H42   S    
Cu2   N5    S    
C50   H22   S    
C29   C51   S    
C4    C23   S    
C51   C56   A    
C3    C5    A    
C73   H43   S    
C81   H54   S    
C9    C77   S    
C8    C18   A    
Cu1   O1    S    
Cu2   O2    S    
Cu1   O4    S    
C63   C68   A    
C50   H23   S    
C43   C45   A    
C33   N8    A    
C84   C85   A    
C58   C59   A    
C6    C39   S    
C52   C53   A    
C16   C18   A    
C85   H57   S    
N7    N9    A    
C67   C68   A    
C10   C12   A    
C60   H32   S    
C83   C88   A    
C4    C6    A    
C71   H41   S    
C12   C14   A    
C28   C33   S    
Cu1   Cu2   S    
C80   H53   S    
C9    C11   A    
C23   O7    A    
C83   C84   A    
C1    O1    A    
C14   C16   A    
C20   N1    A    
C2    O4    A    
C78   H51   S    
C22   N6    A    
C72   C73   A    
C35   C45   A    
C36   C38   A    
C66   C67   A    
C75   H45   S    
C15   C49   S    
C87   C88   A    
C4    C48   A    
C76   H49   S    
C21   C25   A    
C82   H55   S    
C32   N6    A    
C84   H56   S    
C26   C28   A    
Cu1   O8    S    
C25   H5    S    
C36   H10   S    
C26   H6    S    
C37   H11   S    
C65   C66   A    
C15   C17   A    
C25   C27   A    
C1    C17   S    
C80   C81   A    
C55   C56   A    
C41   C63   S    
C85   C86   A    
Cu1   O5    S    
C13   C15   A    
C71   C72   A    
C24   O6    A    
C28   C30   A    
C37   C39   A    
C69   C74   A    
C34   N10   A    
C50   H24   S    
C38   C40   A    
C75   H46   S    
C31   H7    S    
C12   C19   S    
C3    C47   A    
C66   H37   S    
C88   H60   S    
C8    C76   S    
C64   H35   S    
C2    O2    A    
C86   H58   S    
C70   H40   S    
C7    C9    A    
C67   H38   S    
C16   C50   S    
C8    C10   A    
C54   C55   A    
C22   C26   A    
C49   H21   S    
C60   C61   A    
C49   H20   S    
C14   H18   S    
Cu1   N6    S    
C20   N4    A    
C19   N2    A    
N2    N4    A    
C48   H16   S    
C63   C64   A    
C24   O8    A    
C61   H33   S    
C47   H15   S    
C76   H48   S    
Cu2   O3    S    
C38   H12   S    
