data_mof_unit_29816.cif
_audit_creation_date              2012-12-10T17:03:45-0500
_audit_creation_method            fapswitch 2.2
_symmetry_space_group_name_H-M    P1
_symmetry_Int_Tables_number       1
_space_group_crystal_system       triclinic
_cell_length_a                    10.043827
_cell_length_b                    10.674869
_cell_length_c                    13.081723
_cell_angle_alpha                 90.252455
_cell_angle_beta                  71.192571
_cell_angle_gamma                 90.587799
_cell_volume                      1327.61914123

loop_
_atom_site_label
_atom_site_type_symbol
_atom_type_description
_atom_site_fract_x
_atom_site_fract_y
_atom_site_fract_z
_atom_type_partial_charge
C1    C     C_R   0.500202 0.737764 0.501739 0.870753
C2    C     C_R   0.384582 0.565488 0.815353 -0.243948
C3    C     C_2   0.623384 0.067832 0.468367 -0.144397
C4    C     C_R   0.424724 0.519414 0.702252 0.933210
C5    C     C_2   0.518048 0.134556 0.453858 -0.190513
C6    C     C_2   0.623495 0.932862 0.465039 -0.102469
C7    C     C_2   0.501935 0.870738 0.505311 -0.262924
C8    C     C_2   0.103837 0.441599 0.428679 -0.136211
C9    C     C_2   0.959715 0.460656 0.419751 0.781088
C10   C     C_R   0.503431 0.262741 0.490250 0.840848
C11   C     C_R   0.577148 0.504147 0.296557 0.843574
C12   C     C_R   0.450344 0.589594 0.978916 -0.064519
C13   C     C_R   0.789128 0.487949 0.003742 -0.214016
C14   C     C_R   0.623378 0.523311 0.181019 -0.158604
C15   C     C_R   0.242478 0.582325 0.876409 0.441143
C16   C     C_R   0.203497 0.601232 0.988262 -0.209299
C17   C     C_R   0.305289 0.589296 0.040078 0.636156
C18   C     C_2   0.425339 0.088627 0.391958 0.425033
C19   C     C_2   0.460315 0.704442 0.195609 0.586136
C20   C     C_2   0.056087 0.633175 0.049644 0.523938
C21   C     C_R   0.489137 0.589572 0.865157 -0.103381
C22   C     C_R   0.559430 0.578151 0.025609 0.127483
C23   C     C_R   0.695655 0.544134 0.958950 0.094563
C24   C     C_R   0.735506 0.570668 0.849583 -0.141998
C25   C     C_R   0.633431 0.606521 0.805577 -0.052528
C26   C     C_R   0.539503 0.594325 0.135652 -0.063111
C27   C     C_R   0.748287 0.469593 0.114832 -0.135066
F1    F     F_    0.941374 0.432510 0.323887 -0.643958
F2    F     F_    0.864045 0.490011 0.597571 -0.653122
F3    F     F_    0.141450 0.578034 0.827932 -0.677791
F4    F     F_    0.261080 0.570544 0.148501 -0.621862
H1    H     H_    0.815895 0.417985 0.149191 0.220542
H2    H     H_    0.325052 0.133111 0.402725 0.082828
H3    H     H_    0.442818 0.716619 0.281147 0.084803
H4    H     H_    0.984580 0.658828 0.006619 0.089827
H5    H     H_    0.723875 0.885219 0.436040 0.182739
H6    H     H_    0.402050 0.918141 0.539193 0.150998
H7    H     H_    0.176477 0.382561 0.368998 0.179952
H8    H     H_    0.085560 0.567619 0.544392 0.233493
H9    H     H_    0.844467 0.564648 0.798953 0.219828
H10   H     H_    0.890464 0.454578 0.952900 0.193462
H11   H     H_    0.668939 0.640949 0.723630 0.203144
H12   H     H_    0.702107 0.110832 0.498369 0.175832
N1    N     N_2   0.148270 0.498670 0.498870 -0.191423
N2    N     N_2   0.852610 0.498640 0.498840 0.070646
O1    O     O_R   0.386950 0.680940 0.500020 -0.616078
O2    O     O_2   0.420334 0.787158 0.148507 -0.524177
O3    O     O_2   0.013549 0.635572 0.148219 -0.471054
O4    O     O_R   0.613110 0.680900 0.499980 -0.628115
O5    O     O_R   0.330780 0.500000 0.653640 -0.531605
O6    O     O_R   0.556930 0.499960 0.653610 -0.589366
O7    O     O_R   0.386890 0.319100 0.500020 -0.625345
O8    O     O_R   0.613050 0.319060 0.499980 -0.581657
O9    O     O_R   0.443070 0.500040 0.346390 -0.622061
O10   O     O_R   0.669220 0.500000 0.346360 -0.548310
O11   O     O_2   0.462827 0.005179 0.324892 -0.525068
Zn1   Zn    Zn3+2 0.349000 0.500030 0.500020 1.007985
Zn2   Zn    Zn3+2 0.651000 0.499970 0.499980 1.073974

loop_
_geom_bond_atom_site_label_1
_geom_bond_atom_site_label_2
_ccdc_geom_bond_type
C12   C17   A    
C25   H11   S    
C2    C4    S    
C23   C24   A    
C9    N2    D    
C6    C7    D    
C14   C27   A    
C18   O11   D    
N1    Zn1   S    
O8    Zn2   S    
C3    C6    S    
C10   O7    A    
C2    C21   A    
C13   H10   S    
C7    H6    S    
C5    C10   S    
O6    Zn2   S    
C14   C26   A    
C2    C15   A    
O5    Zn1   S    
C3    H12   S    
C1    O1    A    
C20   O3    D    
C11   O9    A    
C8    H7    S    
C16   C20   S    
C24   H9    S    
C6    H5    S    
O1    Zn1   S    
C17   F4    S    
C18   H2    S    
C19   O2    D    
N2    Zn2   S    
C16   C17   A    
O7    Zn1   S    
H8    N1    S    
C15   C16   A    
C12   C22   A    
C11   O10   A    
C24   C25   A    
C13   C23   A    
C15   F3    S    
C22   C26   A    
O10   Zn2   S    
F2    N2    S    
C11   C14   S    
C19   C26   S    
C10   O8    A    
C21   C25   A    
C22   C23   A    
C13   C27   A    
C5    C18   S    
C4    O6    A    
C27   H1    S    
C1    C7    S    
C20   H4    S    
C1    O4    A    
C12   C21   A    
O9    Zn1   S    
O4    Zn2   S    
C8    N1    D    
C9    F1    S    
C4    O5    A    
C8    C9    S    
C3    C5    D    
C19   H3    S    
