data_mof_unit_24388.cif
_audit_creation_date              2013-03-05T16:13:08-0500
_audit_creation_method            fapswitch 2.2
_symmetry_space_group_name_H-M    P1
_symmetry_Int_Tables_number       1
_space_group_crystal_system       triclinic
_cell_length_a                    8.272645
_cell_length_b                    16.318604
_cell_length_c                    18.866828
_cell_angle_alpha                 112.74197
_cell_angle_beta                  91.185281
_cell_angle_gamma                 84.324353
_cell_volume                      2337.02687499

loop_
_atom_site_label
_atom_site_type_symbol
_atom_site_description
_atom_site_fract_x
_atom_site_fract_y
_atom_site_fract_z
_atom_type_partial_charge
P1    P     P_3+3 0.582960 0.413890 0.320860 0.480245
O1    O     O_2   0.402610 0.439360 0.314250 -0.354004
O2    O     O_3   0.648560 0.446300 0.404730 -0.361851
O3    O     O_3   0.108870 0.604000 0.387500 -0.363087
O4    O     O_2   0.255650 0.531985 0.251594 -0.394586
O5    O     O_3   0.565789 0.298493 0.279777 -0.623053
O6    O     O_3   0.129262 0.694575 0.291082 -0.520819
H1    H     H_    0.922995 0.745048 0.362589 0.078881
C1    C     C_3   0.020083 0.847934 0.336739 -0.082974
H2    H     H_    0.044281 0.876933 0.399358 0.115915
H3    H     H_    0.130572 0.851624 0.306048 0.159722
P2    P     P_3+3 0.071690 0.707860 0.593450 0.480878
P3    P     P_3+3 0.493836 0.765773 0.450839 0.476812
O7    O     O_2   0.241370 0.719440 0.573960 -0.376028
O8    O     O_3   0.507090 0.652150 0.432150 -0.391443
O9    O     O_2   0.339327 0.808826 0.501528 -0.390945
O10   O     O_3   0.074488 0.741402 0.693543 -0.530501
O11   O     O_3   0.455054 0.779216 0.363708 -0.501307
C2    C     C_3   0.542512 0.708232 0.304158 0.590261
H4    H     H_    0.488021 0.644765 0.292152 0.120115
H5    H     H_    0.670192 0.699373 0.320706 -0.117673
C3    C     C_3   0.547008 0.727604 0.230716 -0.426613
H6    H     H_    0.556344 0.799728 0.245528 0.267973
C4    C     C_3   0.618098 0.736200 0.660693 0.239011
H7    H     H_    0.746757 0.718980 0.641918 0.081743
H8    H     H_    0.538408 0.709136 0.610716 0.105002
C5    C     C_3   0.578805 0.837636 0.695550 -0.112937
H9    H     H_    0.581610 0.864092 0.649751 0.061499
H10   H     H_    0.453654 0.854595 0.720727 0.139955
Ba1   Ba    Ba6+2 0.333520 0.539550 0.472180 1.565806
C6    C     C_3   0.704272 0.247728 0.289286 0.840423
H11   H     H_    0.812440 0.285326 0.302789 -0.022261
C7    C     C_3   0.738918 0.166221 0.214132 -0.975283
H12   H     H_    0.635381 0.124461 0.200422 0.276796
H13   H     H_    0.850785 0.125364 0.219177 0.268963
H14   H     H_    0.755550 0.187591 0.165891 0.226591
C8    C     C_3   0.150556 0.672289 0.712575 0.453908
H15   H     H_    0.269887 0.647471 0.682566 0.087222
H16   H     H_    0.072425 0.616624 0.697262 0.119994
C9    C     C_3   0.177567 0.708328 0.798909 -1.000736
H17   H     H_    0.269749 0.757173 0.814103 0.274697
H18   H     H_    0.220624 0.653260 0.817327 0.213665
H19   H     H_    0.062370 0.742048 0.830452 0.278647
P4    P     P_3+3 0.606720 0.586180 0.679160 0.466826
O12   O     O_2   0.787080 0.560670 0.685800 -0.357660
O13   O     O_3   0.541120 0.553770 0.595290 -0.405112
O14   O     O_3   0.080800 0.396070 0.612520 -0.387826
O15   O     O_3   0.589355 0.703166 0.716895 -0.562328
P5    P     P_3+3 0.698533 0.235286 0.552876 0.518496
O16   O     O_3   0.164600 0.390590 0.443970 -0.384736
O17   O     O_3   0.682580 0.347920 0.567870 -0.337139
O18   O     O_2   0.843771 0.189704 0.496447 -0.342020
O19   O     O_3   0.757026 0.222103 0.637661 -0.547496
Ba2   Ba    Ba6+2 0.856270 0.460520 0.527840 1.592664
P6    P     P_3+3 0.099782 0.590114 0.291345 0.446079
C10   C     C_3   0.983804 0.750649 0.312840 0.198879
H20   H     H_    0.902220 0.732641 0.262842 0.068708
O20   O     O_3   0.025080 0.609480 0.556050 -0.428042
C11   C     C_3   0.141610 0.289355 0.275006 0.368869
H21   H     H_    0.042784 0.344187 0.300001 0.066241
H22   H     H_    0.258529 0.317628 0.287537 0.151335
C12   C     C_3   0.127649 0.243710 0.187410 -0.398939
H23   H     H_    0.079516 0.177827 0.171464 0.245127
H24   H     H_    0.250120 0.231292 0.159889 0.198524
P7    P     P_3+3 0.133485 0.276179 0.407080 0.499640
O21   O     O_2   0.948320 0.280590 0.426090 -0.325242
O22   O     O_3   0.139920 0.224921 0.306695 -0.589027
H25   H     H_    0.657024 0.690434 0.196245 0.168551
C13   C     C_3   0.673822 0.290697 0.700054 0.442597
H26   H     H_    0.724636 0.354848 0.710843 0.117206
H27   H     H_    0.541788 0.298797 0.689433 -0.010934
C14   C     C_3   0.697018 0.269335 0.771934 -0.409744
H28   H     H_    0.828559 0.255312 0.780500 0.246794
H29   H     H_    0.649388 0.327995 0.822957 0.172520
P8    P     P_3+3 0.096247 0.408604 0.708526 0.414369
C15   C     C_3   0.160726 0.238059 0.655679 0.470374
H30   H     H_    0.289452 0.252652 0.658683 0.003971
O23   O     O_2   0.947195 0.471437 0.751930 -0.398756
O24   O     O_3   0.065292 0.306244 0.713322 -0.538447
H31   H     H_    0.112031 0.229440 0.598208 0.131443
H32   H     H_    0.235687 0.097142 0.623035 0.216852
C16   C     C_3   0.155011 0.150667 0.666433 -0.978704
H33   H     H_    0.029203 0.130917 0.659309 0.292979
H34   H     H_    0.196491 0.158208 0.724782 0.254778
C17   C     C_R   0.521334 0.451572 0.036972 -0.000553
C18   C     C_R   0.441283 0.407729 0.075167 0.064078
C19   C     C_R   0.303036 0.365776 0.042487 -0.220203
C20   C     C_R   0.237665 0.370164 0.974575 0.284821
C21   C     C_R   0.316759 0.414985 0.936119 0.075610
C22   C     C_R   0.459986 0.454772 0.966914 -0.016906
C23   C     C_R   0.257520 0.419278 0.866972 -0.228601
C24   C     C_R   0.340328 0.458713 0.825772 -0.008767
C25   C     C_R   0.482247 0.500639 0.857179 -0.049665
C26   C     C_R   0.541394 0.498139 0.928018 -0.003208
C27   C     C_R   0.285948 0.456146 0.753363 0.178221
C28   C     C_R   0.376026 0.491463 0.712114 -0.536104
C29   C     C_R   0.508987 0.539330 0.743344 0.268062
C30   C     C_R   0.561685 0.547181 0.819326 -0.081095
C31   C     C_R   0.663783 0.491004 0.068267 0.004797
C32   C     C_R   0.720994 0.491266 0.140191 0.021488
C33   C     C_R   0.633621 0.451855 0.181489 -0.034629
C34   C     C_R   0.498991 0.406536 0.145751 -0.138499
H35   H     H_    0.246279 0.328862 0.069960 0.153081
H36   H     H_    0.336473 0.485265 0.655395 0.174972
H37   H     H_    0.146384 0.390797 0.844847 0.198734
H38   H     H_    0.436152 0.370908 0.172774 0.164686
C35   C     C_R   0.688308 0.599162 0.860171 0.191811
C36   C     C_R   0.763182 0.583090 0.922584 0.112480
C37   C     C_R   0.685207 0.536290 0.958812 -0.043378
C38   C     C_R   0.747547 0.531617 0.028160 0.026405
C39   C     C_R   0.912147 0.616519 0.951720 -0.165231
C40   C     C_R   0.976803 0.608650 0.017947 -0.191983
C41   C     C_R   0.893007 0.568826 0.057877 0.139261
C42   C     C_R   0.864920 0.531726 0.170718 -0.036365
C43   C     C_R   0.951884 0.567225 0.127568 -0.267637
C44   C     C_R   0.917383 0.535730 0.243645 0.174232
C45   C     C_R   0.830464 0.496777 0.283354 -0.504377
C46   C     C_R   0.686436 0.458178 0.256186 0.181817
H39   H     H_    0.979909 0.648692 0.923036 0.147485
H40   H     H_    0.090783 0.635857 0.039024 0.140304
H41   H     H_    0.064589 0.595696 0.148327 0.175360
H42   H     H_    0.878091 0.494669 0.336355 0.163458
C47   C     C_2   0.382877 0.242435 0.503885 -0.405172
C48   C     C_R   0.808843 0.749169 0.509514 -0.221731
C49   C     C_2   0.223706 0.120126 0.428727 -0.226071
C50   C     C_2   0.247064 0.206834 0.452165 0.278211
C51   C     C_2   0.507930 0.186995 0.511812 0.163748
C52   C     C_3   0.504226 0.087321 0.469279 0.163199
C53   C     C_3   0.329488 0.060059 0.457805 -0.036510
C54   C     C_2   0.621128 0.032222 0.499669 -0.097423
C55   C     C_2   0.578091 0.966738 0.519408 -0.149743
C56   C     C_R   0.840250 0.932211 0.573695 0.049177
C57   C     C_R   0.701734 0.901933 0.531323 -0.037234
C58   C     C_R   0.956440 0.872812 0.588042 -0.232474
C59   C     C_R   0.938879 0.781384 0.558251 0.312337
C60   C     C_R   0.682808 0.809896 0.500603 0.154643
H43   H     H_    0.128142 0.092504 0.388824 0.197581
H44   H     H_    0.057569 0.898656 0.624420 0.172896
H45   H     H_    0.388275 0.314187 0.528887 0.177327
H46   H     H_    0.749397 0.039802 0.496601 0.184601
H47   H     H_    0.451459 0.955340 0.519470 0.165910
N1    N     N_R   0.694080 0.879970 0.755041 0.281110
O25   O     O_R   0.697459 0.866756 0.818783 -0.353599
O26   O     O_R   0.782519 0.938081 0.747986 -0.395114
N2    N     N_R   0.670044 0.220941 0.352081 0.239971
O27   O     O_R   0.685479 0.137680 0.344294 -0.373013
O28   O     O_R   0.607685 0.281938 0.415113 -0.370394
N3    N     N_R   0.883368 0.900640 0.319769 0.240660
O29   O     O_R   0.903881 0.942863 0.275091 -0.356365
O30   O     O_R   0.739700 0.904636 0.348185 -0.418674
C61   C     C_3   0.015547 0.299622 0.154798 -1.018949
H48   H     H_    0.891752 0.310334 0.179758 0.259231
H49   H     H_    0.062244 0.365172 0.168020 0.277598
H50   H     H_    0.007920 0.263926 0.091720 0.277683
C62   C     C_3   0.608374 0.189405 0.766332 -0.786988
H51   H     H_    0.654174 0.129064 0.715933 0.281301
H52   H     H_    0.628968 0.175644 0.819196 0.264213
H53   H     H_    0.475822 0.204030 0.760919 0.234292
C63   C     C_3   0.085175 0.325568 0.943919 -0.982700
H54   H     H_    0.109812 0.272701 0.885727 0.255705
H55   H     H_    0.040039 0.293816 0.981035 0.253309
H56   H     H_    0.987181 0.375709 0.940927 0.250930
C64   C     C_3   0.708908 0.687846 0.855619 -0.759481
H57   H     H_    0.589386 0.718583 0.846076 0.263891
H58   H     H_    0.747402 0.737053 0.911254 0.215199
H59   H     H_    0.801878 0.680895 0.811904 0.275010
C65   C     C_3   0.799585 0.650922 0.467237 -0.631193
H60   H     H_    0.905355 0.605344 0.455750 0.256211
H61   H     H_    0.719708 0.625650 0.499067 0.239254
H62   H     H_    0.770853 0.639420 0.407117 0.180061
C66   C     C_3   0.400559 0.698900 0.179707 -0.828935
H63   H     H_    0.423021 0.702621 0.123243 0.244942
H64   H     H_    0.379874 0.629010 0.169367 0.262037
H65   H     H_    0.290724 0.744241 0.206163 0.285264

loop_
_geom_bond_atom_site_label_1
_geom_bond_atom_site_label_2
_geom_bond_distance
_ccdc_geom_bond_type
C19   C20   1.404939 A    
C25   C26   1.427758 A    
C43   H41   1.080943 S    
C5    H10   1.111834 S    
C23   H37   1.074324 S    
C27   C28   1.396007 A    
C4    C5    1.529346 S    
O6    P6    1.747618 S    
C66   H63   1.110635 S    
C54   H46   1.085671 S    
C52   C53   1.540831 S    
H1    C10   1.112364 S    
C29   C30   1.450760 A    
P8    C27   1.859772 S    
C65   H61   1.108685 S    
C17   C18   1.407771 A    
C10   H20   1.109176 S    
Ba1   Ba2   4.536450 S    
O16   Ba2   2.916733 S    
P3    O11   1.759694 S    
C33   C46   1.434819 A    
C2    H5    1.106839 S    
C4    H8    1.108444 S    
O11   C2    1.410386 S    
C8    C9    1.522911 S    
N2    O27   1.302340 A    
O2    Ba2   2.810406 S    
C20   C63   1.510456 S    
C62   H52   1.110322 S    
P6    C44   1.861598 S    
C47   H45   1.085313 S    
C7    H14   1.108614 S    
C36   C37   1.409204 A    
C39   H39   1.083148 S    
P1    O1    1.524470 D    
C61   H50   1.108043 S    
C13   H27   1.110650 S    
C24   C25   1.419238 A    
C12   H24   1.112192 S    
C11   O22   1.397328 S    
C9    H19   1.109823 S    
C39   C40   1.395199 A    
C56   C57   1.401777 A    
P7    O22   1.749294 S    
P2    C59   1.847384 S    
P2    O10   1.751534 S    
C57   C60   1.409231 A    
C35   C36   1.419667 A    
C15   O24   1.403666 S    
C34   H38   1.080800 S    
C21   C23   1.408696 A    
C1    H2    1.111976 S    
C3    C66   1.526063 S    
C55   H47   1.082026 S    
P1    C46   1.895080 S    
P2    O20   1.568212 S    
C9    H18   1.108220 S    
O5    C6    1.396276 S    
Ba1   O16   2.790295 S    
O19   C13   1.405270 S    
C11   H21   1.111952 S    
C14   C62   1.526300 S    
C62   H53   1.110078 S    
O6    C10   1.402145 S    
O7    Ba1   2.854050 S    
C64   H59   1.105117 S    
C40   C41   1.399886 A    
N2    O28   1.296055 A    
P4    O13   1.565978 S    
C22   C26   1.417454 A    
C65   H62   1.100616 S    
C5    N1    1.460462 S    
P5    C51   1.852220 S    
C66   H65   1.105642 S    
C11   H22   1.094883 S    
C12   C61   1.521237 S    
C48   C60   1.419363 A    
P1    O5    1.756964 S    
C4    O15   1.396133 S    
C33   C34   1.410072 A    
C2    C3    1.537642 S    
C32   C42   1.420704 A    
C4    H7    1.103069 S    
C14   H29   1.107647 S    
C15   C16   1.521398 S    
C23   C24   1.408406 A    
C40   H40   1.084035 S    
C18   C19   1.398632 A    
C47   C50   1.482376 S    
P5    O17   1.739933 S    
P8    O23   1.544304 D    
C31   C38   1.411471 A    
C24   C27   1.415805 A    
H32   C16   1.110452 S    
C30   C35   1.430951 A    
P1    O2    1.565978 S    
O2    Ba1   2.929667 S    
C45   H42   1.078886 S    
C8    H15   1.107185 S    
C17   C31   1.406711 A    
C49   C53   1.501268 S    
C48   C65   1.498526 S    
C66   H64   1.110531 S    
P4    C29   1.892921 S    
C47   C51   1.350633 D    
C63   H54   1.110574 S    
C61   H48   1.105458 S    
P5    O18   1.547329 D    
C28   C29   1.398019 A    
O13   Ba2   2.930439 S    
C12   H23   1.111125 S    
C6    C7    1.531343 S    
C7    H12   1.111269 S    
C63   H56   1.110180 S    
C1    C10   1.532617 S    
O10   C8    1.400108 S    
C15   H30   1.109580 S    
C1    H3    1.110907 S    
C38   C41   1.408707 A    
C3    H25   1.108834 S    
O14   Ba2   2.810468 S    
C19   H35   1.076754 S    
C9    H17   1.110659 S    
P2    O7    1.506271 D    
O12   Ba2   2.828427 S    
P7    O21   1.568827 D    
C16   H34   1.110316 S    
C28   H36   1.082027 S    
O3    P6    1.740112 S    
C49   C50   1.342289 D    
P3    C60   1.866300 S    
N1    O26   1.300426 A    
C51   C52   1.513341 S    
C18   C34   1.411947 A    
C65   H60   1.058422 S    
C13   C14   1.529395 S    
P4    O12   1.524779 D    
O8    Ba1   2.765523 S    
Ba2   O20   2.789764 S    
C11   C12   1.535181 S    
C26   C37   1.406700 A    
C48   C59   1.405798 A    
P2    Ba1   3.411732 S    
C3    H6    1.110003 S    
O4    P6    1.540446 D    
C6    H11   1.104711 S    
C15   H31   1.110388 S    
N3    O30   1.299328 A    
C14   H28   1.111172 S    
C55   C57   1.474948 S    
C52   C54   1.508685 S    
C58   H44   1.082156 S    
C42   C44   1.413196 A    
C17   C22   1.423985 A    
C36   C39   1.411215 A    
C42   C43   1.409696 A    
C58   C59   1.397904 A    
Ba2   O21   2.854230 S    
C1    N3    1.458406 S    
C31   C32   1.426467 A    
Ba1   O13   2.809859 S    
O1    Ba1   2.827914 S    
O17   Ba2   2.766111 S    
C49   H43   1.085561 S    
P7    C50   1.840604 S    
C2    H4    1.110817 S    
P3    O8    1.740745 S    
C63   H55   1.108097 S    
O14   P8    1.745925 S    
C8    H16   1.109894 S    
C45   C46   1.397394 A    
P5    O19   1.747176 S    
Ba1   O20   2.917504 S    
P1    Ba1   3.390302 S    
C7    H13   1.110584 S    
C44   C45   1.401154 A    
C54   C55   1.340065 D    
N3    O29   1.300830 A    
C61   H49   1.107749 S    
C13   H26   1.110318 S    
O16   P7    1.766186 S    
C64   H57   1.107256 S    
C6    N2    1.453840 S    
P4    Ba2   3.390819 S    
C20   C21   1.419202 A    
C56   C58   1.394474 A    
C16   H33   1.110047 S    
P3    O9    1.547722 D    
C37   C38   1.423042 A    
C5    H9    1.106699 S    
N1    O25   1.300576 A    
C64   H58   1.110428 S    
C32   C33   1.430313 A    
C35   C64   1.508753 S    
C21   C22   1.412455 A    
C62   H51   1.111079 S    
P8    O24   1.751082 S    
C25   C30   1.433949 A    
O3    Ba1   2.811073 S    
P4    O15   1.752469 S    
C41   C43   1.401533 A    
