data_mof_unit_39239.cif
_audit_creation_date              2012-12-10T17:52:23-0500
_audit_creation_method            fapswitch 2.2
_symmetry_space_group_name_H-M    P1
_symmetry_Int_Tables_number       1
_space_group_crystal_system       triclinic
_cell_length_a                    19.124623
_cell_length_b                    10.617919
_cell_length_c                    9.90008
_cell_angle_alpha                 89.053822
_cell_angle_beta                  89.944844
_cell_angle_gamma                 93.021499
_cell_volume                      2007.27500776

loop_
_atom_site_label
_atom_site_type_symbol
_atom_type_description
_atom_site_fract_x
_atom_site_fract_y
_atom_site_fract_z
_atom_type_partial_charge
C1    C     C_R   0.503405 0.258314 0.501567 0.867119
C2    C     C_R   0.288733 0.490946 0.500476 -0.055158
C3    C     C_R   0.926672 0.420704 0.486585 0.292970
C4    C     C_R   0.067644 0.431960 0.492508 0.292690
C5    C     C_R   0.811045 0.378385 0.592997 -0.159588
C6    C     C_R   0.739569 0.397481 0.600959 0.176137
C7    C     C_R   0.708774 0.472929 0.499911 -0.043294
C8    C     C_R   0.749067 0.521223 0.390738 -0.247142
C9    C     C_R   0.819725 0.499567 0.383279 -0.159536
C10   C     C_R   0.851143 0.430150 0.485637 0.042270
C11   C     C_R   0.485553 0.088904 0.749484 -0.147712
C12   C     C_R   0.365300 0.500791 0.500326 0.874253
C13   C     C_R   0.496953 0.022719 0.870750 0.248551
C14   C     C_R   0.538536 0.918690 0.869514 -0.146100
C15   C     C_R   0.560429 0.873209 0.746734 -0.161600
C16   C     C_R   0.541095 0.931796 0.624839 0.064791
C17   C     C_R   0.515191 0.051508 0.626563 -0.000648
C18   C     C_R   0.521075 0.125606 0.505230 -0.189271
C19   C     C_R   0.555381 0.074587 0.391727 0.177840
C20   C     C_R   0.556113 0.942255 0.382517 0.189498
C21   C     C_R   0.540442 0.870316 0.500735 -0.208914
C22   C     C_R   0.399693 0.348414 0.143192 -0.221430
C23   C     C_R   0.515713 0.737261 0.499120 0.908796
C24   C     C_R   0.346003 0.282843 0.075134 -0.225205
C25   C     C_R   0.343861 0.286321 0.934892 0.216641
C26   C     C_R   0.396908 0.354225 0.863683 -0.211216
C27   C     C_R   0.448948 0.428792 0.929448 0.124777
C28   C     C_R   0.449635 0.427327 0.073853 0.176603
C29   C     C_R   0.549763 0.566097 0.070335 -0.129078
C30   C     C_R   0.550270 0.564615 0.927326 -0.114225
C31   C     C_R   0.634220 0.494736 0.500203 0.837254
C32   C     C_R   0.248290 0.532520 0.609628 0.180819
C33   C     C_R   0.175735 0.509423 0.606895 -0.156006
C34   C     C_R   0.143404 0.449975 0.496435 0.043799
C35   C     C_R   0.183252 0.413985 0.387015 -0.163166
C36   C     C_R   0.255254 0.433830 0.389390 -0.247592
H1    H     H_    0.550535 0.868283 0.961614 0.133642
H2    H     H_    0.590660 0.790207 0.745653 0.141523
H3    H     H_    0.590553 0.619730 0.123027 0.139941
H4    H     H_    0.401672 0.332048 0.249501 0.211516
H5    H     H_    0.398064 0.341416 0.757680 0.201567
H6    H     H_    0.144097 0.540577 0.689600 0.150224
H7    H     H_    0.592278 0.614916 0.873225 0.127861
H8    H     H_    0.835697 0.323037 0.670758 0.149093
H9    H     H_    0.850215 0.540871 0.299932 0.156970
N1    N     N_R   0.033333 0.436406 0.372935 -0.172753
N2    N     N_R   0.963868 0.431497 0.370035 -0.175209
N3    N     N_R   0.961036 0.413071 0.605839 -0.175600
N4    N     N_R   0.030454 0.418955 0.608818 -0.176804
N5    N     N_R   0.499340 0.498800 0.142780 -0.110913
N6    N     N_R   0.499320 0.498720 0.857170 -0.108198
O1    O     O_R   0.500000 0.316780 0.614690 -0.640109
O2    O     O_R   0.499990 0.316750 0.385360 -0.620910
O3    O     O_R   0.398140 0.500000 0.614700 -0.625457
O4    O     O_R   0.398130 0.499970 0.385370 -0.625939
O5    O     O_R   0.500010 0.683250 0.614640 -0.606591
O6    O     O_R   0.500000 0.683220 0.385310 -0.599947
O7    O     O_R   0.601870 0.500030 0.614630 -0.621047
O8    O     O_R   0.601860 0.500000 0.385300 -0.630791
Zn1   Zn    Zn3+2 0.500000 0.500020 0.653130 0.925347
Zn2   Zn    Zn3+2 0.500000 0.499980 0.346870 0.928455
C37   C     C_3   0.279978 0.605614 0.725964 -0.859541
H10   H     H_    0.315126 0.684718 0.687268 0.246209
H11   H     H_    0.239198 0.646809 0.789074 0.226269
H12   H     H_    0.309595 0.542721 0.792389 0.265520
H13   H     H_    0.451016 0.164177 0.752403 0.164148
C38   C     C_3   0.464567 0.063421 0.999448 -0.929341
H14   H     H_    0.481903 0.162603 0.019102 0.249113
H15   H     H_    0.406773 0.054959 0.990255 0.255467
H16   H     H_    0.479500 0.004247 0.086853 0.248973
C39   C     C_3   0.576944 0.878784 0.253564 -0.911168
H17   H     H_    0.530545 0.829527 0.207670 0.256673
H18   H     H_    0.598409 0.944829 0.174703 0.236645
H19   H     H_    0.617459 0.810273 0.276036 0.232066
H20   H     H_    0.307445 0.225275 0.131939 0.157657
C40   C     C_3   0.286934 0.212213 0.861973 -0.917901
H21   H     H_    0.292255 0.223427 0.750593 0.236653
H22   H     H_    0.288970 0.110525 0.888727 0.241496
H23   H     H_    0.235170 0.245544 0.891890 0.254020
H24   H     H_    0.158815 0.368865 0.300396 0.155210
H25   H     H_    0.284762 0.402316 0.304521 0.164954
C41   C     C_3   0.697834 0.333095 0.714460 -0.859170
H26   H     H_    0.729750 0.267789 0.774119 0.224632
H27   H     H_    0.679158 0.404277 0.784979 0.254486
H28   H     H_    0.652600 0.276459 0.672814 0.250046
H29   H     H_    0.725959 0.577288 0.311707 0.154965
C42   C     C_3   0.597095 0.158190 0.291492 -0.827060
H30   H     H_    0.646890 0.115498 0.264803 0.226827
H31   H     H_    0.566004 0.174427 0.199067 0.247999
H32   H     H_    0.614621 0.249535 0.336029 0.250352

loop_
_geom_bond_atom_site_label_1
_geom_bond_atom_site_label_2
_ccdc_geom_bond_type
C30   N6    A    
C9    H9    S    
C16   C21   A    
C6    C41   S    
C3    N3    A    
C35   C36   A    
C40   H23   S    
C42   H30   S    
C2    C12   S    
C7    C8    A    
O3    Zn1   S    
C26   C27   A    
C29   C30   A    
C33   H6    S    
C31   O7    A    
C40   H22   S    
C18   C19   A    
C19   C42   S    
C5    C6    A    
O7    Zn1   S    
C15   C16   A    
C35   H24   S    
C2    C32   A    
C34   C35   A    
C31   O8    A    
C1    O2    A    
C37   H11   S    
O1    Zn1   S    
O2    Zn2   S    
C19   C20   A    
C8    C9    A    
C20   C39   S    
C9    C10   A    
C11   H13   S    
C22   C28   A    
C13   C14   A    
C28   N5    A    
C27   N6    A    
C33   C34   A    
C29   N5    A    
C4    C34   S    
O8    Zn2   S    
C7    C31   S    
C38   H14   S    
C23   O5    A    
C40   H21   S    
C39   H18   S    
C16   C17   A    
C4    N1    A    
C25   C26   A    
O5    Zn1   S    
C38   H15   S    
C15   H2    S    
C37   H10   S    
C36   H25   S    
C22   H4    S    
C29   H3    S    
C17   C18   A    
C1    C18   S    
C24   C25   A    
N3    N4    A    
C5    H8    S    
C41   H27   S    
C42   H31   S    
C22   C24   A    
C30   H7    S    
C13   C38   S    
C2    C36   A    
C23   O6    A    
N1    N2    A    
C11   C17   A    
C37   H12   S    
C39   H19   S    
C24   H20   S    
O6    Zn2   S    
C6    C7    A    
C41   H28   S    
C4    N4    A    
C25   C40   S    
C32   C33   A    
C38   H16   S    
C21   C23   S    
C32   C37   S    
C5    C10   A    
C3    C10   S    
C14   H1    S    
C11   C13   A    
O4    Zn2   S    
C3    N2    A    
C8    H29   S    
C1    O1    A    
C12   O4    A    
C39   H17   S    
C20   C21   A    
C41   H26   S    
C42   H32   S    
C27   C28   A    
N5    Zn2   S    
C14   C15   A    
N6    Zn1   S    
C12   O3    A    
C26   H5    S    
