data_mof_unit_21194.cif
_audit_creation_date              2013-03-05T15:45:00-0500
_audit_creation_method            fapswitch 2.2
_symmetry_space_group_name_H-M    P1
_symmetry_Int_Tables_number       1
_space_group_crystal_system       triclinic
_cell_length_a                    17.566712
_cell_length_b                    24.621823
_cell_length_c                    15.145759
_cell_angle_alpha                 90.279641
_cell_angle_beta                  125.713225
_cell_angle_gamma                 90.124203
_cell_volume                      5318.83988156

loop_
_atom_site_label
_atom_site_type_symbol
_atom_site_description
_atom_site_fract_x
_atom_site_fract_y
_atom_site_fract_z
_atom_type_partial_charge
C1    C     C_R   0.314206 0.372631 0.906396 -0.153020
C2    C     C_R   0.646069 0.347894 0.088928 -0.249252
C3    C     C_R   0.815520 0.870129 0.908347 -0.109252
C4    C     C_R   0.148710 0.848815 0.088631 -0.218024
H1    H     H_    0.257486 0.367692 0.821763 0.156733
H2    H     H_    0.691656 0.335478 0.172581 0.136446
H3    H     H_    0.761503 0.860678 0.824036 0.133520
H4    H     H_    0.195859 0.836595 0.172315 0.132812
N1    N     N_R   0.395440 0.396300 0.944370 -0.092619
N2    N     N_R   0.604560 0.396300 0.055630 -0.071997
N3    N     N_R   0.895440 0.896300 0.944370 -0.084381
N4    N     N_R   0.104560 0.896300 0.055630 -0.079367
C5    C     C_R   0.416337 0.635263 0.094460 0.616756
C6    C     C_R   0.585896 0.639687 0.913799 0.574620
C7    C     C_R   0.916921 0.136145 0.094071 0.593497
C8    C     C_R   0.048519 0.151954 0.909189 0.573620
N5    N     N_R   0.449890 0.602500 0.055780 -0.109137
N6    N     N_R   0.550110 0.602500 0.944220 -0.115955
N7    N     N_R   0.949890 0.102500 0.055780 -0.121215
N8    N     N_R   0.050110 0.102500 0.944220 -0.112407
C9    C     C_R   0.539311 0.455620 0.298696 0.633571
C10   C     C_R   0.507585 0.452608 0.740539 0.632171
C11   C     C_R   0.057767 0.955281 0.306198 0.705508
C12   C     C_R   0.006877 0.956500 0.736123 0.626580
N9    N     N_R   0.525090 0.470990 0.205640 -0.120399
N10   N     N_R   0.474910 0.470990 0.794360 -0.116455
N11   N     N_R   0.025090 0.970990 0.205640 -0.110632
N12   N     N_R   0.974910 0.970990 0.794360 -0.120349
C13   C     C_R   0.257218 0.542175 0.689350 0.636560
C14   C     C_R   0.771917 0.541952 0.273452 0.648087
C15   C     C_R   0.759682 0.041666 0.688129 0.618143
C16   C     C_R   0.268167 0.040939 0.292074 0.617448
N13   N     N_R   0.320240 0.527820 0.794510 -0.091118
N14   N     N_R   0.679760 0.527820 0.205490 -0.107448
N15   N     N_R   0.820240 0.027820 0.794510 -0.084549
N16   N     N_R   0.179760 0.027820 0.205490 -0.106444
C17   C     C_R   0.538252 0.545801 0.296601 -0.126780
C18   C     C_R   0.510063 0.543227 0.739794 -0.114332
C19   C     C_R   0.038344 0.044424 0.297219 -0.190237
C20   C     C_R   0.017685 0.046671 0.752563 -0.058127
H5    H     H_    0.556114 0.586661 0.327542 0.216758
H6    H     H_    0.510161 0.583735 0.714370 0.214410
H7    H     H_    0.045386 0.085844 0.320771 0.235650
H8    H     H_    0.036312 0.088228 0.754171 0.213784
N17   N     N_R   0.524580 0.527810 0.205160 -0.086306
N18   N     N_R   0.475420 0.527810 0.794840 -0.072535
N19   N     N_R   0.024580 0.027810 0.205160 -0.089970
N20   N     N_R   0.975420 0.027810 0.794840 -0.071243
C21   C     C_R   0.246540 0.452887 0.699776 -0.272512
C22   C     C_R   0.765504 0.451480 0.259450 -0.294839
C23   C     C_R   0.748719 0.952488 0.698438 -0.249954
C24   C     C_R   0.264485 0.951059 0.273914 -0.211698
H9    H     H_    0.234929 0.410721 0.675285 0.118510
H10   H     H_    0.783133 0.409244 0.263050 0.140726
H11   H     H_    0.738994 0.910308 0.673656 0.118396
H12   H     H_    0.281709 0.908478 0.289192 0.136131
N21   N     N_R   0.320750 0.470990 0.794990 -0.047601
N22   N     N_R   0.679250 0.470990 0.205010 -0.060216
N23   N     N_R   0.820750 0.970990 0.794990 -0.052914
N24   N     N_R   0.179250 0.970990 0.205010 -0.061395
C25   C     C_R   0.313083 0.626462 0.914572 0.136021
C26   C     C_R   0.691977 0.614129 0.082634 0.274652
C27   C     C_R   0.812349 0.125663 0.914524 0.129863
C28   C     C_R   0.152723 0.150678 0.089292 0.215750
N25   N     N_R   0.393580 0.602500 0.942610 -0.114856
N26   N     N_R   0.606420 0.602500 0.057390 -0.120244
N27   N     N_R   0.893580 0.102500 0.942610 -0.116008
N28   N     N_R   0.106420 0.102500 0.057390 -0.115991
C29   C     C_R   0.407783 0.366143 0.087963 0.600659
C30   C     C_R   0.546325 0.345997 0.909598 0.749784
C31   C     C_R   0.908177 0.867427 0.090168 0.524444
C32   C     C_R   0.050434 0.847278 0.907777 0.740139
N29   N     N_R   0.451750 0.396300 0.057540 -0.124312
N30   N     N_R   0.548250 0.396300 0.942460 -0.106336
N31   N     N_R   0.951750 0.896300 0.057540 -0.113507
N32   N     N_R   0.048250 0.896300 0.942460 -0.113145
C33   C     C_R   0.320222 0.352694 0.994491 0.055991
C34   C     C_R   0.610498 0.315592 0.998430 -0.009987
C35   C     C_R   0.821748 0.850845 0.998470 0.072928
C36   C     C_R   0.115930 0.817488 0.997413 0.016812
C37   C     C_R   0.328706 0.648565 0.007671 0.005922
C38   C     C_R   0.677897 0.649123 0.003809 -0.021767
C39   C     C_R   0.828502 0.149135 0.007232 0.008848
C40   C     C_R   0.113615 0.182450 0.997847 -0.054826
C41   C     C_R   0.545557 0.501558 0.354626 -0.052133
C42   C     C_R   0.536021 0.496724 0.710701 -0.067314
C43   C     C_R   0.060765 0.000256 0.364189 -0.100989
C44   C     C_R   0.035254 0.003535 0.710893 -0.081144
C45   C     C_R   0.204322 0.497012 0.632903 -0.166715
C46   C     C_R   0.825530 0.494998 0.297767 -0.147957
C47   C     C_R   0.708808 0.996049 0.629721 -0.134232
C48   C     C_R   0.322600 0.994011 0.330198 -0.210991
Ni1   Ni    Ni4+2 0.435420 0.434250 0.870220 0.240015
Ni2   Ni    Ni4+2 0.564580 0.434250 0.129780 0.202241
Ni3   Ni    Ni4+2 0.935420 0.934250 0.870220 0.245704
Ni4   Ni    Ni4+2 0.064580 0.934250 0.129780 0.225351
Ni5   Ni    Ni4+2 0.563400 0.564580 0.128670 0.228459
Ni6   Ni    Ni4+2 0.436600 0.564580 0.871330 0.240708
Ni7   Ni    Ni4+2 0.063400 0.064580 0.128670 0.216226
Ni8   Ni    Ni4+2 0.936600 0.064580 0.871330 0.258534
C49   C     C_2   0.974277 0.450222 0.397093 -0.373735
C50   C     C_2   0.076833 0.450910 0.469823 -0.286735
C51   C     C_2   0.474778 0.966179 0.387889 -0.248697
C52   C     C_2   0.572122 0.953319 0.472441 -0.233650
C53   C     C_2   0.920512 0.490009 0.327369 0.676358
C54   C     C_2   0.124508 0.497261 0.517771 0.652450
C55   C     C_2   0.421971 0.986680 0.417669 0.575584
C56   C     C_2   0.635452 0.993649 0.511640 0.616367
H13   H     H_    0.942402 0.419947 0.418276 0.132182
H14   H     H_    0.105987 0.412478 0.510069 0.117353
H15   H     H_    0.448958 0.963297 0.302977 0.157830
H16   H     H_    0.581990 0.920139 0.525152 0.139496
C57   C     C_R   0.264440 0.737298 0.951780 0.066410
C58   C     C_R   0.705325 0.746077 0.060546 0.017286
C59   C     C_R   0.747893 0.233606 0.939443 0.077837
C60   C     C_R   0.167501 0.276186 0.044739 0.082010
C61   C     C_R   0.677997 0.267513 0.919540 0.496363
C62   C     C_R   0.225788 0.316921 0.051875 0.536778
C63   C     C_R   0.197938 0.774194 0.932148 0.511848
C64   C     C_R   0.734113 0.797264 0.049848 0.533558
C65   C     C_R   0.652981 0.267239 0.992462 -0.283387
C66   C     C_R   0.257885 0.312505 0.986372 -0.274323
C67   C     C_R   0.162248 0.770879 0.994334 -0.305663
C68   C     C_R   0.778482 0.800748 0.997405 -0.265733
C69   C     C_R   0.679319 0.224410 0.066052 0.504539
C70   C     C_R   0.238927 0.266364 0.921362 0.469168
C71   C     C_R   0.176774 0.725219 0.057565 0.502077
C72   C     C_R   0.802064 0.753764 0.966073 0.429227
C73   C     C_R   0.225155 0.681476 0.054051 0.115726
C74   C     C_R   0.790872 0.703727 0.997813 0.174476
C75   C     C_R   0.730271 0.181447 0.063813 0.109118
C76   C     C_R   0.203366 0.221041 0.938213 0.110643
C77   C     C_R   0.272421 0.689676 0.006147 -0.181063
C78   C     C_R   0.730513 0.699281 0.028989 -0.159676
C79   C     C_R   0.768731 0.188587 0.005309 -0.177401
C80   C     C_R   0.160512 0.227719 0.991778 -0.173688
C81   C     C_R   0.623177 0.534171 0.638055 0.207158
C82   C     C_R   0.626317 0.534121 0.547435 0.138212
C83   C     C_R   0.048507 0.054495 0.578106 0.202211
C84   C     C_R   0.082492 0.054142 0.515919 0.157750
C85   C     C_R   0.559303 0.501628 0.457285 -0.015858
C86   C     C_R   0.569045 0.493493 0.642799 -0.058963
C87   C     C_R   0.088212 0.003187 0.476187 -0.080958
C88   C     C_R   0.067940 0.008667 0.643578 -0.086523
C89   C     C_R   0.501646 0.466439 0.465163 0.107904
C90   C     C_R   0.533615 0.451100 0.567717 0.195616
C91   C     C_R   0.097462 0.956247 0.536184 0.114587
C92   C     C_R   0.112480 0.964606 0.635238 0.224744
O1    O     O_3   0.949036 0.525091 0.279998 -0.570411
C93   C     C_3   0.979712 0.495391 0.226090 0.095331
H17   H     H_    0.981925 0.523156 0.170175 0.183534
H18   H     H_    0.930950 0.461396 0.175979 0.093846
H19   H     H_    0.051869 0.479919 0.284554 0.132241
O2    O     O_3   0.095059 0.546274 0.462686 -0.561274
C94   C     C_3   0.053260 0.579451 0.499699 -0.041669
H20   H     H_    0.100627 0.613806 0.547102 0.154313
H21   H     H_    0.032568 0.557648 0.547167 0.095571
H22   H     H_    0.989202 0.597830 0.428482 0.214382
O3    O     O_3   0.455810 0.984183 0.526901 -0.632752
C95   C     C_3   0.427101 0.029190 0.557939 -0.101161
H23   H     H_    0.445152 0.068121 0.537178 0.169163
H24   H     H_    0.465624 0.028699 0.647618 0.189846
H25   H     H_    0.351426 0.026511 0.522756 0.135414
O4    O     O_3   0.626420 0.035516 0.444716 -0.579887
C96   C     C_3   0.571391 0.078118 0.442329 -0.045097
H26   H     H_    0.597438 0.117065 0.432535 0.162957
H27   H     H_    0.573599 0.081390 0.517155 0.093685
H28   H     H_    0.497665 0.073478 0.370201 0.151558
I1    I     I_    0.352838 0.756433 0.900918 -0.396162
I2    I     I_    0.625985 0.741020 0.125579 -0.449497
I3    I     I_    0.823810 0.255729 0.874409 -0.401457
I4    I     I_    0.094899 0.287373 0.117363 -0.406602
O5    O     O_3   0.638779 0.303321 0.833476 -0.567183
C97   C     C_3   0.579901 0.273395 0.735292 0.090692
H29   H     H_    0.539774 0.240293 0.741224 0.075425
H30   H     H_    0.620764 0.255970 0.707497 0.139051
H31   H     H_    0.527561 0.301049 0.670990 0.185783
O6    O     O_3   0.249591 0.361679 0.119252 -0.588776
C98   C     C_3   0.308365 0.345598 0.229723 0.029473
H32   H     H_    0.330418 0.302149 0.243528 0.117730
H33   H     H_    0.272675 0.353954 0.269199 0.155747
H34   H     H_    0.373329 0.370370 0.272338 0.199959
O7    O     O_3   0.171603 0.815379 0.857547 -0.577986
C99   C     C_3   0.126342 0.793168 0.750976 0.038742
H35   H     H_    0.112916 0.748523 0.743714 0.078076
H36   H     H_    0.168519 0.802015 0.719817 0.182497
H37   H     H_    0.057717 0.812993 0.695547 0.204489
O8    O     O_3   0.707856 0.844010 0.076532 -0.591233
C100  C     C_3   0.771501 0.855166 0.189049 0.009095
H38   H     H_    0.813341 0.819567 0.239565 0.129750
H39   H     H_    0.731278 0.869947 0.219736 0.156805
H40   H     H_    0.819762 0.888381 0.201679 0.161103
O9    O     O_3   0.647219 0.222917 0.130633 -0.593515
C101  C     C_3   0.723022 0.230473 0.241199 -0.167380
H41   H     H_    0.783037 0.254036 0.253819 0.088200
H42   H     H_    0.748262 0.190781 0.282514 0.208599
H43   H     H_    0.697480 0.253337 0.282321 0.128938
O10   O     O_3   0.265765 0.263480 0.851908 -0.611718
C102  C     C_3   0.184224 0.265596 0.743553 -0.197393
H44   H     H_    0.137711 0.299986 0.730788 0.099794
H45   H     H_    0.144004 0.226894 0.719037 0.201872
H46   H     H_    0.205282 0.271873 0.688192 0.162462
O11   O     O_3   0.136112 0.722313 0.112959 -0.576277
C103  C     C_3   0.206791 0.725798 0.226202 -0.149614
H47   H     H_    0.267137 0.752359 0.248291 0.077078
H48   H     H_    0.232820 0.684890 0.260889 0.189507
H49   H     H_    0.175829 0.743129 0.266145 0.137156
O12   O     O_3   0.843758 0.757155 0.912290 -0.610952
C104  C     C_3   0.778603 0.739994 0.802842 -0.176050
H50   H     H_    0.707832 0.727730 0.779702 0.137231
H51   H     H_    0.808400 0.705046 0.786274 0.205443
H52   H     H_    0.767820 0.773596 0.748236 0.127671
I5    I     I_    0.223865 0.603751 0.115052 -0.228014
I6    I     I_    0.892126 0.644112 0.032655 -0.192412
I7    I     I_    0.747189 0.106775 0.144432 -0.264335
I8    I     I_    0.227483 0.143644 0.893098 -0.306198
I9    I     I_    0.699638 0.592430 0.763689 -0.312197
I10   I     I_    0.730284 0.580122 0.550190 -0.424480
I11   I     I_    0.950424 0.117957 0.540042 -0.337834
I12   I     I_    0.153268 0.127178 0.526864 -0.444001
I13   I     I_    0.355019 0.475990 0.351515 -0.367027
I14   I     I_    0.626948 0.384783 0.620237 -0.274088
I15   I     I_    0.037006 0.877709 0.473015 -0.411970
I16   I     I_    0.219667 0.922343 0.774589 -0.242857
O13   O     O_3   0.465673 0.651723 0.202166 -0.645626
C105  C     C_3   0.463001 0.708439 0.213245 -0.183242
H53   H     H_    0.402933 0.719537 0.215348 0.135757
H54   H     H_    0.461526 0.731618 0.149480 0.179767
H55   H     H_    0.527662 0.720976 0.292544 0.178011
O14   O     O_3   0.536976 0.662329 0.811151 -0.655417
C106  C     C_3   0.529656 0.718976 0.815778 -0.204083
H56   H     H_    0.592835 0.739458 0.831753 0.139095
H57   H     H_    0.515609 0.731618 0.875512 0.191154
H58   H     H_    0.469273 0.732788 0.734909 0.171930
O15   O     O_3   0.968814 0.154860 0.200602 -0.643270
C107  C     C_3   0.961185 0.211452 0.207769 -0.153145
H59   H     H_    0.949440 0.234008 0.137426 0.163950
H60   H     H_    0.027993 0.226729 0.281538 0.186683
H61   H     H_    0.905198 0.220548 0.218374 0.141559
O16   O     O_3   0.985766 0.166397 0.800326 -0.641242
C108  C     C_3   0.974410 0.222948 0.782463 -0.173924
H62   H     H_    0.026854 0.239156 0.770901 0.140502
H63   H     H_    0.976518 0.245605 0.847325 0.180670
H64   H     H_    0.904741 0.230574 0.705701 0.165147
O17   O     O_3   0.567979 0.404878 0.345369 -0.582439
C109  C     C_3   0.651720 0.390891 0.358593 -0.135805
H65   H     H_    0.705947 0.423440 0.401729 0.123790
H66   H     H_    0.638205 0.380855 0.279148 0.124793
H67   H     H_    0.680265 0.353872 0.409219 0.164365
O18   O     O_3   0.492571 0.400703 0.698969 -0.586076
C110  C     C_3   0.395505 0.393810 0.617695 -0.147031
H68   H     H_    0.366385 0.426637 0.555958 0.126486
H69   H     H_    0.356263 0.391673 0.654219 0.149758
H70   H     H_    0.384076 0.354850 0.574432 0.162546
O19   O     O_3   0.112412 0.909031 0.349307 -0.609293
C111  C     C_3   0.207473 0.921687 0.431750 -0.171478
H71   H     H_    0.223073 0.916197 0.513267 0.185111
H72   H     H_    0.228770 0.963305 0.426045 0.106861
H73   H     H_    0.252143 0.892364 0.425878 0.156512
O20   O     O_3   0.995968 0.905903 0.691220 -0.592204
C112  C     C_3   0.901817 0.900185 0.600578 -0.117143
H74   H     H_    0.882385 0.931727 0.538329 0.134090
H75   H     H_    0.853416 0.901364 0.625316 0.126067
H76   H     H_    0.892996 0.859982 0.562202 0.169287
O21   O     O_3   0.278789 0.576892 0.634256 -0.614208
C113  C     C_3   0.309058 0.628983 0.680946 -0.128618
H77   H     H_    0.339869 0.649201 0.643238 0.184006
H78   H     H_    0.364376 0.628739 0.768683 0.153344
H79   H     H_    0.249196 0.654384 0.661091 0.152496
O22   O     O_3   0.808260 0.594149 0.297818 -0.629837
C114  C     C_3   0.763057 0.625877 0.331670 -0.240458
H80   H     H_    0.786829 0.613553 0.414121 0.179196
H81   H     H_    0.685265 0.624146 0.274216 0.160595
H82   H     H_    0.784645 0.668832 0.337212 0.203530
O23   O     O_3   0.787122 0.076210 0.639351 -0.600225
C115  C     C_3   0.780176 0.130798 0.660170 -0.072193
H83   H     H_    0.706546 0.142399 0.623207 0.113404
H84   H     H_    0.803712 0.156001 0.619878 0.191964
H85   H     H_    0.825768 0.140314 0.748089 0.173168
O24   O     O_3   0.296850 0.088746 0.351296 -0.643218
C116  C     C_3   0.226061 0.109328 0.357903 -0.175527
H86   H     H_    0.210695 0.079621 0.400163 0.135350
H87   H     H_    0.162170 0.120076 0.276876 0.169756
H88   H     H_    0.252445 0.147095 0.407566 0.208116
I17   I     I_    0.171991 0.621539 0.774957 -0.502389
I18   I     I_    0.749399 0.545781 0.050640 -0.333334
I19   I     I_    0.669645 0.113858 0.778694 -0.520885
I20   I     I_    0.300880 0.161502 0.206282 -0.397048
O25   O     O_3   0.452353 0.339762 0.186074 -0.617608
C117  C     C_3   0.490197 0.290879 0.178987 -0.173818
H89   H     H_    0.536831 0.297977 0.152849 0.145267
H90   H     H_    0.433868 0.261370 0.123223 0.164045
H91   H     H_    0.533189 0.272287 0.260814 0.179895
O26   O     O_3   0.471667 0.326280 0.809595 -0.634335
C118  C     C_3   0.430699 0.280224 0.821759 -0.211816
H92   H     H_    0.420444 0.286241 0.886969 0.184948
H93   H     H_    0.473118 0.243345 0.838419 0.159501
H94   H     H_    0.361273 0.273005 0.744060 0.184458
O27   O     O_3   0.951223 0.846026 0.192868 -0.632959
C119  C     C_3   0.020410 0.809087 0.211899 -0.054763
H95   H     H_    0.077701 0.830065 0.214449 0.141261
H96   H     H_    0.990108 0.775907 0.149989 0.145349
H97   H     H_    0.051734 0.790108 0.292362 0.177754
O28   O     O_3   0.981949 0.829478 0.802483 -0.619469
C120  C     C_3   0.959423 0.773938 0.797004 -0.239749
H98   H     H_    0.958246 0.761095 0.866277 0.206815
H99   H     H_    0.008410 0.747964 0.792717 0.153266
H100  H     H_    0.888942 0.766709 0.720633 0.162584

loop_
_geom_bond_atom_site_label_1
_geom_bond_atom_site_label_2
_geom_bond_distance
_ccdc_geom_bond_type
C101  H42   1.107780 S    
C117  H91   1.109128 S    
C1    C33   1.369100 A    
C86   C90   1.389014 A    
C19   C43   1.383040 A    
C3    C35   1.390246 A    
C13   C45   1.374660 A    
C89   C90   1.363421 A    
C88   C92   1.386652 A    
C116  H88   1.108859 S    
C56   O4    1.392256 S    
N1    N29   1.391762 A    
N26   Ni5   1.888815 S    
C5    O13   1.384911 S    
C101  H43   1.109086 S    
C89   I13   2.117347 S    
N2    Ni2   1.881764 S    
C114  H80   1.105156 S    
C111  H73   1.108263 S    
C13   N13   1.354988 A    
C8    C40   1.366872 A    
C28   C40   1.379946 A    
C33   C66   1.424896 S    
C22   C46   1.367981 A    
C45   C54   1.467100 S    
C30   N30   1.325542 A    
C76   I8    2.146307 S    
C4    N4    1.332431 A    
C27   I19   2.138045 S    
C28   I20   2.143093 S    
N10   Ni1   1.886156 S    
N18   Ni6   1.881906 S    
C102  H44   1.114533 S    
C57   C77   1.395682 A    
O17   C109  1.407700 S    
C94   H22   1.106561 S    
N30   Ni1   1.866812 S    
C74   C78   1.394166 A    
C64   O8    1.384263 S    
C27   N27   1.356343 A    
N20   Ni8   1.881906 S    
C75   I7    2.135466 S    
C95   H25   1.108061 S    
C26   N26   1.346568 A    
C38   C78   1.450463 S    
O7    C99   1.424003 S    
C2    C34   1.374407 A    
C69   O9    1.385722 S    
C8    N8    1.324426 A    
C97   H31   1.105099 S    
O2    C94   1.414001 S    
N27   Ni8   1.885222 S    
C73   C77   1.400207 A    
C17   N17   1.333109 A    
C119  H95   1.110553 S    
C19   N19   1.330529 A    
C61   O5    1.384383 S    
C20   N20   1.316569 A    
N8    N28   1.391762 A    
C46   C53   1.458830 S    
C82   C85   1.413821 A    
C19   H7    1.061604 S    
C83   C84   1.378422 A    
C63   C67   1.405962 A    
C12   O20   1.374680 S    
C20   C44   1.357903 A    
C16   C48   1.396258 A    
C21   H9    1.078934 S    
C60   C62   1.389710 A    
C74   I6    2.125986 S    
N16   Ni7   1.895494 S    
C23   H11   1.081298 S    
C31   O27   1.380410 S    
C6    O14   1.384602 S    
C3    N3    1.335037 A    
C25   N25   1.353896 A    
O9    C101  1.415851 S    
C81   I9    2.112733 S    
C94   H20   1.103151 S    
N14   N22   1.399224 A    
C51   C55   1.344261 D    
C72   O12   1.379806 S    
C36   C67   1.424428 S    
C81   C86   1.410283 A    
C29   C33   1.389530 A    
C91   C92   1.377454 A    
C84   C87   1.417751 A    
C31   C35   1.389515 A    
O6    C98   1.419058 S    
C118  H93   1.108656 S    
C18   C42   1.394631 A    
C16   N16   1.360874 A    
C51   H15   1.087506 S    
C4    C36   1.376280 A    
C112  H74   1.114059 S    
N14   Ni5   1.895494 S    
C21   N21   1.331981 A    
C99   H35   1.115103 S    
C108  H62   1.107295 S    
C62   C66   1.402216 A    
C100  H39   1.109320 S    
C97   H29   1.114191 S    
C24   N24   1.325054 A    
C99   H36   1.107995 S    
C120  H99   1.104969 S    
C111  H72   1.111052 S    
C102  H46   1.107673 S    
C106  H58   1.108992 S    
C119  H97   1.109088 S    
C70   O10   1.382867 S    
C96   H27   1.113620 S    
O14   C106  1.406095 S    
C84   I12   2.133980 S    
O25   C117  1.409818 S    
C14   N14   1.360165 A    
O24   C116  1.400248 S    
C41   C85   1.427415 S    
C52   H16   1.086382 S    
C110  H70   1.108720 S    
C54   O2    1.388771 S    
C95   H24   1.109086 S    
C71   C73   1.393326 A    
C65   C69   1.407096 A    
C69   C75   1.400172 A    
C67   C71   1.404499 A    
C70   C76   1.373531 A    
C76   C80   1.401488 A    
C104  H50   1.117250 S    
C58   C78   1.412627 A    
C63   O7    1.386348 S    
N7    N27   1.391762 A    
C113  H78   1.096691 S    
C26   I18   2.157392 S    
C62   O6    1.385488 S    
C15   C47   1.380485 A    
N15   Ni8   1.885815 S    
N9    N17   1.399087 A    
N11   N19   1.399087 A    
C9    N9    1.336632 A    
C109  H65   1.114233 S    
N12   N20   1.398977 A    
C12   N12   1.340412 A    
C103  H48   1.107406 S    
O20   C112  1.409358 S    
C113  H79   1.105841 S    
C112  H76   1.109176 S    
C37   C77   1.407377 S    
C85   C89   1.388914 A    
C116  H87   1.110050 S    
C35   C68   1.442500 S    
C105  H54   1.111440 S    
C107  H61   1.108265 S    
C5    N5    1.319822 A    
C108  H64   1.107585 S    
C114  H81   1.112474 S    
C32   C36   1.376474 A    
N3    N31   1.391762 A    
C59   C79   1.394305 A    
O16   C108  1.411938 S    
C73   I5    2.134932 S    
C18   N18   1.343107 A    
C83   I11   2.145560 S    
C20   H8    1.069396 S    
C103  H47   1.115425 S    
C8    O16   1.394889 S    
C105  H53   1.108857 S    
C93   H17   1.109062 S    
N5    Ni5   1.874753 S    
C109  H67   1.109115 S    
C114  H82   1.108907 S    
C49   C50   1.463628 S    
C94   H21   1.115888 S    
C13   O21   1.394720 S    
O23   C115  1.400811 S    
C14   O22   1.382834 S    
C14   C46   1.401112 A    
C15   O23   1.386251 S    
C110  H68   1.113560 S    
C7    N7    1.321935 A    
C22   H10   1.078231 S    
C1    H1    1.075892 S    
O4    C96   1.414197 S    
N25   Ni6   1.885222 S    
C3    H3    1.080137 S    
C32   O28   1.390576 S    
O26   C118  1.411053 S    
C90   I14   2.118669 S    
C49   H13   1.087360 S    
C5    C37   1.359734 A    
C104  H52   1.108533 S    
C60   I4    2.132769 S    
N15   N23   1.399333 A    
C117  H89   1.112218 S    
C34   C65   1.436693 S    
C23   C47   1.373826 A    
C57   C63   1.371174 A    
O12   C104  1.418609 S    
C59   C61   1.367559 A    
C93   H19   1.109475 S    
O15   C107  1.409811 S    
C29   N29   1.332858 A    
C32   N32   1.323571 A    
C68   C72   1.400458 A    
C98   H34   1.106431 S    
C101  H41   1.116057 S    
C26   C38   1.376629 A    
N9    Ni2   1.882216 S    
N11   Ni4   1.882216 S    
N29   Ni2   1.857141 S    
C119  H96   1.112616 S    
N31   Ni4   1.857141 S    
C9    C41   1.374984 A    
C22   N22   1.324726 A    
C1    N1    1.319740 A    
C59   I3    2.140333 S    
C118  H92   1.111866 S    
C7    C39   1.366008 A    
O18   C110  1.413436 S    
C27   C39   1.382868 A    
O27   C119  1.409182 S    
O3    C95   1.406205 S    
N8    Ni8   1.865056 S    
C115  H85   1.104786 S    
C106  H57   1.111076 S    
C12   C44   1.399962 A    
N24   Ni4   1.864607 S    
N4    N32   1.391764 A    
C15   N15   1.360078 A    
C50   H14   1.082845 S    
N6    N26   1.391762 A    
C6    C38   1.395530 A    
C28   N28   1.354112 A    
C52   C56   1.339612 D    
C91   I15   2.137614 S    
C42   C86   1.447921 S    
C40   C80   1.419466 S    
N7    Ni7   1.874752 S    
C47   C56   1.473303 S    
C72   C74   1.379370 A    
C57   I1    2.150274 S    
C99   H37   1.105149 S    
C10   O18   1.376976 S    
C60   C80   1.399154 A    
O1    C93   1.414683 S    
C107  H60   1.109201 S    
C10   C42   1.378256 A    
C92   I16   2.114994 S    
C100  H38   1.116556 S    
C97   H30   1.108572 S    
N10   N18   1.398977 A    
C98   H32   1.116989 S    
C120  H98   1.108944 S    
C10   N10   1.320075 A    
C7    O15   1.385806 S    
C51   C52   1.453997 S    
C102  H45   1.110152 S    
O22   C114  1.406333 S    
N4    Ni4   1.881764 S    
C25   C37   1.378337 A    
C71   O11   1.385374 S    
C58   C64   1.401901 A    
O11   C103  1.415146 S    
C96   H26   1.108910 S    
C30   C34   1.372667 A    
C6    N6    1.336266 A    
C4    H4    1.078062 S    
N19   Ni7   1.885921 S    
O5    C97   1.419310 S    
C107  H59   1.111645 S    
C87   C91   1.423577 A    
N12   Ni3   1.886156 S    
C17   C41   1.361521 A    
C18   H6    1.071243 S    
C75   C79   1.404417 A    
N32   Ni3   1.866812 S    
C110  H69   1.108750 S    
N13   Ni6   1.885815 S    
C61   C65   1.407018 A    
C103  H49   1.107503 S    
O10   C102  1.415818 S    
C11   N11   1.335960 A    
O21   C113  1.406054 S    
C39   C79   1.419834 S    
C16   O24   1.379673 S    
C11   C43   1.391660 A    
C17   H5    1.073584 S    
C2    H2    1.077198 S    
N23   Ni3   1.874215 S    
C118  H94   1.106940 S    
C49   C53   1.347794 D    
C109  H66   1.108423 S    
C11   O19   1.387395 S    
C112  H75   1.111781 S    
C9    O17   1.382006 S    
C116  H86   1.105882 S    
O8    C100  1.413982 S    
C108  H63   1.108946 S    
C66   C70   1.405594 A    
C100  H40   1.109181 S    
C83   C88   1.410823 A    
C48   C55   1.462432 S    
C120  H100  1.107999 S    
C111  H71   1.106569 S    
O13   C105  1.409838 S    
C115  H83   1.107160 S    
O28   C120  1.411284 S    
C115  H84   1.107047 S    
C96   H28   1.109141 S    
C25   I17   2.122906 S    
C93   H18   1.114483 S    
C23   N23   1.333359 A    
O19   C111  1.415795 S    
C2    N2    1.336721 A    
N1    Ni1   1.885691 S    
N3    Ni3   1.885691 S    
C58   I2    2.128683 S    
N13   N21   1.399333 A    
C21   C45   1.376042 A    
N16   N24   1.399224 A    
C55   O3    1.395415 S    
C105  H55   1.109127 S    
C53   O1    1.391342 S    
C81   C82   1.405415 A    
N5    N25   1.391762 A    
C95   H23   1.111885 S    
N22   Ni2   1.864607 S    
N28   Ni7   1.888814 S    
N17   Ni5   1.885921 S    
C31   N31   1.333473 A    
N2    N30   1.391764 A    
C104  H51   1.109312 S    
C29   O25   1.377101 S    
C50   C54   1.344970 D    
C117  H90   1.111575 S    
C30   O26   1.385915 S    
C24   C48   1.363023 A    
C113  H77   1.108791 S    
C24   H12   1.079941 S    
C82   I10   2.126451 S    
C106  H56   1.107925 S    
N21   Ni1   1.874215 S    
N6    Ni6   1.865056 S    
C43   C87   1.469322 S    
C44   C88   1.438569 S    
C64   C68   1.403184 A    
C98   H33   1.109000 S    
