data_mof_unit_26838.cif
_audit_creation_date              2012-12-11T16:19:58-0500
_audit_creation_method            fapswitch 2.2
_symmetry_space_group_name_H-M    P1
_symmetry_Int_Tables_number       1
_space_group_crystal_system       triclinic
_cell_length_a                    13.491776
_cell_length_b                    14.035275
_cell_length_c                    30.085297
_cell_angle_alpha                 97.763619
_cell_angle_beta                  90.183005
_cell_angle_gamma                 118.672269
_cell_volume                      4937.40936523

loop_
_atom_site_label
_atom_site_type_symbol
_atom_type_description
_atom_site_fract_x
_atom_site_fract_y
_atom_site_fract_z
_atom_type_partial_charge
C1    C     C_R   0.720449 0.098722 0.568995 0.547736
C2    C     C_R   0.357424 0.680409 0.677957 0.036096
C3    C     C_R   0.261446 0.671848 0.655904 -0.095818
C4    C     C_R   0.266685 0.699202 0.612765 -0.106207
C5    C     C_R   0.237394 0.628225 0.826975 -0.175300
C6    C     C_R   0.216573 0.602931 0.870184 -0.147429
C7    C     C_R   0.405535 0.625541 0.880673 -0.113745
C8    C     C_R   0.426994 0.651476 0.837019 0.272632
C9    C     C_R   0.341003 0.649979 0.809999 0.044792
C10   C     C_1   0.353386 0.662367 0.763681 -0.001838
C11   C     C_1   0.357100 0.669852 0.724457 -0.031517
C12   C     C_R   0.384239 0.789015 0.551408 0.544111
C13   C     C_R   0.298781 0.597377 0.896866 -0.021849
C14   C     C_3   0.323384 0.047005 0.719400 0.182390
C15   C     C_3   0.231494 0.170469 0.713321 -0.228818
C16   C     C_3   0.218726 0.175166 0.764682 -0.225924
C17   C     C_1   0.296849 0.197577 0.877268 -0.019733
C18   C     C_3   0.332598 0.150732 0.701157 0.063618
C19   C     C_3   0.306292 0.053466 0.770751 -0.187821
C20   C     C_3   0.315035 0.166081 0.788973 0.035399
C21   C     C_3   0.430563 0.259184 0.777915 -0.233452
C22   C     C_3   0.439924 0.251906 0.726307 -0.262120
C23   C     C_R   0.397606 0.118534 0.569353 0.544137
C24   C     C_1   0.305568 0.178556 0.837739 -0.072463
C25   C     C_1   0.346170 0.143173 0.652630 -0.039982
C26   C     C_1   0.365404 0.134849 0.613719 -0.006465
C27   C     C_3   0.731179 0.194583 0.727579 -0.233308
C28   C     C_3   0.936313 0.250156 0.719702 -0.215724
C29   C     C_3   0.955240 0.261330 0.771399 -0.216398
C30   C     C_1   0.895045 0.203867 0.879225 -0.016191
C31   C     C_3   0.813441 0.160333 0.703289 0.062059
C32   C     C_3   0.749552 0.205730 0.779388 -0.224060
C33   C     C_3   0.845456 0.180545 0.791275 0.055403
C34   C     C_R   0.720194 0.095240 0.442712 0.540244
C35   C     C_3   0.812007 0.061871 0.769072 -0.208411
C36   C     C_3   0.790668 0.048638 0.717198 -0.075390
C37   C     C_1   0.866635 0.192301 0.840099 -0.070706
C38   C     C_1   0.792908 0.148367 0.654306 -0.061579
C39   C     C_1   0.766869 0.130470 0.614613 -0.008977
C40   C     C_3   0.391370 0.798004 0.270573 -0.211167
C41   C     C_3   0.226020 0.608936 0.270458 -0.214730
C42   C     C_3   0.217931 0.589210 0.218344 -0.214462
C43   C     C_1   0.308414 0.606150 0.111176 -0.019518
C44   C     C_3   0.350109 0.688090 0.289203 0.061871
C45   C     C_R   0.382303 0.784521 0.424827 0.546875
C46   C     C_3   0.383302 0.778222 0.218416 -0.214294
C47   C     C_3   0.336427 0.654559 0.200636 0.062272
C48   C     C_3   0.416584 0.616813 0.219735 -0.209114
C49   C     C_3   0.424655 0.636613 0.271987 -0.211496
C50   C     C_1   0.325969 0.633379 0.151279 -0.074565
C51   C     C_1   0.357884 0.709468 0.338540 -0.074264
C52   C     C_1   0.366647 0.736850 0.378604 -0.018055
C53   C     C_R   0.356984 0.132405 0.400811 0.019578
C54   C     C_R   0.418870 0.233700 0.385377 -0.123065
C55   C     C_R   0.401983 0.242313 0.340747 -0.109320
C56   C     C_R   0.396053 0.114490 0.442970 0.538217
C57   C     C_R   0.322960 0.150122 0.311426 0.037008
C58   C     C_R   0.254483 0.051585 0.327298 -0.121187
C59   C     C_R   0.270845 0.042814 0.371990 -0.129173
C60   C     C_R   0.238134 0.093445 0.148244 -0.131749
C61   C     C_R   0.231188 0.112176 0.104391 -0.130541
C62   C     C_R   0.411611 0.280271 0.119570 -0.132814
C63   C     C_R   0.418774 0.261891 0.163648 0.000381
C64   C     C_R   0.329233 0.170100 0.178362 0.023158
C65   C     C_1   0.324180 0.159239 0.224977 -0.021216
C66   C     C_1   0.321264 0.153917 0.264365 -0.023972
C67   C     C_R   0.368147 0.734735 0.591425 0.021308
C68   C     C_R   0.315226 0.208395 0.090360 0.005600
C69   C     C_R   0.777273 0.130330 0.401499 0.007539
C70   C     C_R   0.774333 0.048749 0.367845 -0.139735
C71   C     C_R   0.798554 0.070318 0.324304 -0.125016
C72   C     C_R   0.827341 0.173847 0.313911 0.024486
C73   C     C_R   0.840726 0.258805 0.347611 -0.113399
C74   C     C_R   0.816686 0.238181 0.391601 -0.018512
C75   C     C_R   0.884106 0.303064 0.166490 -0.114144
C76   C     C_R   0.909757 0.311079 0.121860 -0.130648
C77   C     C_R   0.851253 0.116200 0.107576 -0.125500
C78   C     C_R   0.461301 0.734435 0.612627 -0.129373
C79   C     C_R   0.825062 0.108328 0.152107 -0.114920
C80   C     C_R   0.845544 0.202495 0.181845 0.040261
C81   C     C_1   0.838724 0.197403 0.228797 -0.027098
C82   C     C_1   0.834887 0.189429 0.267951 -0.026958
C83   C     C_R   0.898363 0.218620 0.092603 0.020937
C84   C     C_R   0.283754 0.232494 0.922620 0.545288
C85   C     C_R   0.265861 0.546858 0.937942 0.543910
C86   C     C_R   0.945050 0.222040 0.923567 0.546823
C87   C     C_R   0.292595 0.243187 0.049290 0.543790
C88   C     C_R   0.275062 0.558308 0.065012 0.546824
C89   C     C_R   0.456121 0.708218 0.655871 -0.120168
C90   C     C_R   0.953878 0.233115 0.050225 0.541678
Cr1   Cr    Cr6+3 0.583400 0.162540 0.509180 1.050926
Cr2   Cr    Cr6+3 0.584070 0.916690 0.495550 1.025262
Cr3   Cr    Cr6+3 0.332550 0.920810 0.495240 1.032858
Cr4   Cr    Cr6+3 0.086700 0.177000 0.983690 1.020836
Cr5   Cr    Cr6+3 0.336880 0.419130 0.994740 1.018563
Cr6   Cr    Cr6+3 0.084850 0.422220 0.995960 1.018288
H1    H     H_    0.133441 0.581484 0.881603 0.143913
H2    H     H_    0.247025 0.250051 0.703647 0.113742
H3    H     H_    0.151255 0.108047 0.694097 0.130896
H4    H     H_    0.134615 0.107751 0.770953 0.112932
H5    H     H_    0.221159 0.254024 0.778498 0.116282
H6    H     H_    0.517565 0.246507 0.717880 0.101673
H7    H     H_    0.449883 0.328558 0.715452 0.120218
H8    H     H_    0.501348 0.253122 0.793990 0.113145
H9    H     H_    0.409130 0.054414 0.716905 0.133604
H10   H     H_    0.373184 0.044783 0.788681 0.092803
H11   H     H_    0.170933 0.627038 0.806163 0.109697
H12   H     H_    0.439552 0.340740 0.791850 0.117518
H13   H     H_    0.771619 0.290533 0.795261 0.114905
H14   H     H_    0.744945 0.274264 0.718657 0.115940
H15   H     H_    0.998387 0.229540 0.702837 0.127887
H16   H     H_    0.952178 0.330400 0.710705 0.110375
H17   H     H_    0.981999 0.347441 0.787072 0.116785
H18   H     H_    0.025399 0.244379 0.779270 0.111946
H19   H     H_    0.700332 0.986635 0.707394 0.106790
H20   H     H_    0.733593 0.002298 0.782916 0.123325
H21   H     H_    0.184366 0.648829 0.672892 0.099205
H22   H     H_    0.641740 0.132397 0.716304 0.108221
H23   H     H_    0.669435 0.148021 0.792822 0.116204
H24   H     H_    0.879967 0.042522 0.777988 0.120202
H25   H     H_    0.326989 0.807288 0.205273 0.119968
H26   H     H_    0.339166 0.836954 0.282398 0.120624
H27   H     H_    0.194461 0.529081 0.283060 0.121261
H28   H     H_    0.170645 0.644169 0.282354 0.118174
H29   H     H_    0.158436 0.614753 0.205284 0.115456
H30   H     H_    0.182141 0.499719 0.205956 0.122502
H31   H     H_    0.514491 0.692193 0.285051 0.118508
H32   H     H_    0.193651 0.698160 0.597179 0.129802
H33   H     H_    0.396551 0.557262 0.284624 0.124039
H34   H     H_    0.502553 0.662752 0.207760 0.120179
H35   H     H_    0.480685 0.856574 0.283543 0.121375
H36   H     H_    0.468655 0.826936 0.206374 0.117882
H37   H     H_    0.384668 0.527889 0.207343 0.128424
H38   H     H_    0.156338 0.054998 0.082493 0.131520
H39   H     H_    0.169314 0.022209 0.159351 0.112272
H40   H     H_    0.193028 0.980000 0.304613 0.106028
H41   H     H_    0.221928 0.963708 0.382910 0.133866
H42   H     H_    0.485379 0.304134 0.406877 0.138384
H43   H     H_    0.540773 0.761312 0.597099 0.139038
H44   H     H_    0.477602 0.354479 0.109161 0.135240
H45   H     H_    0.454943 0.318983 0.328513 0.124431
H46   H     H_    0.946268 0.391164 0.111302 0.132415
H47   H     H_    0.900179 0.376250 0.189500 0.114213
H48   H     H_    0.865676 0.339732 0.339261 0.115751
H49   H     H_    0.745142 0.965594 0.374188 0.137743
H50   H     H_    0.794877 0.030130 0.163940 0.105930
H51   H     H_    0.841222 0.043686 0.085713 0.127763
H52   H     H_    0.789173 0.004537 0.298236 0.109251
H53   H     H_    0.470900 0.624385 0.901227 0.128681
H54   H     H_    0.530571 0.714541 0.672790 0.114074
H55   H     H_    0.224351 0.985431 0.778247 0.123359
O1    O     O_R   0.494060 0.188820 0.559230 -0.510330
O2    O     O_R   0.480140 0.824500 0.445020 -0.496366
O3    O     O_R   0.308480 0.808690 0.440220 -0.508706
O4    O     O_R   0.340970 0.020670 0.455610 -0.505327
O5    O     O_3   0.500010 0.000010 0.499990 -0.250250
O6    O     O_R   0.969690 0.151000 0.934080 -0.505160
O7    O     O_R   0.187530 0.180840 0.938210 -0.494224
O8    O     O_R   0.358160 0.327300 0.941250 -0.511980
O9    O     O_R   0.323950 0.507710 0.953980 -0.503065
O10   O     O_R   0.170530 0.527770 0.952070 -0.515002
O11   O     O_R   0.987720 0.318450 0.945940 -0.497417
O12   O     O_R   0.678470 0.153390 0.554100 -0.493586
O13   O     O_R   0.976400 0.159230 0.032040 -0.517936
O14   O     O_R   0.193740 0.188470 0.029020 -0.501726
O15   O     O_R   0.364860 0.335530 0.039220 -0.516434
O16   O     O_R   0.330170 0.515340 0.044800 -0.493771
O17   O     O_R   0.177230 0.536000 0.050040 -0.511929
O18   O     O_R   0.993930 0.326080 0.036750 -0.503088
O19   O     O_3   0.169480 0.339450 0.991460 -0.243256
O20   O     O_R   0.697870 0.003940 0.549410 -0.505404
O21   O     O_R   0.480980 0.827230 0.535590 -0.505766
O22   O     O_R   0.309390 0.811640 0.537920 -0.507541
O23   O     O_R   0.341810 0.023400 0.546180 -0.488428
O24   O     O_R   0.493150 0.185870 0.461540 -0.508616
O25   O     O_R   0.677630 0.150660 0.463530 -0.481700
O26   O     O_R   0.696960 0.000990 0.451710 -0.519140
O27   O     O_3   0.251110 0.942567 0.693183 -0.574879
C91   C     C_3   0.134702 0.911899 0.690504 0.032504
H56   H     H_    0.114294 0.936191 0.659532 0.167509
H57   H     H_    0.108864 0.948739 0.719989 0.131555
C92   C     C_3   0.065354 0.786970 0.686986 -0.263424
H58   H     H_    0.083063 0.747841 0.655694 0.165442
H59   H     H_    0.090713 0.760696 0.716272 0.161515
C93   C     C_3   0.938355 0.747660 0.686058 -0.473466
H60   H     H_    0.917936 0.785787 0.716946 0.156037
H61   H     H_    0.891416 0.656978 0.684465 0.136862
H62   H     H_    0.910129 0.768827 0.655949 0.182470
C94   C     C_1   0.859807 0.005147 0.693558 0.166712
N1    N     N_1   0.913959 0.971386 0.674863 -0.366181
C95   C     C_1   0.514960 0.341544 0.193915 0.181819
N2    N     N_1   0.591936 0.405329 0.218178 -0.321646
C96   C     C_1   0.830220 0.328163 0.425269 0.209861
N3    N     N_1   0.841132 0.400358 0.452208 -0.299994
O28   O     O_3   0.533905 0.685865 0.822039 -0.569489
C97   C     C_3   0.546577 0.593153 0.806484 0.001942
H63   H     H_    0.483464 0.540625 0.777601 0.127731
H64   H     H_    0.535945 0.543683 0.833897 0.124149
C98   C     C_3   0.665859 0.632840 0.790779 -0.247199
H65   H     H_    0.678749 0.684609 0.764153 0.171887
H66   H     H_    0.729207 0.683999 0.819596 0.172841
C99   C     C_3   0.685399 0.537061 0.772168 -0.496697
H67   H     H_    0.670353 0.482320 0.797733 0.143678
H68   H     H_    0.774251 0.569225 0.763008 0.142332
H69   H     H_    0.628070 0.489234 0.741500 0.144155

loop_
_geom_bond_atom_site_label_1
_geom_bond_atom_site_label_2
_ccdc_geom_bond_type
C44   C49   S    
C15   C18   S    
C23   O1    A    
C55   H45   S    
C85   O10   A    
C41   C42   S    
C14   C18   S    
C35   C36   S    
C57   C66   S    
C29   H18   S    
C48   H34   S    
C78   H43   S    
O27   C91   S    
C53   C59   A    
C7    C8    A    
C12   O21   A    
C23   O23   A    
C54   H42   S    
C53   C54   A    
C28   H16   S    
C40   C46   S    
C67   C78   A    
C99   H68   S    
Cr5   O8    S    
C43   C88   S    
C41   H28   S    
C28   C29   S    
C97   C98   S    
C46   H36   S    
C5    C6    A    
C93   H61   S    
C87   O15   A    
C59   H41   S    
Cr2   O20   S    
C15   C16   S    
C29   C33   S    
Cr3   O23   S    
Cr6   O10   S    
C76   C83   A    
C8    O28   S    
C32   C33   S    
C73   C74   A    
C23   C26   S    
C35   H20   S    
C92   H58   S    
C3    H21   S    
C42   H29   S    
C7    H53   S    
C21   H8    S    
C14   H9    S    
C19   C20   S    
C27   H14   S    
C8    C9    A    
C88   O17   A    
C99   H69   S    
C98   C99   S    
C19   H55   S    
Cr6   O17   S    
C46   H25   S    
Cr2   O2    S    
C86   O11   A    
C85   O9    A    
C30   C86   S    
C75   C80   A    
C77   H51   S    
C72   C73   A    
C91   C92   S    
C71   H52   S    
C74   C96   S    
C98   H65   S    
C78   C89   A    
Cr6   O19   S    
C21   C22   S    
Cr1   O12   S    
C35   H24   S    
C69   C70   A    
C18   C25   S    
C32   H23   S    
C56   O4    A    
C2    C11   S    
Cr4   O14   S    
C86   O6    A    
C84   O8    A    
C61   H38   S    
C81   C82   T    
C79   H50   S    
C57   C58   A    
C77   C79   A    
C28   H15   S    
C38   C39   T    
C49   H31   S    
C12   C67   S    
C17   C24   T    
C99   H67   S    
C4    H32   S    
C56   O24   A    
C27   C31   S    
C51   C52   T    
C6    H1    S    
C20   C24   S    
C48   H37   S    
Cr3   O4    S    
C79   C80   A    
C97   H64   S    
C32   H13   S    
C84   O7    A    
C80   C81   S    
C93   H62   S    
O28   C97   S    
C45   C52   S    
C58   H40   S    
C25   C26   T    
C49   H33   S    
C1    O20   A    
C33   C37   S    
C22   H7    S    
C95   N2    T    
C30   C37   T    
C90   O13   A    
C60   C61   A    
C92   C93   S    
C2    C89   A    
C75   C76   A    
C28   C31   S    
C5    C9    A    
C62   C63   A    
C1    C39   S    
C47   C48   S    
C60   H39   S    
C7    C13   A    
C16   C20   S    
C88   O16   A    
Cr1   O24   S    
C69   C74   A    
Cr2   O5    S    
C70   H49   S    
C46   C47   S    
C34   C69   S    
C14   O27   S    
C75   H47   S    
C44   C51   S    
C48   C49   S    
C40   H35   S    
C65   C66   T    
Cr4   O6    S    
Cr6   O18   S    
C55   C57   A    
C41   C44   S    
C45   O2    A    
C15   H2    S    
C3    C4    A    
Cr5   O15   S    
Cr4   O13   S    
Cr1   O1    S    
C70   C71   A    
C5    H11   S    
C53   C56   S    
C83   C90   S    
C29   H17   S    
C54   C55   A    
C89   H54   S    
C27   C32   S    
C18   C22   S    
C14   C19   S    
Cr3   O5    S    
C16   H4    S    
C15   H3    S    
C97   H63   S    
Cr3   O3    S    
C4    C67   A    
C43   C50   T    
C91   H56   S    
C40   H26   S    
C47   C50   S    
C22   H6    S    
C31   C38   S    
C62   C68   A    
C60   C64   A    
C17   C84   S    
C10   C11   T    
C64   C65   S    
C41   H27   S    
C2    C3    A    
C58   C59   A    
Cr1   O5    S    
Cr4   O19   S    
C6    C13   A    
C61   C68   A    
C93   H60   S    
C87   O14   A    
Cr2   O21   S    
C63   C95   S    
C90   O18   A    
Cr3   O22   S    
C33   C35   S    
Cr6   O11   S    
Cr1   O25   S    
C9    C10   S    
Cr5   O16   S    
C42   C47   S    
C94   N1    T    
Cr5   O19   S    
C92   H59   S    
C21   H12   S    
C34   O25   A    
Cr2   O26   S    
C42   H30   S    
C63   C64   A    
C19   H10   S    
C16   H5    S    
C40   C44   S    
C71   C72   A    
C20   C21   S    
C1    O12   A    
Cr4   O7    S    
C96   N3    T    
C13   C85   S    
C98   H66   S    
C68   C87   S    
C77   C83   A    
C31   C36   S    
C34   O26   A    
C45   O3    A    
C27   H22   S    
C36   C94   S    
C62   H44   S    
C36   H19   S    
C72   C82   S    
Cr5   O9    S    
C12   O22   A    
C91   H57   S    
C73   H48   S    
C76   H46   S    
