data_mof_unit_22220.cif
_audit_creation_date              2012-12-11T15:15:47-0500
_audit_creation_method            fapswitch 2.2
_symmetry_space_group_name_H-M    P1
_symmetry_Int_Tables_number       1
_space_group_crystal_system       triclinic
_cell_length_a                    18.99397
_cell_length_b                    18.876292
_cell_length_c                    20.366614
_cell_angle_alpha                 107.221307
_cell_angle_beta                  106.469089
_cell_angle_gamma                 111.274276
_cell_volume                      5839.07994901

loop_
_atom_site_label
_atom_site_type_symbol
_atom_type_description
_atom_site_fract_x
_atom_site_fract_y
_atom_site_fract_z
_atom_type_partial_charge
C1    C     C_R   0.090374 0.087225 0.356133 -0.167058
C2    C     C_R   0.232961 0.072526 0.485512 0.257620
C3    C     C_3   0.196464 0.299668 0.041091 -0.959508
C4    C     C_R   0.151651 0.221106 0.710665 -0.147463
C5    C     C_R   0.753413 0.926138 0.480887 -0.139883
C6    C     C_R   0.000421 0.764315 0.431937 -0.118158
C7    C     C_R   0.227372 0.273188 0.714636 0.041222
C8    C     C_R   0.947911 0.709733 0.450954 0.077272
C9    C     C_R   0.232626 0.001462 0.436718 0.016469
C10   C     C_R   0.018120 0.978752 0.725621 0.079627
C11   C     C_R   0.948129 0.579590 0.374908 -0.254921
C12   C     C_R   0.916749 0.617684 0.420805 0.115360
C13   C     C_R   0.741997 0.995899 0.503140 0.080448
C14   C     C_R   0.861346 0.568823 0.443000 -0.257613
C15   C     C_R   0.847751 0.487146 0.429745 0.140140
C16   C     C_R   0.888973 0.453880 0.392683 0.027084
C17   C     C_R   0.840442 0.814855 0.281111 -0.105860
C18   C     C_R   0.935783 0.498480 0.361749 0.141241
C19   C     C_R   0.800723 0.441875 0.459745 -0.201585
C20   C     C_R   0.802414 0.368928 0.460655 -0.204981
C21   C     C_R   0.851641 0.341386 0.432065 0.141424
C22   C     C_R   0.891237 0.381051 0.394131 0.026816
C23   C     C_R   0.940947 0.353809 0.365287 0.140600
C24   C     C_R   0.757978 0.786196 0.271152 0.136704
C25   C     C_R   0.979514 0.393036 0.327044 -0.204750
C26   C     C_R   0.976805 0.465180 0.325156 -0.204607
C27   C     C_R   0.869681 0.281609 0.448308 -0.259158
C28   C     C_R   0.930061 0.264883 0.430570 0.115713
C29   C     C_R   0.954141 0.201276 0.523665 -0.124863
C30   C     C_R   0.959077 0.294714 0.382816 -0.258852
C31   C     C_R   0.285151 0.914486 0.370287 -0.257993
C32   C     C_R   0.288621 0.993904 0.399897 0.136664
C33   C     C_R   0.354985 0.064725 0.406235 -0.272112
C34   C     C_R   0.427642 0.062506 0.407083 0.135809
C35   C     C_R   0.969173 0.224520 0.468314 0.075664
C36   C     C_R   0.429942 0.986127 0.394051 0.038228
C37   C     C_R   0.356362 0.910425 0.369591 0.144678
C38   C     C_R   0.501079 0.137633 0.430811 -0.217740
C39   C     C_R   0.578105 0.138696 0.449684 -0.200894
C40   C     C_R   0.581836 0.064647 0.444968 0.135402
C41   C     C_R   0.760941 0.803065 0.343667 -0.146797
C42   C     C_R   0.507041 0.987174 0.413527 0.019371
C43   C     C_R   0.509716 0.912120 0.407909 0.149136
C44   C     C_R   0.435200 0.835100 0.375426 -0.210935
C45   C     C_R   0.358450 0.834157 0.355876 -0.217702
C46   C     C_R   0.229694 0.229628 0.647944 -0.140572
C47   C     C_R   0.658900 0.067380 0.474780 -0.261138
C48   C     C_R   0.661465 0.993913 0.474397 0.116771
C49   C     C_R   0.586816 0.916172 0.438966 -0.273562
C50   C     C_R   0.281290 0.365204 0.765776 0.140677
C51   C     C_R   0.252290 0.411067 0.808517 -0.182002
C52   C     C_R   0.304142 0.497456 0.857811 -0.161701
C53   C     C_R   0.028835 0.203373 0.456475 -0.136283
C54   C     C_R   0.385975 0.539430 0.865365 0.227458
C55   C     C_R   0.413251 0.495117 0.819592 -0.171723
C56   C     C_R   0.361687 0.408626 0.770653 -0.180202
C57   C     C_R   0.921245 0.756233 0.494454 -0.143211
C58   C     C_R   0.605330 0.685927 0.061812 -0.403333
C59   C     C_R   0.679770 0.718960 0.126948 0.556369
C60   C     C_R   0.614319 0.764448 0.205322 -0.419589
C61   C     C_R   0.541551 0.735301 0.139671 0.554036
C62   C     C_R   0.535996 0.693346 0.067332 0.011657
C63   C     C_2   0.449014 0.624375 0.928274 -0.281273
C64   C     C_2   0.453934 0.644259 0.999038 -0.086551
C65   C     C_R   0.821228 0.067136 0.544886 -0.145009
C66   C     C_R   0.683158 0.755390 0.199948 -0.055376
C67   C     C_R   0.126625 0.024209 0.249635 0.076530
C68   C     C_R   0.163465 0.931949 0.425371 -0.187167
C69   C     C_R   0.126091 0.950595 0.205789 -0.173168
C70   C     C_R   0.164597 0.952225 0.157163 -0.219231
C71   C     C_R   0.204667 0.027480 0.151960 -0.003975
C72   C     C_R   0.218331 0.104363 0.205195 0.590263
C73   C     C_R   0.176579 0.101730 0.251736 -0.336781
C74   C     C_R   0.163152 0.042214 0.927706 0.537436
C75   C     C_R   0.140001 0.033017 0.852142 0.043719
C76   C     C_R   0.004473 0.912054 0.811249 -0.196321
C77   C     C_R   0.021802 0.947134 0.292744 -0.152761
C78   C     C_R   0.032458 0.913220 0.882373 -0.241760
C79   C     C_R   0.031174 0.052812 0.718473 -0.160790
C80   C     C_R   0.110571 0.978764 0.941884 0.007761
C81   C     C_2   0.204039 0.020759 0.078047 -0.157642
C82   C     C_2   0.128177 0.980765 0.018026 -0.187775
C83   C     C_R   0.056142 0.973427 0.796346 0.001985
C84   C     C_R   0.075334 0.020035 0.292598 0.097576
C85   C     C_3   0.278454 0.162534 0.497868 -0.392029
C86   C     C_3   0.367593 0.210958 0.562663 -0.926493
C87   C     C_3   0.781157 0.752638 0.084638 0.150859
C88   C     C_3   0.856410 0.741764 0.081776 -0.236996
C89   C     C_3   0.905955 0.801285 0.055007 -1.056140
C90   C     C_R   0.963129 0.911250 0.653600 -0.126982
C91   C     C_3   0.488955 0.824432 0.172055 0.173636
C92   C     C_3   0.410890 0.827950 0.175536 -0.245640
C93   C     C_3   0.424788 0.918569 0.202605 -1.013261
C94   C     C_3   0.205811 0.084447 0.831945 -0.334375
C95   C     C_3   0.277188 0.062846 0.844288 -0.828876
C96   C     C_3   0.347185 0.209659 0.234682 0.154324
C97   C     C_3   0.387453 0.257043 0.322273 -0.300003
C98   C     C_3   0.483127 0.298275 0.356061 -1.013408
C99   C     C_3   0.217586 0.172560 0.028053 0.200524
C100  C     C_3   0.209502 0.231523 0.991907 -0.370206
H1    H     H_    0.139272 0.152224 0.380404 0.083349
H2    H     H_    0.767343 0.465888 0.486988 0.130170
H3    H     H_    0.706922 0.860331 0.455556 0.085722
H4    H     H_    0.770424 0.337918 0.488696 0.123621
H5    H     H_    0.842301 0.254569 0.480760 0.113724
H6    H     H_    0.002109 0.278810 0.365118 0.119430
H7    H     H_    0.016609 0.371642 0.303427 0.131783
H8    H     H_    0.011745 0.498222 0.299974 0.129610
H9    H     H_    0.232431 0.856662 0.358285 0.116395
H10   H     H_    0.356102 0.124184 0.418271 0.140794
H11   H     H_    0.499974 0.196728 0.440625 0.146318
H12   H     H_    0.870718 0.731392 0.509711 0.088756
H13   H     H_    0.635027 0.198276 0.472300 0.125998
H14   H     H_    0.716459 0.126812 0.498975 0.116213
H15   H     H_    0.863496 0.815762 0.238833 0.132158
H16   H     H_    0.587735 0.858717 0.437195 0.120592
H17   H     H_    0.436654 0.776665 0.369159 0.135650
H18   H     H_    0.301839 0.775213 0.335796 0.131341
H19   H     H_    0.189877 0.380764 0.804665 0.112637
H20   H     H_    0.616091 0.793387 0.260660 0.163103
H21   H     H_    0.399761 0.610099 0.007109 0.152841
H22   H     H_    0.476511 0.526299 0.825081 0.111016
H23   H     H_    0.134356 0.867507 0.382057 0.103267
H24   H     H_    0.600341 0.649110 0.007011 0.165315
H25   H     H_    0.385986 0.375426 0.738552 0.116980
H26   H     H_    0.915787 0.213780 0.550095 0.086885
H27   H     H_    0.503715 0.659874 0.921378 0.140485
H28   H     H_    0.281023 0.530738 0.891423 0.115091
H29   H     H_    0.092037 0.890230 0.204997 0.126380
H30   H     H_    0.940921 0.864674 0.768566 0.135976
H31   H     H_    0.073069 0.948230 0.025975 0.151550
H32   H     H_    0.180474 0.160063 0.286580 0.142181
H33   H     H_    0.707472 0.784757 0.355919 0.099795
H34   H     H_    0.070248 0.116967 0.763686 0.098567
H35   H     H_    0.261962 0.055105 0.075324 0.177124
H36   H     H_    0.154978 0.892899 0.117375 0.148317
H37   H     H_    0.990562 0.864930 0.892171 0.147041
H38   H     H_    0.055581 0.211948 0.417440 0.099143
H39   H     H_    0.835522 0.130708 0.579203 0.088801
H40   H     H_    0.007207 0.883167 0.259160 0.086878
H41   H     H_    0.272268 0.259900 0.627553 0.114971
H42   H     H_    0.365978 0.210236 0.616518 0.259098
H43   H     H_    0.406415 0.182249 0.549370 0.267941
H44   H     H_    0.398218 0.277886 0.572000 0.250746
H45   H     H_    0.940504 0.844554 0.638341 0.100868
H46   H     H_    0.277270 0.165552 0.444276 0.167815
H47   H     H_    0.242572 0.194763 0.511251 0.179037
H48   H     H_    0.803376 0.821363 0.118535 0.095261
H49   H     H_    0.735864 0.730729 0.024992 0.099892
H50   H     H_    0.899004 0.755180 0.139394 0.187641
H51   H     H_    0.833690 0.674947 0.041972 0.200576
H52   H     H_    0.864975 0.788634 0.997043 0.269641
H53   H     H_    0.959309 0.790952 0.052621 0.270683
H54   H     H_    0.931625 0.868592 0.095543 0.276363
H55   H     H_    0.504164 0.849796 0.131966 0.097862
H56   H     H_    0.122576 0.239217 0.746306 0.089774
H57   H     H_    0.542145 0.865251 0.230488 0.106216
H58   H     H_    0.356745 0.787156 0.117844 0.199721
H59   H     H_    0.395316 0.803044 0.215518 0.213486
H60   H     H_    0.479925 0.961076 0.259401 0.272024
H61   H     H_    0.368343 0.919396 0.207635 0.273898
H62   H     H_    0.435590 0.942895 0.160953 0.266749
H63   H     H_    0.312945 0.081548 0.905632 0.282734
H64   H     H_    0.251594 0.993603 0.810564 0.247937
H65   H     H_    0.321396 0.097715 0.824948 0.238604
H66   H     H_    0.179290 0.071130 0.771032 0.197666
H67   H     H_    0.023480 0.747974 0.390156 0.084710
H68   H     H_    0.231931 0.153392 0.866423 0.192783
H69   H     H_    0.375194 0.254756 0.212897 0.134768
H70   H     H_    0.363004 0.157930 0.216193 0.087728
H71   H     H_    0.369592 0.307071 0.339732 0.211406
H72   H     H_    0.364096 0.211953 0.345657 0.181771
H73   H     H_    0.502443 0.249416 0.338981 0.271889
H74   H     H_    0.510386 0.330545 0.419464 0.263912
H75   H     H_    0.508360 0.346235 0.335925 0.271110
H76   H     H_    0.270815 0.212271 0.086057 0.162727
H77   H     H_    0.160275 0.142025 0.036015 0.116891
H78   H     H_    0.988243 0.614807 0.354605 0.116030
H79   H     H_    0.267652 0.263048 0.985777 0.217555
H80   H     H_    0.154962 0.194061 0.934440 0.187394
H81   H     H_    0.138012 0.269846 0.047317 0.265602
H82   H     H_    0.190722 0.341221 0.013439 0.264934
H83   H     H_    0.250820 0.339433 0.098658 0.268935
H84   H     H_    0.834010 0.595958 0.475939 0.117351
N1    N     N_R   0.052580 0.056040 0.395500 -0.040423
N2    N     N_R   0.890210 0.849400 0.355780 -0.051096
N3    N     N_R   0.997110 0.161140 0.539580 -0.039018
N4    N     N_R   0.841950 0.845400 0.395490 -0.042253
N5    N     N_R   0.045360 0.165140 0.499870 -0.042507
N6    N     N_R   0.877490 0.041510 0.539580 -0.036938
N7    N     N_R   0.009820 0.969030 0.355780 -0.039949
N8    N     N_R   0.158050 0.154600 0.604510 -0.040179
N9    N     N_R   0.954640 0.834860 0.500130 -0.039720
N10   N     N_R   0.122510 0.958490 0.460420 -0.050959
N11   N     N_R   0.990180 0.030970 0.644220 -0.037377
N12   N     N_R   0.947420 0.943960 0.604500 -0.041332
N13   N     N_R   0.165270 0.045500 0.500140 -0.068835
N14   N     N_R   0.109790 0.150600 0.644220 -0.037381
N15   N     N_R   0.002890 0.838860 0.460420 -0.037934
N16   N     N_R   0.834730 0.954500 0.499860 -0.037603
Ni1   Ni    Ni4+2 0.104370 0.104380 0.500010 0.201060
Ni2   Ni    Ni4+2 0.895630 0.895620 0.499990 0.212611
Ni3   Ni    Ni4+2 0.006300 0.904810 0.408930 0.202508
Ni4   Ni    Ni4+2 0.993700 0.095190 0.591070 0.212565
O1    O     O_3   0.744035 0.704440 0.118995 -0.665175
O2    O     O_3   0.472300 0.739267 0.146169 -0.668200
O3    O     O_3   0.259545 0.180424 0.203221 -0.688230
O4    O     O_3   0.236661 0.113368 0.986086 -0.686864

loop_
_geom_bond_atom_site_label_1
_geom_bond_atom_site_label_2
_ccdc_geom_bond_type
C45   H18   S    
C58   C62   A    
C40   C47   A    
N15   Ni3   S    
C55   C56   A    
C5    H3    S    
C11   C18   A    
C35   C53   A    
C2    N13   A    
C36   C42   A    
C19   C20   A    
C18   C26   A    
C77   H40   S    
C87   C88   S    
C75   C83   A    
C14   H84   S    
C94   H66   S    
C41   H33   S    
C97   C98   S    
C52   H28   S    
C86   H44   S    
C74   O4    S    
C85   C86   S    
C1    C84   A    
C15   C19   A    
C86   H42   S    
C97   H72   S    
C92   H59   S    
C63   H27   S    
C93   H62   S    
C91   H57   S    
C36   C37   A    
C76   C78   A    
C99   H77   S    
C90   H45   S    
C69   C70   A    
C59   C66   A    
C38   C39   A    
C98   H74   S    
C19   H2    S    
C78   C80   A    
N10   N13   A    
C54   C63   S    
C27   H5    S    
C64   H21   S    
C10   C83   S    
C79   N11   A    
C68   H23   S    
C2    C85   S    
C92   H58   S    
N1    Ni1   S    
C87   O1    S    
C62   C64   S    
C9    C32   S    
C54   C55   A    
C76   H30   S    
C3    C100  S    
C89   H52   S    
C99   H76   S    
C47   C48   A    
C28   C35   S    
C39   H13   S    
C51   H19   S    
N8    Ni1   S    
C53   N5    A    
N13   Ni1   S    
C70   C71   A    
C67   C73   A    
N8    N14   A    
C5    N16   A    
C5    C13   A    
C24   C66   S    
C61   O2    S    
C59   O1    S    
C40   C42   A    
C21   C27   A    
C73   H32   S    
C60   C66   A    
C67   C84   S    
C63   C64   D    
C74   C80   A    
C29   H26   S    
C30   H6    S    
C70   H36   S    
C24   C41   A    
N1    N7    A    
C94   C95   S    
N7    Ni3   S    
C4    C7    A    
C95   H65   S    
C76   C83   A    
C65   N6    A    
C52   C54   A    
C86   H43   S    
C81   H35   S    
C72   O3    S    
C31   C37   A    
C17   C24   A    
N3    N5    A    
C87   H48   S    
C47   H14   S    
N6    N16   A    
C53   H38   S    
C77   N7    A    
C7    C46   A    
C85   H46   S    
C80   C82   S    
C74   C75   A    
C94   H68   S    
C91   C92   S    
C98   H73   S    
C10   C79   A    
C43   C49   A    
C96   O3    S    
C13   C65   A    
N11   Ni4   S    
C77   C84   A    
N5    Ni1   S    
C25   C26   A    
N9    N15   A    
N3    Ni4   S    
C81   C82   D    
N9    Ni2   S    
C51   C52   A    
C41   N4    A    
C57   N9    A    
C60   C61   A    
C67   C69   A    
C65   H39   S    
C93   H60   S    
C43   C44   A    
C23   C30   A    
C91   H55   S    
C95   H63   S    
C8    C57   A    
C89   H53   S    
C31   C32   A    
C14   C15   A    
C93   H61   S    
C17   N2    A    
C8    C12   S    
C96   C97   S    
C50   C51   A    
C31   H9    S    
C11   H78   S    
C4    N14   A    
C56   H25   S    
C88   C89   S    
C3    H81   S    
C68   N10   A    
C75   C94   S    
N16   Ni2   S    
C48   C49   A    
C4    H56   S    
C12   C14   A    
C96   H69   S    
N14   Ni4   S    
C88   H51   S    
C42   C43   A    
N2    N4    A    
C100  H80   S    
C78   H37   S    
C1    H1    S    
C39   C40   A    
C91   O2    S    
C44   C45   A    
C17   H15   S    
C79   H34   S    
C6    H67   S    
C16   C22   A    
C34   C38   A    
C88   H50   S    
C82   H31   S    
C85   H47   S    
C7    C50   S    
C46   N8    A    
C72   C73   A    
C13   C48   S    
C6    C8    A    
C11   C12   A    
C20   H4    S    
C1    N1    A    
C29   C35   A    
C58   H24   S    
C97   H71   S    
C99   C100  S    
C99   O4    S    
C32   C33   A    
C28   C30   A    
C58   C59   A    
C9    C68   A    
C71   C72   A    
C46   H41   S    
C95   H64   S    
C98   H75   S    
C2    C9    A    
N6    Ni4   S    
C89   H54   S    
C6    N15   A    
C3    H83   S    
C44   H17   S    
C69   H29   S    
N10   Ni3   S    
N4    Ni2   S    
C92   C93   S    
C33   C34   A    
N2    Ni3   S    
C60   H20   S    
C34   C36   A    
C23   C25   A    
C61   C62   A    
C3    H82   S    
C50   C56   A    
C55   H22   S    
N11   N12   A    
C57   H12   S    
C29   N3    A    
C49   H16   S    
C90   N12   A    
C20   C21   A    
C10   C90   A    
C16   C18   A    
C87   H49   S    
C27   C28   A    
C22   C23   A    
C96   H70   S    
C33   H10   S    
C38   H11   S    
C21   C22   A    
C100  H79   S    
C37   C45   A    
C25   H7    S    
C26   H8    S    
C15   C16   A    
N12   Ni2   S    
C71   C81   S    
