data_mof_unit_16295.cif
_audit_creation_date              2013-03-05T16:06:15-0500
_audit_creation_method            fapswitch 2.2
_symmetry_space_group_name_H-M    P1
_symmetry_Int_Tables_number       1
_space_group_crystal_system       triclinic
_cell_length_a                    10.817232
_cell_length_b                    9.509232
_cell_length_c                    27.791851
_cell_angle_alpha                 90.00031
_cell_angle_beta                  90.158948
_cell_angle_gamma                 89.999713
_cell_volume                      2858.75797364

loop_
_atom_site_label
_atom_site_type_symbol
_atom_site_description
_atom_site_fract_x
_atom_site_fract_y
_atom_site_fract_z
_atom_type_partial_charge
O1    O     O_R   0.319640 0.618740 0.500000 -0.587876
O2    O     O_R   0.680360 0.381260 0.500000 -0.587771
O3    O     O_R   0.680360 0.618740 0.500000 -0.587884
O4    O     O_R   0.319640 0.381260 0.500000 -0.587777
C1    C     C_R   0.262048 0.500000 0.499967 0.796984
C2    C     C_R   0.737952 0.500000 0.500033 0.796984
O5    O     O_R   0.500020 0.618770 0.430260 -0.584023
O6    O     O_R   0.499980 0.381230 0.569740 -0.583424
O7    O     O_R   0.499980 0.618770 0.569740 -0.584021
O8    O     O_R   0.500020 0.381230 0.430260 -0.583417
C3    C     C_R   0.499834 0.500012 0.407382 0.805635
C4    C     C_R   0.500166 0.500013 0.592618 0.805637
Cu1   Cu    Cu3+1 0.500000 0.640660 0.500000 0.949076
Cu2   Cu    Cu3+1 0.500000 0.359340 0.500000 0.949794
C5    C     C_R   0.388769 0.479491 0.177800 0.563998
C6    C     C_R   0.611233 0.479472 0.822199 0.564005
O9    O     O_2   0.284971 0.459724 0.203513 -0.484986
O10   O     O_2   0.715025 0.459671 0.796484 -0.484972
N1    N     N_R   0.497611 0.501243 0.201835 -0.476465
N2    N     N_R   0.502395 0.501249 0.798164 -0.476479
C7    C     C_R   0.605740 0.524813 0.178020 0.554535
C8    C     C_R   0.394270 0.524841 0.821978 0.554543
C9    C     C_R   0.508948 0.627480 0.278722 -0.096570
C10   C     C_R   0.511993 0.373723 0.721456 -0.094057
C11   C     C_R   0.509279 0.627374 0.328891 -0.209921
C12   C     C_R   0.511151 0.373219 0.671268 -0.209073
C13   C     C_R   0.488680 0.373237 0.328733 -0.209084
C14   C     C_R   0.490896 0.627398 0.671110 -0.209893
C15   C     C_R   0.487840 0.373741 0.278544 -0.094031
C16   C     C_R   0.491230 0.627505 0.721279 -0.096596
C17   C     C_R   0.498151 0.500776 0.253430 0.351604
C18   C     C_R   0.501855 0.500780 0.746570 0.351670
C19   C     C_R   0.497182 0.505696 0.101794 -0.082034
C20   C     C_R   0.502825 0.505699 0.898205 -0.082032
C21   C     C_R   0.385364 0.480136 0.126898 -0.067647
C22   C     C_R   0.614641 0.480122 0.873101 -0.067656
C23   C     C_R   0.276140 0.454871 0.099952 0.194176
C24   C     C_R   0.723863 0.454844 0.900046 0.194174
C25   C     C_R   0.607680 0.527508 0.127676 -0.037126
C26   C     C_R   0.392329 0.527532 0.872323 -0.037130
C27   C     C_R   0.499331 0.500159 0.354379 -0.042041
C28   C     C_R   0.500671 0.500161 0.645622 -0.042043
H1    H     H_    0.480608 0.273687 0.347391 0.156625
H2    H     H_    0.482671 0.726788 0.652345 0.158887
H3    H     H_    0.479533 0.275484 0.259109 0.142075
H4    H     H_    0.483582 0.726041 0.740575 0.141098
C29   C     C_R   0.386986 0.521729 0.974098 0.066026
C30   C     C_R   0.613022 0.521712 0.025901 0.066026
C31   C     C_R   0.613362 0.500887 0.975224 0.028795
C32   C     C_R   0.386645 0.500902 0.024775 0.028795
C33   C     C_R   0.501039 0.509577 0.949253 0.014004
C34   C     C_R   0.498968 0.509575 0.050746 0.014002
C35   C     C_R   0.278965 0.555691 0.947187 0.125575
C36   C     C_R   0.721047 0.555657 0.052812 0.125575
C37   C     C_R   0.282616 0.555536 0.896985 -0.169967
C38   C     C_R   0.717396 0.555498 0.103014 -0.169965
O11   O     O_2   0.288758 0.545144 0.796860 -0.514932
O12   O     O_2   0.711258 0.545086 0.203138 -0.514944
C39   C     C_R   0.278705 0.464377 0.049956 -0.189627
C40   C     C_R   0.721298 0.464349 0.950043 -0.189629
H5    H     H_    0.519084 0.273651 0.652610 0.156642
H6    H     H_    0.517642 0.726747 0.347656 0.158905
H7    H     H_    0.520164 0.275451 0.740892 0.142037
H8    H     H_    0.516731 0.726000 0.259427 0.141136
H9    H     H_    0.198594 0.580223 0.877390 0.206978
H10   H     H_    0.801420 0.580172 0.122610 0.206985
H11   H     H_    0.195572 0.434897 0.030979 0.187329
H12   H     H_    0.804429 0.434858 0.969019 0.187331
C41   C     C_R   0.063895 0.372163 0.499973 -0.173906
C42   C     C_R   0.936105 0.627838 0.500026 -0.174132
C43   C     C_R   0.936106 0.372162 0.500027 -0.173903
C44   C     C_R   0.063894 0.627838 0.499974 -0.174129
H13   H     H_    0.111998 0.272243 0.499947 0.150541
H14   H     H_    0.888002 0.727757 0.500051 0.150504
H15   H     H_    0.888004 0.272243 0.500053 0.150541
H16   H     H_    0.111996 0.727758 0.499948 0.150504
C45   C     C_R   0.871770 0.500000 0.500040 -0.019270
C46   C     C_R   0.128230 0.500000 0.499960 -0.019271
C47   C     C_R   0.422779 0.074452 0.470198 -0.023217
C48   C     C_R   0.577223 0.925549 0.529801 -0.023844
C49   C     C_R   0.577221 0.074452 0.529802 -0.023224
C50   C     C_R   0.422777 0.925549 0.470199 -0.023839
H17   H     H_    0.360955 0.130646 0.446333 0.119983
H18   H     H_    0.639053 0.869357 0.553663 0.121267
H19   H     H_    0.639044 0.130646 0.553667 0.119997
H20   H     H_    0.360947 0.869357 0.446337 0.121277
N3    N     N_R   0.500000 0.852070 0.500000 -0.157994
N4    N     N_R   0.500000 0.147930 0.500000 -0.157495
I1    I     I_    0.099636 0.397812 0.128216 -0.279525
I2    I     I_    0.900365 0.397775 0.871782 -0.279509
N5    N     N_3   0.168450 0.604820 0.970087 -0.597276
H21   H     H_    0.150816 0.707237 0.958208 0.242957
H22   H     H_    0.094881 0.541301 0.958862 0.237367
N6    N     N_3   0.831565 0.604775 0.029912 -0.597277
H23   H     H_    0.849209 0.707189 0.041793 0.242960
H24   H     H_    0.905129 0.541245 0.041136 0.237366

loop_
_geom_bond_atom_site_label_1
_geom_bond_atom_site_label_2
_geom_bond_distance
_ccdc_geom_bond_type
C47   H17   1.081770 S    
C13   C15   1.394841 A    
C44   H16   1.083309 S    
O3    C2    1.289586 A    
N1    C17   1.433912 S    
C8    O11   1.350132 S    
C19   C34   1.419389 A    
C30   C36   1.422742 A    
C20   C33   1.419388 A    
C19   C25   1.408673 A    
C31   C40   1.406493 A    
O1    C1    1.289589 A    
C32   C39   1.406494 A    
N1    C7    1.364074 A    
C12   H5    1.083024 S    
C10   C12   1.394838 A    
C48   N3    1.366798 A    
C50   N3    1.366802 A    
C14   C28   1.406158 A    
C41   C43   1.382323 A    
O7    Cu1   1.949351 S    
C4    C28   1.473080 S    
C39   H11   1.078335 S    
C5    N1    1.367778 A    
C31   C33   1.413928 A    
C42   H14   1.083309 S    
C32   C34   1.413928 A    
C41   H13   1.083309 S    
O3    Cu1   1.962098 S    
O6    C4    1.296181 A    
C29   C35   1.422745 A    
Cu1   Cu2   2.675137 S    
C42   C45   1.400751 A    
C41   C46   1.400751 A    
O2    C2    1.289588 A    
C5    C21   1.415049 A    
C47   N4    1.366799 A    
C37   H9    1.083984 S    
C29   C32   1.422279 A    
C35   C37   1.395859 A    
C36   C38   1.395859 A    
C43   H15   1.083308 S    
C48   H18   1.081756 S    
O8    Cu2   1.949351 S    
C11   C27   1.406130 A    
N5    H21   1.045718 S    
C48   C49   1.415948 A    
C2    C45   1.447540 S    
C29   C33   1.420189 A    
C50   H20   1.081755 S    
C14   H2    1.083009 S    
C15   H3    1.082852 S    
C9    C17   1.399620 A    
O5    C3    1.295976 A    
C10   C18   1.399772 A    
C35   N5    1.434113 S    
N5    H22   1.045997 S    
C13   C27   1.406240 A    
C25   C38   1.397750 A    
C7    C25   1.399615 A    
C30   C34   1.420189 A    
C6    N2    1.367770 A    
C26   C37   1.397747 A    
C8    C26   1.399616 A    
Cu1   N3    2.010347 S    
N6    H24   1.045996 S    
C23   C39   1.392781 A    
C24   C40   1.392782 A    
C9    H8    1.082873 S    
N2    C8    1.364065 A    
C10   H7    1.082871 S    
C20   C26   1.408676 A    
O1    Cu1   1.962100 S    
C43   C45   1.400750 A    
C12   C28   1.406269 A    
N2    C18   1.433893 S    
C5    O9    1.345800 S    
C30   C31   1.422280 A    
O6    Cu2   1.949349 S    
C21   C23   1.417593 A    
C16   H4    1.082891 S    
O4    C1    1.289587 A    
C47   C50   1.415947 A    
C24   I2    2.136617 S    
C23   I1    2.136616 S    
C14   C16   1.394270 A    
Cu2   N4    2.010348 S    
C7    O12   1.350133 S    
C15   C17   1.399760 A    
C6    C22   1.415049 A    
C16   C18   1.399631 A    
C38   H10   1.083983 S    
C22   C24   1.417592 A    
C19   C21   1.419004 A    
C3    C27   1.473072 S    
C20   C22   1.419008 A    
C11   H6    1.082992 S    
C9    C11   1.394271 A    
O4    Cu2   1.962098 S    
N6    H23   1.045719 S    
O2    Cu2   1.962100 S    
O7    C4    1.295977 A    
C36   N6    1.434113 S    
C49   N4    1.366796 A    
O8    C3    1.296180 A    
C13   H1    1.083005 S    
O5    Cu1   1.949349 S    
C40   H12   1.078334 S    
C6    O10   1.345799 S    
C44   C46   1.400750 A    
C42   C44   1.382323 A    
C1    C46   1.447540 S    
C49   H19   1.081770 S    
