data_mof_unit_22208.cif
_audit_creation_date              2012-12-10T19:01:19-0500
_audit_creation_method            fapswitch 2.2
_symmetry_space_group_name_H-M    P1
_symmetry_Int_Tables_number       1
_space_group_crystal_system       triclinic
_cell_length_a                    9.555936
_cell_length_b                    10.848235
_cell_length_c                    15.494704
_cell_angle_alpha                 89.70779
_cell_angle_beta                  74.291913
_cell_angle_gamma                 90.755486
_cell_volume                      1546.07388036

loop_
_atom_site_label
_atom_site_type_symbol
_atom_type_description
_atom_site_fract_x
_atom_site_fract_y
_atom_site_fract_z
_atom_type_partial_charge
C1    C     C_R   0.998015 0.262488 0.502426 0.802233
C2    C     C_R   0.669280 0.470735 0.905654 0.093985
C3    C     C_R   0.767469 0.428264 0.952955 0.159400
C4    C     C_R   0.518584 0.480712 0.950755 0.062891
C5    C     C_R   0.470449 0.457735 0.044858 0.072289
C6    C     C_R   0.572272 0.414625 0.089186 -0.150218
C7    C     C_R   0.717452 0.399794 0.043810 -0.227395
C8    C     C_R   0.414122 0.510695 0.904610 -0.219033
C9    C     C_R   0.269147 0.526057 0.949782 -0.238896
C10   C     C_R   0.222282 0.512702 0.042445 0.157738
C11   C     C_R   0.321984 0.478431 0.091215 0.102761
C12   C     C_R   0.918104 0.497865 0.672062 0.797612
C13   C     C_R   0.076289 0.534694 0.086995 -0.206516
C14   C     C_R   0.028372 0.526983 0.180000 -0.184827
C15   C     C_R   0.270291 0.470910 0.185144 -0.238346
C16   C     C_R   0.111395 0.066202 0.523428 0.126319
C17   C     C_R   0.991361 0.129693 0.512785 -0.100479
C18   C     C_R   0.863418 0.062795 0.515290 -0.214462
C19   C     C_R   0.864963 0.934158 0.514683 -0.210964
C20   C     C_R   0.994517 0.871281 0.511277 -0.100188
C21   C     C_R   0.113264 0.939263 0.522817 0.132516
C22   C     C_3   0.270066 0.938994 0.471704 -0.494059
C23   C     C_R   0.999721 0.737900 0.501763 0.797572
C24   C     C_3   0.267481 0.078519 0.472815 -0.446223
C25   C     C_R   0.607281 0.539097 0.426214 0.232063
C26   C     C_R   0.543076 0.449208 0.569002 -0.081877
C27   C     C_R   0.394358 0.449517 0.569118 -0.081351
C28   C     C_R   0.459830 0.538649 0.425700 0.213088
C29   C     C_3   0.477616 0.664815 0.384391 -0.258641
C30   C     C_3   0.636964 0.663425 0.384177 -0.460763
C31   C     C_R   0.081694 0.498918 0.327919 0.789289
C32   C     C_R   0.871931 0.483549 0.769911 -0.047421
C33   C     C_R   0.126146 0.497784 0.229561 -0.072934
C34   C     C_R   0.915127 0.413560 0.908592 -0.213444
C35   C     C_R   0.967043 0.440436 0.817426 -0.198781
C36   C     C_R   0.725922 0.502209 0.814650 -0.247003
Cu1   Cu    Cu3+1 0.140670 0.499980 0.500000 0.933596
Cu2   Cu    Cu3+1 0.859330 0.500020 0.500000 0.939823
H1    H     H_    0.791421 0.366218 0.080429 0.148039
H2    H     H_    0.999775 0.560717 0.049984 0.153739
H3    H     H_    0.764864 0.109103 0.512751 0.166148
H4    H     H_    0.766864 0.884939 0.512320 0.159345
H5    H     H_    0.339157 0.901424 0.512614 0.195857
H6    H     H_    0.287622 0.900910 0.403159 0.191109
H7    H     H_    0.334417 0.119949 0.514059 0.196813
H8    H     H_    0.283491 0.120706 0.405186 0.202068
H9    H     H_    0.572661 0.409409 0.625579 0.140321
H10   H     H_    0.313373 0.410341 0.625742 0.134498
H11   H     H_    0.340909 0.448088 0.226089 0.157212
H12   H     H_    0.414880 0.732717 0.431177 0.142459
H13   H     H_    0.716942 0.660195 0.317270 0.221506
H14   H     H_    0.663488 0.732897 0.429915 0.185562
H15   H     H_    0.916018 0.546934 0.213068 0.164483
H16   H     H_    0.193488 0.550678 0.911773 0.150410
H17   H     H_    0.989921 0.378858 0.944135 0.141222
H18   H     H_    0.080320 0.424567 0.783815 0.144855
H19   H     H_    0.658905 0.541853 0.776400 0.146323
H20   H     H_    0.543400 0.388617 0.158955 0.146677
H21   H     H_    0.439681 0.520879 0.832874 0.137776
N1    N     N_R   0.648210 0.500930 0.499430 -0.184629
N2    N     N_R   0.352300 0.500890 0.499430 -0.195136
O1    O     O_R   0.118810 0.319640 0.500000 -0.578830
O2    O     O_R   0.881230 0.319680 0.499990 -0.582046
O3    O     O_R   0.055580 0.499970 0.629840 -0.587080
O4    O     O_R   0.818000 0.500010 0.629830 -0.590289
O5    O     O_R   0.118770 0.680320 0.500010 -0.583414
O6    O     O_R   0.881190 0.680360 0.500000 -0.584378
O7    O     O_R   0.182000 0.499990 0.370170 -0.599371
O8    O     O_R   0.944420 0.500030 0.370160 -0.577612
C37   C     C_2   0.449018 0.669163 0.293445 0.397140
H22   H     H_    0.340479 0.689746 0.288961 0.080867
O9    O     O_2   0.544823 0.650747 0.224704 -0.560996

loop_
_geom_bond_atom_site_label_1
_geom_bond_atom_site_label_2
_ccdc_geom_bond_type
C27   H10   S    
C8    C9    A    
C30   H13   S    
C16   C21   A    
C6    H20   S    
C19   C20   A    
C4    C8    A    
C1    O1    A    
C14   C33   A    
Cu1   O1    S    
C25   C28   A    
C26   C27   A    
C29   C30   S    
C24   H7    S    
C32   C36   A    
C23   O5    A    
C28   C29   S    
C5    C11   A    
C3    C7    A    
C8    H21   S    
C5    C6    A    
C12   O3    A    
Cu1   O7    S    
C34   C35   A    
C23   O6    A    
C13   H2    S    
C27   N2    A    
Cu2   O2    S    
C11   C15   A    
C22   H6    S    
C16   C17   A    
C31   C33   S    
C37   H22   S    
C25   N1    A    
C9    C10   A    
C19   H4    S    
C28   N2    A    
Cu2   O8    S    
C34   H17   S    
C16   C24   S    
C13   C14   A    
C12   C32   S    
C1    O2    A    
C29   H12   S    
C31   O7    A    
C32   C35   A    
C36   H19   S    
C18   H3    S    
C18   C19   A    
C3    C34   A    
C20   C23   S    
C2    C4    A    
Cu1   Cu2   S    
C22   H5    S    
Cu2   O4    S    
Cu1   O5    S    
C17   C18   A    
Cu2   O6    S    
C26   H9    S    
Cu2   N1    S    
C22   C24   S    
Cu1   O3    S    
C29   C37   S    
C2    C36   A    
C25   C30   S    
C30   H14   S    
C35   H18   S    
C4    C5    A    
C10   C13   A    
Cu1   N2    S    
C6    C7    A    
C12   O4    A    
C1    C17   S    
C24   H8    S    
C2    C3    A    
C15   H11   S    
C10   C11   A    
C31   O8    A    
C14   H15   S    
C20   C21   A    
C7    H1    S    
C37   O9    D    
C9    H16   S    
C21   C22   S    
C26   N1    A    
C15   C33   A    
