data_mof_unit_44992.cif
_audit_creation_date              2012-12-10T17:37:19-0500
_audit_creation_method            fapswitch 2.2
_symmetry_space_group_name_H-M    P1
_symmetry_Int_Tables_number       1
_space_group_crystal_system       triclinic
_cell_length_a                    12.342341
_cell_length_b                    13.124238
_cell_length_c                    15.835239
_cell_angle_alpha                 78.170125
_cell_angle_beta                  101.234984
_cell_angle_gamma                 116.584954
_cell_volume                      2229.50800899

loop_
_atom_site_label
_atom_site_type_symbol
_atom_type_description
_atom_site_fract_x
_atom_site_fract_y
_atom_site_fract_z
_atom_type_partial_charge
C1    C     C_R   0.854837 0.285981 0.510900 0.875077
C2    C     C_3   0.000025 0.499605 0.917414 0.188554
C3    C     C_3   0.116687 0.550574 0.036749 -0.169922
C4    C     C_3   0.001665 0.500195 0.082963 0.187927
C5    C     C_3   0.053946 0.608694 0.961479 -0.158197
C6    C     C_3   0.938939 0.558302 0.009245 -0.151580
C7    C     C_1   0.999189 0.499570 0.825489 -0.076390
C8    C     C_1   0.002152 0.500705 0.174721 -0.063197
C9    C     C_R   0.284650 0.013034 0.371143 -0.166670
C10   C     C_R   0.228103 0.834722 0.468692 -0.045292
C11   C     C_R   0.807787 0.089984 0.591910 0.254605
C12   C     C_R   0.999676 0.500008 0.659959 0.803110
C13   C     C_R   0.725678 0.976384 0.612613 -0.202382
C14   C     C_R   0.606107 0.936710 0.573908 -0.205689
C15   C     C_R   0.566011 0.008354 0.509309 0.035645
C16   C     C_R   0.654428 0.117179 0.476500 -0.053295
C17   C     C_R   0.441195 0.974220 0.475116 0.084320
C18   C     C_R   0.407614 0.045167 0.405172 0.086932
C19   C     C_R   0.497530 0.143304 0.366052 -0.258741
C20   C     C_R   0.619977 0.176241 0.398006 0.375106
C21   C     C_R   0.348369 0.870929 0.507797 -0.225996
C22   C     C_R   0.195199 0.907691 0.402379 -0.193257
C23   C     C_R   0.145039 0.713546 0.487407 0.778371
C24   C     C_R   0.773367 0.161949 0.523333 -0.121516
C25   C     C_R   0.341977 0.321419 0.630838 -0.304388
C26   C     C_R   0.760818 0.644209 0.382698 0.056794
C27   C     C_R   0.660888 0.668321 0.349899 -0.312430
C28   C     C_R   0.551760 0.608486 0.387601 0.266561
C29   C     C_R   0.546674 0.529169 0.465118 -0.046898
C30   C     C_R   0.650843 0.503768 0.493293 0.246728
C31   C     C_R   0.443606 0.471711 0.514944 -0.031355
C32   C     C_R   0.442231 0.382527 0.583491 0.172265
C33   C     C_R   0.541981 0.356198 0.606242 -0.282781
C34   C     C_R   0.001178 0.501155 0.339988 0.877380
C35   C     C_R   0.644960 0.417640 0.563945 -0.162206
C36   C     C_R   0.342998 0.500335 0.502844 0.035305
C37   C     C_R   0.243731 0.349954 0.611959 0.075175
C38   C     C_3   0.947766 0.391088 0.038936 -0.140127
C39   C     C_3   0.885030 0.449205 0.963666 -0.154296
C40   C     C_1   0.999015 0.499772 0.749747 -0.182330
C41   C     C_1   0.002012 0.501072 0.250301 -0.129771
C42   C     C_3   0.062775 0.441475 0.991131 -0.164215
Cu1   Cu    Cu3+1 0.098270 0.475420 0.519690 0.955314
Cu2   Cu    Cu3+1 0.901730 0.524580 0.480310 0.958994
H1    H     H_    0.789964 0.407590 0.932291 0.131836
H2    H     H_    0.366795 0.814093 0.562018 0.138437
H3    H     H_    0.547850 0.848905 0.595993 0.140082
H4    H     H_    0.752552 0.920273 0.663566 0.139989
H5    H     H_    0.165648 0.302555 0.647586 0.149818
H6    H     H_    0.542021 0.289228 0.659342 0.149051
H7    H     H_    0.339887 0.252263 0.682429 0.136183
H8    H     H_    0.340072 0.573211 0.458845 0.182474
H9    H     H_    0.842816 0.688674 0.350798 0.133905
H10   H     H_    0.904243 0.301806 0.072159 0.142395
H11   H     H_    0.666477 0.730078 0.291955 0.144837
H12   H     H_    0.718185 0.393941 0.588943 0.197012
H13   H     H_    0.888124 0.606248 0.018077 0.131811
H14   H     H_    0.097469 0.698000 0.928299 0.129421
H15   H     H_    0.211719 0.592087 0.068235 0.129657
H16   H     H_    0.113566 0.393513 0.982285 0.130672
H17   H     H_    0.102163 0.880412 0.371261 0.140896
H18   H     H_    0.472970 0.191647 0.307470 0.174565
H19   H     H_    0.258544 0.066890 0.317565 0.133582
N1    N     N_R   0.246280 0.438200 0.549540 -0.192191
N2    N     N_R   0.754330 0.561180 0.450980 -0.196924
O1    O     O_R   0.972510 0.318130 0.524770 -0.545961
O2    O     O_R   0.806530 0.359650 0.491510 -0.575250
O3    O     O_R   0.082970 0.479240 0.637550 -0.573570
O4    O     O_R   0.916990 0.520750 0.604290 -0.598970
O5    O     O_R   0.193470 0.640350 0.508490 -0.592592
O6    O     O_R   0.027490 0.681870 0.475230 -0.593162
O7    O     O_R   0.083010 0.479250 0.395710 -0.583364
O8    O     O_R   0.917030 0.520760 0.362450 -0.545407
N3    N     N_2   0.922426 0.132915 0.644163 -0.424443
H20   H     H_    0.961656 0.075599 0.660636 0.243198
C43   C     C_3   0.920267 0.178635 0.719294 -0.699768
H21   H     H_    0.013884 0.217085 0.753691 0.219153
H22   H     H_    0.860335 0.108945 0.764831 0.218297
H23   H     H_    0.886507 0.246542 0.699307 0.218018
Cl1   Cl    Cl    0.724655 0.274537 0.326223 -0.650726
N4    N     N_2   0.446982 0.622373 0.341791 -0.459888
H24   H     H_    0.465586 0.703123 0.307543 0.254338
C44   C     C_3   0.367142 0.531870 0.289878 -0.686730
H25   H     H_    0.414559 0.532556 0.236718 0.226759
H26   H     H_    0.284516 0.545685 0.260785 0.227435
H27   H     H_    0.337682 0.446516 0.330647 0.243886

loop_
_geom_bond_atom_site_label_1
_geom_bond_atom_site_label_2
_ccdc_geom_bond_type
C12   O4    A    
C3    C42   S    
Cu1   O7    S    
C19   C20   A    
C6    H13   S    
C43   H23   S    
C4    C8    S    
N4    H24   S    
C10   C22   A    
C12   O3    A    
C26   C27   A    
N3    C43   S    
C5    H14   S    
C28   C29   A    
C43   H22   S    
C38   C42   S    
C5    C6    S    
C27   H11   S    
C9    C22   A    
C19   H18   S    
C15   C16   A    
C11   C24   A    
Cu2   O6    S    
C18   C19   A    
C2    C7    S    
C25   C37   A    
C2    C39   S    
C31   C32   A    
Cu1   O3    S    
C7    C40   T    
C36   H8    S    
C39   H1    S    
C25   C32   A    
C28   N4    S    
C16   C24   A    
C9    H19   S    
C13   C14   A    
C23   O5    A    
Cu2   N2    S    
C34   C41   S    
N4    C44   S    
Cu1   N1    S    
C1    O1    A    
C10   C21   A    
N3    H20   S    
C20   Cl1   S    
C23   O6    A    
C8    C41   T    
C4    C6    S    
C42   H16   S    
C33   H6    S    
C17   C21   A    
C12   C40   S    
Cu1   Cu2   S    
C25   H7    S    
C29   C30   A    
C37   H5    S    
C44   H25   S    
C38   H10   S    
C16   C20   A    
C14   C15   A    
C17   C18   A    
Cu2   O4    S    
C43   H21   S    
C30   C35   A    
C44   H26   S    
C4    C38   S    
Cu1   O5    S    
C2    C5    S    
C3    C4    S    
C26   H9    S    
C34   O7    A    
C37   N1    A    
C21   H2    S    
C15   C17   A    
C35   H12   S    
C6    C39   S    
C26   N2    A    
C3    C5    S    
C11   N3    S    
C13   H4    S    
C14   H3    S    
C1    O2    A    
C10   C23   S    
C32   C33   A    
C29   C31   A    
C22   H17   S    
C11   C13   A    
C38   C39   S    
C2    C42   S    
Cu1   O1    S    
C33   C35   A    
Cu2   O8    S    
C30   N2    A    
C34   O8    A    
C9    C18   A    
C44   H27   S    
C1    C24   S    
C27   C28   A    
C31   C36   A    
Cu2   O2    S    
C36   N1    A    
C3    H15   S    
