data_mof_unit_59078.cif
_audit_creation_date              2012-12-11T16:14:56-0500
_audit_creation_method            fapswitch 2.2
_symmetry_space_group_name_H-M    P1
_symmetry_Int_Tables_number       1
_space_group_crystal_system       triclinic
_cell_length_a                    13.565795
_cell_length_b                    13.549899
_cell_length_c                    28.436103
_cell_angle_alpha                 90.175074
_cell_angle_beta                  90.069883
_cell_angle_gamma                 60.208309
_cell_volume                      4536.15361595

loop_
_atom_site_label
_atom_site_type_symbol
_atom_type_description
_atom_site_fract_x
_atom_site_fract_y
_atom_site_fract_z
_atom_type_partial_charge
C1    C     C_R   0.280163 0.620073 0.566704 0.537555
C2    C     C_1   0.636970 0.630684 0.612978 -0.005401
C3    C     C_3   0.745784 0.684702 0.760415 -0.137282
C4    C     C_3   0.663638 0.679808 0.796769 0.003999
C5    C     C_3   0.752827 0.579923 0.734714 -0.095819
C6    C     C_3   0.650140 0.661139 0.704294 -0.023707
C7    C     C_3   0.669324 0.577550 0.770901 0.281529
C8    C     C_3   0.565751 0.656690 0.739841 -0.154772
C9    C     C_1   0.679004 0.689291 0.846824 -0.039699
C10   C     C_1   0.644962 0.647375 0.653807 -0.040125
C11   C     C_1   0.625785 0.242211 0.613993 0.000225
C12   C     C_R   0.621548 0.600613 0.566768 0.543923
C13   C     C_R   0.753768 0.188190 0.728082 0.308326
C14   C     C_R   0.761829 0.178162 0.777357 0.273868
C15   C     C_R   0.573598 0.196584 0.780623 0.232748
C16   C     C_R   0.563793 0.212415 0.731761 -0.151244
C17   C     C_R   0.654152 0.205052 0.705405 -0.049018
C18   C     C_R   0.672303 0.180731 0.803375 -0.001713
C19   C     C_1   0.687702 0.150584 0.852376 0.015606
C20   C     C_1   0.640587 0.222070 0.655390 -0.022595
C21   C     C_1   0.702124 0.113856 0.891755 -0.005172
C22   C     C_1   0.237341 0.632804 0.613488 0.003503
C23   C     C_R   0.599221 0.281429 0.566596 0.542159
C24   C     C_R   0.218750 0.548843 0.730582 0.242992
C25   C     C_R   0.207798 0.557428 0.780189 -0.121679
C26   C     C_R   0.161784 0.754345 0.776995 -0.125186
C27   C     C_R   0.175019 0.747162 0.728203 0.216141
C28   C     C_R   0.200696 0.645358 0.704943 0.057373
C29   C     C_R   0.177271 0.660367 0.802925 -0.054029
C30   C     C_1   0.148204 0.674759 0.852029 -0.057319
C31   C     C_1   0.215520 0.638799 0.654719 0.029286
C32   C     C_1   0.113410 0.694659 0.891840 -0.014435
C33   C     C_1   0.637391 0.633443 0.388601 -0.012306
C34   C     C_R   0.276756 0.621005 0.434438 0.547261
C35   C     C_R   0.753286 0.585378 0.274545 -0.106223
C36   C     C_R   0.760140 0.592350 0.225552 0.277491
C37   C     C_R   0.572120 0.760575 0.225492 -0.157640
C38   C     C_R   0.567025 0.754412 0.274370 -0.122187
C39   C     C_R   0.657615 0.666824 0.298881 -0.005500
C40   C     C_R   0.667647 0.678952 0.200993 0.047616
C41   C     C_1   0.676319 0.690534 0.151257 -0.011689
C42   C     C_1   0.647779 0.652651 0.348244 -0.057479
C43   C     C_1   0.692728 0.701406 0.110579 0.003211
C44   C     C_1   0.629987 0.233939 0.387228 -0.001433
C45   C     C_R   0.620423 0.600483 0.434138 0.543869
C46   C     C_R   0.557369 0.219146 0.270947 -0.163678
C47   C     C_R   0.561197 0.209742 0.221380 0.289582
C48   C     C_R   0.759591 0.164241 0.224276 -0.152650
C49   C     C_R   0.754205 0.175815 0.273145 0.266244
C50   C     C_R   0.654169 0.198370 0.296361 0.002440
C51   C     C_R   0.664269 0.180920 0.198822 0.012142
C52   C     C_1   0.678202 0.150674 0.150217 0.004544
C53   C     C_1   0.645416 0.211837 0.346214 -0.012571
C54   C     C_1   0.692850 0.113982 0.110987 0.010073
C55   C     C_1   0.224183 0.637805 0.389856 -0.007582
C56   C     C_R   0.599911 0.278288 0.433447 0.540187
C57   C     C_R   0.071252 0.734090 0.282134 -0.105581
C58   C     C_R   0.056430 0.741659 0.233593 -0.114473
C59   C     C_R   0.239246 0.570137 0.223305 -0.117530
C60   C     C_R   0.253930 0.562344 0.271903 -0.113447
C61   C     C_R   0.170524 0.645123 0.301143 0.032150
C62   C     C_R   0.141133 0.660727 0.204284 0.024036
C63   C     C_1   0.125264 0.673242 0.154761 -0.061859
C64   C     C_1   0.193525 0.643743 0.350024 -0.057279
C65   C     C_1   0.100387 0.692836 0.114176 -0.007819
C66   C     C_R   0.720049 0.056697 0.935745 0.538696
C67   C     C_3   0.642333 0.764305 0.729890 0.311214
C68   C     C_R   0.730583 0.717511 0.932452 0.544429
C69   C     C_R   0.058222 0.729067 0.936607 0.543896
C70   C     C_R   0.714246 0.056641 0.067189 0.544364
C71   C     C_R   0.725612 0.717133 0.064815 0.541133
C72   C     C_R   0.053599 0.727439 0.068639 0.546517
C73   C     C_3   0.561178 0.759674 0.766275 0.239433
C74   C     C_1   0.697919 0.700363 0.887041 -0.008396
Cr1   Cr    Cr6+3 0.413560 0.417690 0.499580 1.033002
Cr2   Cr    Cr6+3 0.418030 0.668340 0.500400 1.026879
Cr3   Cr    Cr6+3 0.668390 0.413960 0.499990 1.036832
Cr4   Cr    Cr6+3 0.919710 0.916540 0.003080 1.023626
Cr5   Cr    Cr6+3 0.665300 0.919470 0.999630 1.039985
Cr6   Cr    Cr6+3 0.916060 0.665490 0.000390 1.038803
H1    H     H_    0.485566 0.230553 0.714335 0.151402
H2    H     H_    0.221562 0.485440 0.801326 0.128241
H3    H     H_    0.137515 0.834074 0.794545 0.113031
H4    H     H_    0.821645 0.515584 0.293433 0.100787
H5    H     H_    0.501860 0.829049 0.206826 0.120782
H6    H     H_    0.491891 0.816723 0.292937 0.125108
H7    H     H_    0.480113 0.242879 0.290332 0.099703
H8    H     H_    0.838974 0.139719 0.206322 0.126919
H9    H     H_    0.007108 0.798759 0.304623 0.129014
H10   H     H_    0.979966 0.811639 0.218838 0.117122
H11   H     H_    0.304553 0.507035 0.200707 0.141147
H12   H     H_    0.331449 0.493712 0.286613 0.113279
H13   H     H_    0.492569 0.645103 0.730675 0.086565
H14   H     H_    0.831551 0.504735 0.721707 0.147388
H15   H     H_    0.818765 0.697432 0.768612 0.125889
O1    O     O_R   0.503010 0.303330 0.550820 -0.507939
O2    O     O_R   0.522480 0.657560 0.452870 -0.493504
O3    O     O_R   0.693670 0.502790 0.448900 -0.510260
O4    O     O_R   0.656970 0.319650 0.452000 -0.493866
O5    O     O_3   0.499990 0.499990 0.499990 -0.252844
O6    O     O_R   0.035380 0.825870 0.952240 -0.516550
O7    O     O_R   0.818010 0.012400 0.954990 -0.506159
O8    O     O_R   0.644810 0.033340 0.949080 -0.496416
O9    O     O_R   0.674910 0.816000 0.950960 -0.498052
O10   O     O_R   0.827060 0.642880 0.947470 -0.500761
O11   O     O_R   0.013800 0.673690 0.954100 -0.489973
O12   O     O_R   0.320040 0.522690 0.547470 -0.489247
O13   O     O_R   0.031250 0.825430 0.055080 -0.504889
O14   O     O_R   0.814180 0.011990 0.050320 -0.499577
O15   O     O_R   0.640680 0.032900 0.051920 -0.497222
O16   O     O_R   0.671090 0.815590 0.046300 -0.497396
O17   O     O_R   0.822940 0.642440 0.050310 -0.502464
O18   O     O_R   0.009970 0.673280 0.049430 -0.498349
O19   O     O_3   0.833690 0.833830 0.001040 -0.253355
O20   O     O_R   0.303930 0.694040 0.551750 -0.513363
O21   O     O_R   0.523510 0.657900 0.548240 -0.503094
O22   O     O_R   0.694770 0.503160 0.551780 -0.499519
O23   O     O_R   0.657990 0.319990 0.547370 -0.489534
O24   O     O_R   0.501900 0.302960 0.447930 -0.512097
O25   O     O_R   0.319020 0.522350 0.452090 -0.497874
O26   O     O_R   0.302820 0.693680 0.448870 -0.504507
O27   O     O_3   0.462241 0.858114 0.781771 -0.590282
C75   C     C_3   0.405211 0.828315 0.815423 -0.023401
H16   H     H_    0.455971 0.796808 0.848146 0.145005
H17   H     H_    0.386579 0.762244 0.801745 0.114389
C76   C     C_3   0.293397 0.933130 0.828263 -0.383543
H18   H     H_    0.237936 0.966704 0.796830 0.150678
H19   H     H_    0.249581 0.910272 0.855401 0.100574
H20   H     H_    0.309202 0.000202 0.842718 0.155242
O28   O     O_3   0.254018 0.447467 0.706017 -0.556817
C77   C     C_3   0.208997 0.381892 0.725030 -0.013423
H21   H     H_    0.117491 0.435623 0.734436 0.131178
H22   H     H_    0.258641 0.334690 0.756432 0.155329
C78   C     C_3   0.218974 0.294781 0.688662 -0.371529
H23   H     H_    0.309311 0.238928 0.678679 0.144391
H24   H     H_    0.185610 0.241367 0.703465 0.101111
H25   H     H_    0.169277 0.338677 0.656782 0.169478
O29   O     O_3   0.151469 0.843632 0.703064 -0.590958
C79   C     C_3   0.253572 0.844778 0.695138 -0.020569
H26   H     H_    0.311731 0.773120 0.671891 0.140156
H27   H     H_    0.297737 0.839430 0.728681 0.154554
C80   C     C_3   0.226303 0.955704 0.671241 -0.368962
H28   H     H_    0.172538 0.028681 0.694657 0.152246
H29   H     H_    0.305556 0.957038 0.663496 0.088453
H30   H     H_    0.180986 0.964376 0.637622 0.160194
O30   O     O_3   0.853151 0.510310 0.201059 -0.562312
C81   C     C_3   0.947748 0.524681 0.209899 -0.010434
H31   H     H_    0.975349 0.505327 0.247230 0.123719
H32   H     H_    0.928050 0.612992 0.201513 0.139412
C82   C     C_3   0.046090 0.442961 0.178869 -0.359650
H33   H     H_    0.022837 0.462711 0.141227 0.177448
H34   H     H_    0.122092 0.451057 0.186273 0.105810
H35   H     H_    0.067190 0.354035 0.186011 0.150059
O31   O     O_3   0.634840 0.861178 0.707990 -0.555190
C83   C     C_3   0.529557 0.922998 0.684695 -0.000839
H36   H     H_    0.462347 0.976724 0.710301 0.162634
H37   H     H_    0.503560 0.867295 0.666123 0.128275
C84   C     C_3   0.538370 0.999523 0.648003 -0.384948
H38   H     H_    0.601870 0.947093 0.620841 0.165278
H39   H     H_    0.454649 0.052175 0.630825 0.096375
H40   H     H_    0.565089 0.056251 0.664824 0.159275
O32   O     O_3   0.468850 0.229602 0.192974 -0.557078
C85   C     C_3   0.380448 0.225501 0.217323 -0.130447
H41   H     H_    0.331953 0.303013 0.239247 0.107812
H42   H     H_    0.412819 0.146530 0.238564 0.115562
H43   H     H_    0.320304 0.224513 0.191118 0.143220
O33   O     O_3   0.848518 0.158484 0.298499 -0.552426
C86   C     C_3   0.859356 0.256589 0.294701 -0.005271
H44   H     H_    0.780448 0.333921 0.306713 0.138357
H45   H     H_    0.878363 0.269007 0.257798 0.148023
C87   C     C_3   0.956900 0.242614 0.325686 -0.360926
H46   H     H_    0.037158 0.166430 0.314533 0.159835
H47   H     H_    0.967100 0.318731 0.322637 0.091024
H48   H     H_    0.939259 0.232623 0.362978 0.169279
O34   O     O_3   0.691069 0.475037 0.792526 -0.514722
C88   C     C_3   0.592002 0.490567 0.815141 -0.087209
H49   H     H_    0.527512 0.498722 0.788939 0.119496
H50   H     H_    0.555780 0.565132 0.839316 0.090927
H51   H     H_    0.614204 0.414269 0.836702 0.163827
O35   O     O_3   0.840340 0.189624 0.703019 -0.530660
C89   C     C_3   0.906133 0.082888 0.681070 -0.094211
H52   H     H_    0.859172 0.069887 0.651954 0.116228
H53   H     H_    0.935723 0.011524 0.706504 0.146115
H54   H     H_    0.981854 0.080464 0.665341 0.157282
O36   O     O_3   0.854009 0.173596 0.800309 -0.504767
C90   C     C_3   0.937542 0.059114 0.808523 -0.013279
H55   H     H_    0.003710 0.031654 0.780830 0.162606
H56   H     H_    0.904053 0.998585 0.808765 0.104430
C91   C     C_3   0.993027 0.051020 0.855967 -0.363206
H57   H     H_    0.927614 0.086686 0.884024 0.178167
H58   H     H_    0.053386 0.960689 0.864372 0.104873
H59   H     H_    0.039423 0.099276 0.855187 0.157549
O37   O     O_3   0.484591 0.203841 0.807161 -0.569955
C92   C     C_3   0.464705 0.114373 0.794734 -0.092515
H60   H     H_    0.544662 0.030560 0.793559 0.167438
H61   H     H_    0.418956 0.132174 0.760708 0.103688
H62   H     H_    0.409268 0.108474 0.821865 0.152591

loop_
_geom_bond_atom_site_label_1
_geom_bond_atom_site_label_2
_ccdc_geom_bond_type
C58   C62   A    
C15   C18   A    
C92   H61   S    
C87   H46   S    
C63   C65   T    
Cr1   O12   S    
C26   H3    S    
C21   C66   S    
Cr4   O7    S    
C33   C45   S    
C14   C18   A    
C35   C36   A    
C81   H31   S    
C77   C78   S    
C2    C12   S    
Cr2   O20   S    
C23   O23   A    
C5    H14   S    
O36   C90   S    
C7    C8    S    
C89   H52   S    
C87   H47   S    
C26   C27   A    
C37   C38   A    
C57   H9    S    
C38   H6    S    
C67   O31   S    
C33   C42   T    
C37   H5    S    
C85   H42   S    
C49   O33   S    
C37   C40   A    
Cr3   O22   S    
C45   O3    A    
C5    C6    S    
C79   C80   S    
C75   H17   S    
C92   H62   S    
C83   H37   S    
C68   C74   S    
C15   C16   A    
Cr6   O11   S    
C17   C20   S    
C23   O1    A    
Cr3   O5    S    
Cr4   O13   S    
C18   C19   S    
C91   H58   S    
C66   O7    A    
C8    C73   S    
C70   O15   A    
C84   H40   S    
C47   O32   S    
C44   C53   T    
C88   H51   S    
C47   C51   A    
C72   O13   A    
C16   C17   A    
C82   H35   S    
C7    O34   S    
C76   H19   S    
C48   H8    S    
C26   C29   A    
C67   C73   S    
O37   C92   S    
C86   H45   S    
C92   H60   S    
C1    C22   S    
C45   O2    A    
C13   C14   A    
C55   C64   T    
Cr4   O6    S    
C84   H39   S    
C41   C43   T    
C80   H30   S    
Cr5   O8    S    
Cr4   O19   S    
C78   H25   S    
C4    C7    S    
C52   C54   T    
Cr1   O1    S    
C39   C42   S    
C86   C87   S    
C25   C29   A    
C87   H48   S    
C11   C20   T    
C48   C51   A    
C27   O29   S    
C22   C31   T    
O30   C81   S    
C51   C52   S    
C50   C53   S    
C68   O9    A    
C75   H16   S    
C81   C82   S    
Cr1   O24   S    
C24   C25   A    
Cr3   O23   S    
C89   H53   S    
O33   C86   S    
C5    C7    S    
C14   O36   S    
C75   C76   S    
C6    C8    S    
C76   H20   S    
C77   H22   S    
Cr2   O2    S    
Cr6   O10   S    
C12   O22   A    
C71   O16   A    
C60   C61   A    
C91   H59   S    
C35   C39   A    
C65   C72   S    
C29   C30   S    
C70   O14   A    
Cr1   O5    S    
C44   C56   S    
O34   C88   S    
C54   C70   S    
C36   C40   A    
C4    C9    S    
C79   H26   S    
C71   O17   A    
C85   H43   S    
C62   C63   S    
C25   H2    S    
C4    C73   S    
Cr3   O3    S    
C35   H4    S    
C59   C60   A    
C59   H11   S    
C58   H10   S    
O31   C83   S    
C32   C69   S    
C1    O12   A    
C36   O30   S    
C88   H49   S    
Cr6   O19   S    
C73   O27   S    
C34   O26   A    
C84   H38   S    
C56   O24   A    
C82   H34   S    
Cr5   O9    S    
Cr2   O5    S    
C68   O10   A    
Cr2   O26   S    
C90   H56   S    
C3    C4    S    
C2    C10   T    
C27   C28   A    
O35   C89   S    
C46   H7    S    
C89   H54   S    
C46   C47   A    
C86   H44   S    
C59   C62   A    
C43   C71   S    
Cr5   O15   S    
C19   C21   T    
C82   H33   S    
C66   O8    A    
C28   C31   S    
C3    C67   S    
C8    H13   S    
C24   C28   A    
C3    C5    S    
C6    C10   S    
C78   H24   S    
C69   O11   A    
C57   C61   A    
C78   H23   S    
C69   O6    A    
O32   C85   S    
C13   O35   S    
C81   H32   S    
C46   C50   A    
Cr5   O16   S    
C90   C91   S    
O28   C77   S    
O27   C75   S    
C6    C67   S    
C61   C64   S    
C30   C32   T    
C79   H27   S    
C57   C58   A    
C38   C39   A    
C76   H18   S    
C48   C49   A    
C72   O18   A    
C11   C23   S    
C16   H1    S    
Cr2   O21   S    
Cr3   O4    S    
Cr4   O14   S    
C80   H29   S    
Cr1   O25   S    
C91   H57   S    
C85   H41   S    
O29   C79   S    
Cr6   O17   S    
C13   C17   A    
C15   O37   S    
C24   O28   S    
C34   C55   S    
Cr6   O18   S    
C34   O25   A    
C3    H15   S    
C49   C50   A    
C9    C74   T    
Cr5   O19   S    
C83   H36   S    
C80   H28   S    
C40   C41   S    
C1    O20   A    
C56   O4    A    
C12   O21   A    
C90   H55   S    
C60   H12   S    
C77   H21   S    
C88   H50   S    
C83   C84   S    
