data_mof_unit_17313.cif
_audit_creation_date              2012-12-11T16:17:54-0500
_audit_creation_method            fapswitch 2.2
_symmetry_space_group_name_H-M    P1
_symmetry_Int_Tables_number       1
_space_group_crystal_system       triclinic
_cell_length_a                    6.926331
_cell_length_b                    28.802431
_cell_length_c                    32.026206
_cell_angle_alpha                 101.143448
_cell_angle_beta                  89.699748
_cell_angle_gamma                 90.401022
_cell_volume                      6268.41358221

loop_
_atom_site_label
_atom_site_type_symbol
_atom_type_description
_atom_site_fract_x
_atom_site_fract_y
_atom_site_fract_z
_atom_type_partial_charge
O1    O     O_R   0.494350 0.453160 0.452490 -0.538005
O2    O     O_R   0.820990 0.455850 0.538220 -0.540903
O3    O     O_R   0.994300 0.546840 0.547510 -0.537823
C1    C     C_R   0.651663 0.445623 0.551586 0.709277
O4    O     O_R   0.823860 0.447580 0.452250 -0.542254
O5    O     O_R   0.997190 0.538510 0.460920 -0.537672
C2    C     C_R   0.654888 0.434591 0.436407 0.692010
O6    O     O_R   0.491450 0.461490 0.539080 -0.537415
O7    O     O_3   0.661790 0.529840 0.502950 -0.366711
V1    V     V_3+5 0.935470 0.494460 0.499450 1.406699
O8    O     O_R   0.327090 0.544150 0.461780 -0.539959
C3    C     C_R   0.158819 0.554210 0.448179 0.715548
O9    O     O_R   0.324210 0.552420 0.547750 -0.542242
C4    C     C_R   0.155150 0.565445 0.563562 0.692419
V2    V     V_3+5 0.435840 0.505540 0.500550 1.406948
O10   O     O_3   0.159650 0.470160 0.497050 -0.366852
C5    C     C_R   0.964029 0.619585 0.619848 -0.152528
H1    H     H_    0.831193 0.603752 0.605961 0.120607
C6    C     C_R   0.952405 0.655507 0.656128 -0.129192
H2    H     H_    0.811125 0.666178 0.668954 0.132985
C7    C     C_R   0.120407 0.677182 0.675604 0.019446
C8    C     C_R   0.300551 0.661951 0.657603 -0.125369
H3    H     H_    0.433136 0.677761 0.671633 0.138692
C9    C     C_R   0.312226 0.625975 0.621256 -0.156940
H4    H     H_    0.453368 0.615139 0.608437 0.118435
C10   C     C_R   0.144046 0.604218 0.601882 -0.052510
N1    N     N_R   0.269241 0.736163 0.733527 -0.273620
N2    N     N_R   0.257384 0.770111 0.768264 -0.278749
C11   C     C_R   0.083191 0.784744 0.785564 0.516652
N3    N     N_R   0.921357 0.763828 0.766471 -0.273416
N4    N     N_R   0.933215 0.729880 0.731735 -0.278681
C12   C     C_R   0.107408 0.715246 0.714435 0.516394
C13   C     C_R   0.890037 0.838038 0.842394 -0.124953
H5    H     H_    0.757453 0.822239 0.828353 0.138896
C14   C     C_R   0.878354 0.874004 0.878749 -0.155546
C15   C     C_R   0.046532 0.895744 0.898138 -0.052576
C16   C     C_R   0.226555 0.880378 0.880174 -0.152054
H6    H     H_    0.359388 0.896204 0.894070 0.120995
C17   C     C_R   0.238187 0.844467 0.843885 -0.128826
H7    H     H_    0.379470 0.833795 0.831063 0.132875
C18   C     C_R   0.070187 0.822804 0.824399 0.019333
C19   C     C_R   0.129545 0.657292 0.282973 0.567724
N5    N     N_R   0.106682 0.676445 0.325414 -0.551292
C20   C     C_R   0.066208 0.723622 0.338552 0.536951
C21   C     C_R   0.053451 0.753711 0.308764 -0.025975
C22   C     C_R   0.082044 0.734756 0.265249 -0.017466
C23   C     C_R   0.119581 0.686119 0.252120 -0.035311
C24   C     C_R   0.013565 0.802215 0.321412 -0.142320
C25   C     C_R   0.003775 0.831505 0.291353 -0.140947
C26   C     C_R   0.034122 0.813085 0.247862 -0.029549
C27   C     C_R   0.073313 0.764518 0.234790 -0.016136
C28   C     C_R   0.104327 0.745669 0.191336 -0.030999
C29   C     C_R   0.141589 0.697037 0.178622 -0.138525
C30   C     C_R   0.148576 0.667627 0.208606 -0.139051
C31   C     C_R   0.027017 0.842041 0.217040 0.573256
N6    N     N_R   0.058998 0.823295 0.174828 -0.560824
C32   C     C_R   0.097131 0.776015 0.161671 0.574632
O11   O     O_2   0.165633 0.610670 0.270711 -0.520519
O12   O     O_2   0.036721 0.741303 0.380241 -0.532148
H8    H     H_    0.990326 0.817771 0.354621 0.171020
H9    H     H_    0.973130 0.868689 0.302360 0.172150
O13   O     O_2   0.990014 0.888621 0.229251 -0.518279
O14   O     O_2   0.126808 0.758304 0.119992 -0.516796
H10   H     H_    0.177992 0.630385 0.197570 0.172966
C33   C     C_R   0.875416 0.871315 0.132646 -0.085025
H11   H     H_    0.742837 0.862020 0.147196 0.117140
C34   C     C_R   0.868563 0.900807 0.102610 -0.192388
H12   H     H_    0.729681 0.913823 0.094800 0.128491
C35   C     C_R   0.038934 0.913672 0.083285 -0.059819
C36   C     C_R   0.216101 0.895941 0.094730 -0.193551
H13   H     H_    0.350087 0.904962 0.080566 0.130989
C37   C     C_R   0.222414 0.866147 0.124547 -0.087025
H14   H     H_    0.360058 0.852907 0.132864 0.116045
C38   C     C_R   0.052247 0.853724 0.143828 0.382874
C39   C     C_R   0.291155 0.647806 0.382503 0.155686
C40   C     C_R   0.301855 0.617125 0.411966 -0.229564
H15   H     H_    0.428026 0.618219 0.431997 0.131031
C41   C     C_R   0.149457 0.585861 0.416530 -0.078462
C42   C     C_R   0.986989 0.584735 0.390331 -0.197357
H16   H     H_    0.868452 0.560569 0.392489 0.137938
C43   C     C_R   0.976681 0.613982 0.360363 -0.135174
H17   H     H_    0.852419 0.611289 0.339823 0.135909
C44   C     C_R   0.124953 0.646323 0.356529 0.383668
C45   C     C_R   0.741902 0.205201 0.823196 0.585614
N7    N     N_R   0.588875 0.174922 0.824085 -0.552003
C46   C     C_R   0.441805 0.172357 0.795161 0.591560
C47   C     C_R   0.443658 0.201288 0.764325 -0.062945
C48   C     C_R   0.597982 0.232818 0.763231 -0.024279
C49   C     C_R   0.749363 0.234717 0.792875 -0.023733
C50   C     C_R   0.293625 0.199339 0.734936 -0.169184
C51   C     C_R   0.293447 0.227985 0.704012 0.127308
C52   C     C_R   0.451013 0.260146 0.702253 -0.055936
C53   C     C_R   0.601245 0.262551 0.732662 -0.046608
C54   C     C_R   0.755921 0.294750 0.732803 -0.030030
C55   C     C_R   0.905777 0.296284 0.762519 -0.157317
C56   C     C_R   0.903240 0.266428 0.791952 -0.148025
C57   C     C_R   0.467091 0.289958 0.671624 0.569108
N8    N     N_R   0.616432 0.321891 0.673168 -0.549626
C58   C     C_R   0.758285 0.324852 0.703207 0.559889
O15   O     O_2   0.884893 0.207391 0.851980 -0.528237
O16   O     O_2   0.294296 0.141688 0.796048 -0.524663
H18   H     H_    0.174152 0.175056 0.735941 0.169112
O17   O     O_2   0.338201 0.286739 0.639884 -0.539516
O18   O     O_2   0.901341 0.357186 0.704672 -0.530201
H19   H     H_    0.026987 0.320329 0.762906 0.171835
H20   H     H_    0.021988 0.268495 0.814124 0.170141
C59   C     C_R   0.469223 0.382597 0.638066 -0.083357
H21   H     H_    0.342253 0.382963 0.658002 0.154588
C60   C     C_R   0.476563 0.412193 0.608169 -0.205080
H22   H     H_    0.354439 0.434754 0.605635 0.134758
C61   C     C_R   0.641348 0.413343 0.582521 -0.059227
C62   C     C_R   0.797419 0.383713 0.587077 -0.202145
H23   H     H_    0.926035 0.383542 0.567668 0.138981
C63   C     C_R   0.788355 0.353440 0.616363 -0.092680
H24   H     H_    0.909078 0.330426 0.618796 0.152477
C64   C     C_R   0.624774 0.352791 0.642404 0.365781
C65   C     C_R   0.719624 0.112465 0.859092 -0.092820
H25   H     H_    0.839077 0.107527 0.836754 0.158304
C66   C     C_R   0.705623 0.084097 0.889811 -0.254151
H26   H     H_    0.815665 0.057658 0.890273 0.140073
C67   C     C_R   0.549688 0.088598 0.918748 -0.070586
C68   C     C_R   0.408525 0.124186 0.917161 0.088833
C69   C     C_R   0.425738 0.152277 0.885865 -0.114986
H27   H     H_    0.319888 0.179380 0.884183 0.150271
C70   C     C_R   0.578705 0.146389 0.856582 0.336667
C71   C     C_R   0.463821 0.380829 0.379744 -0.152200
H28   H     H_    0.331165 0.396751 0.393507 0.120656
C72   C     C_R   0.452257 0.345072 0.343326 -0.128580
H29   H     H_    0.311179 0.334591 0.330279 0.133252
C73   C     C_R   0.620096 0.323311 0.324003 0.019259
C74   C     C_R   0.799976 0.338284 0.342291 -0.125053
H30   H     H_    0.932429 0.322405 0.328387 0.138703
C75   C     C_R   0.811592 0.374100 0.378760 -0.156535
H31   H     H_    0.952571 0.384744 0.391788 0.118695
C76   C     C_R   0.643612 0.395942 0.397989 -0.052759
N9    N     N_R   0.768952 0.264189 0.266295 -0.273489
N10   N     N_R   0.757301 0.230329 0.231484 -0.278415
C77   C     C_R   0.583485 0.216094 0.213758 0.516462
N11   N     N_R   0.421812 0.237322 0.232498 -0.273504
N12   N     N_R   0.433461 0.271178 0.267314 -0.278351
C78   C     C_R   0.607279 0.285402 0.285048 0.516705
C79   C     C_R   0.390984 0.163383 0.156352 -0.124973
H32   H     H_    0.258706 0.179767 0.169848 0.138479
C80   C     C_R   0.379342 0.127232 0.120137 -0.157740
H33   H     H_    0.238539 0.116883 0.106849 0.119261
C81   C     C_R   0.547081 0.104676 0.101499 -0.052388
C82   C     C_R   0.726724 0.119569 0.119931 -0.153085
H34   H     H_    0.859210 0.103160 0.106565 0.121036
C83   C     C_R   0.738324 0.155678 0.156076 -0.129234
H35   H     H_    0.879263 0.165911 0.169332 0.133516
C84   C     C_R   0.570669 0.178023 0.174924 0.019803
O19   O     O_R   0.699050 0.038480 0.960880 -0.539414
O20   O     O_R   0.366680 0.052470 0.047720 -0.540839
O21   O     O_R   0.193410 0.961530 0.039110 -0.536878
C85   C     C_R   0.535711 0.065610 0.063433 0.684454
O22   O     O_R   0.369510 0.044100 0.961740 -0.539640
O23   O     O_R   0.196260 0.953110 0.952520 -0.537636
C86   C     C_R   0.538720 0.055348 0.949145 0.711092
O24   O     O_R   0.696210 0.046900 0.047470 -0.537966
O25   O     O_3   0.528780 0.970170 0.997070 -0.365167
V3    V     V_3+5 0.255080 0.005530 0.000540 1.399610
O26   O     O_R   0.866350 0.947520 0.952280 -0.540976
C87   C     C_R   0.035415 0.934509 0.936463 0.693637
O27   O     O_R   0.863520 0.955880 0.038260 -0.539962
C88   C     C_R   0.031676 0.945710 0.051826 0.712214
V4    V     V_3+5 0.754720 0.994440 0.999470 1.403078
O28   O     O_3   0.030880 0.029830 0.002930 -0.367941
H36   H     H_    0.165599 0.681507 0.145436 0.173324
C89   C     C_3   0.456408 0.682079 0.380181 -0.344376
C90   C     C_3   0.548576 0.675402 0.335941 -0.705769
H37   H     H_    0.550409 0.637480 0.320289 0.237307
H38   H     H_    0.470770 0.695990 0.315539 0.222441
H39   H     H_    0.698503 0.689094 0.338744 0.223853
H40   H     H_    0.404675 0.719010 0.389687 0.217464
H41   H     H_    0.571178 0.677528 0.403189 0.183682
C91   C     C_3   0.119478 0.222601 0.674755 -0.306849
C92   C     C_3   0.160195 0.188103 0.633124 -0.667931
H42   H     H_    0.033949 0.186672 0.611680 0.213618
H43   H     H_    0.289427 0.199004 0.616735 0.254898
H44   H     H_    0.184954 0.152098 0.639610 0.212866
H45   H     H_    0.993749 0.208414 0.690179 0.160882
H46   H     H_    0.068283 0.257173 0.669102 0.219970
C93   C     C_3   0.241030 0.134571 0.948318 -0.342496
C94   C     C_3   0.309874 0.156516 0.993092 -0.702725
H47   H     H_    0.408340 0.132515 0.005828 0.209090
H48   H     H_    0.386670 0.190410 0.992669 0.226830
H49   H     H_    0.183489 0.163772 0.014795 0.212108
H50   H     H_    0.139767 0.160085 0.938251 0.190418
H51   H     H_    0.152615 0.102420 0.948551 0.199805
H52   H     H_    0.737207 0.884844 0.891562 0.119058

loop_
_geom_bond_atom_site_label_1
_geom_bond_atom_site_label_2
_ccdc_geom_bond_type
C31   N6    A    
C71   H28   S    
N5    C44   S    
C89   C90   S    
O21   V3    S    
N7    C70   S    
C55   C56   A    
C82   H34   S    
C1    O6    A    
C72   H29   S    
C19   O11   S    
C62   C63   A    
C43   H17   S    
C69   H27   S    
C17   C18   A    
C21   C22   A    
C94   H47   S    
C91   H46   S    
N2    C11   A    
C11   N3    A    
C90   H38   S    
C5    C10   A    
C7    C8    A    
O27   C88   A    
C82   C83   A    
C40   C41   A    
C81   C82   A    
C65   C66   A    
O5    C3    A    
N3    N4    A    
C69   C70   A    
C90   H37   S    
C20   O12   S    
V2    O10   S    
N8    C58   A    
C31   O13   S    
C57   N8    A    
N6    C32   A    
C5    H1    S    
C73   C78   S    
C50   H18   S    
C55   H19   S    
C60   C61   A    
C5    C6    A    
O26   V4    S    
O8    V2    S    
C45   N7    A    
C79   H32   S    
C81   C85   S    
C61   C62   A    
C92   H43   S    
C3    C41   S    
C39   C89   S    
C15   C87   S    
C89   H40   S    
O21   C88   A    
C32   O14   S    
C36   H13   S    
O1    V2    S    
O25   V4    S    
O20   C85   A    
O7    V1    S    
O23   C87   A    
C11   C18   S    
C58   O18   S    
O1    C2    A    
O9    C4    A    
C59   C60   A    
C83   C84   A    
C35   C36   A    
C93   H51   S    
C62   H23   S    
C43   C44   A    
C52   C57   A    
C24   H8    S    
C40   H15   S    
C66   C67   A    
C91   H45   S    
C7    C12   S    
O19   C86   A    
C25   H9    S    
C85   O24   A    
C27   C28   A    
C45   O15   S    
N6    C38   S    
C9    H4    S    
C80   C81   A    
C77   N11   A    
C17   H7    S    
C42   C43   A    
C48   C53   A    
C41   C42   A    
C80   H33   S    
O5    V1    S    
C33   C34   A    
C29   C30   A    
C22   C27   A    
C4    C10   S    
C33   C38   A    
C34   H12   S    
O20   V3    S    
C63   C64   A    
C34   C35   A    
C14   C15   A    
C79   C84   A    
O2    C1    A    
C39   C40   A    
C93   C94   S    
C2    C76   S    
C16   H6    S    
C29   H36   S    
N8    C64   S    
N4    C12   A    
C59   H21   S    
C92   H44   S    
C13   H5    S    
C89   H41   S    
C26   C27   A    
C53   C54   A    
V3    O28   S    
N12   C78   A    
C66   H26   S    
N7    C46   A    
C57   O17   S    
O3    C4    A    
C23   C30   A    
C37   C38   A    
C91   C92   S    
C1    C61   S    
O22   V3    S    
C92   H42   S    
C14   H52   S    
C67   C86   S    
O9    V2    S    
N5    C20   A    
V4    O28   S    
C79   C80   A    
C45   C49   A    
C74   H30   S    
O2    V1    S    
O23   V3    S    
C51   C52   A    
C28   C29   A    
O4    C2    A    
O26   C87   A    
C21   C24   A    
C56   H20   S    
C22   C23   A    
C24   C25   A    
C71   C72   A    
C6    C7    A    
N1    C12   A    
C46   C47   A    
C20   C21   A    
C9    C10   A    
C37   H14   S    
C74   C75   A    
C72   C73   A    
C71   C76   A    
O19   V4    S    
N11   N12   A    
C67   C68   A    
C63   H24   S    
C77   C84   S    
O6    V2    S    
N10   C77   A    
C65   H25   S    
C26   C31   A    
O24   V4    S    
C94   H49   S    
O25   V3    S    
C6    H2    S    
O27   V4    S    
C73   C74   A    
O7    V2    S    
C13   C18   A    
O4    V1    S    
C16   C17   A    
O3    V1    S    
V1    O10   S    
C93   H50   S    
C39   C44   A    
C50   C51   A    
C75   H31   S    
C30   H10   S    
C54   C58   A    
C49   C56   A    
O22   C86   A    
C52   C53   A    
C13   C14   A    
N9    C78   A    
C94   H48   S    
C51   C91   S    
C8    C9    A    
C19   C23   A    
C33   H11   S    
C54   C55   A    
C35   C88   S    
C59   C64   A    
C28   C32   A    
C42   H16   S    
C48   C49   A    
C47   C48   A    
C15   C16   A    
C25   C26   A    
C19   N5    A    
C47   C50   A    
C60   H22   S    
N1    N2    A    
C75   C76   A    
C68   C93   S    
C8    H3    S    
N9    N10   A    
C36   C37   A    
C68   C69   A    
C83   H35   S    
C46   O16   S    
C65   C70   A    
O8    C3    A    
C90   H39   S    
