data_mof_unit_52952.cif
_audit_creation_date              2012-10-26T21:12:36-0400
_audit_creation_method            fapswitch 2.2
_symmetry_space_group_name_H-M    P1
_symmetry_Int_Tables_number       1
_space_group_crystal_system       triclinic
_cell_length_a                    23.46952
_cell_length_b                    10.852314
_cell_length_c                    9.675246
_cell_angle_alpha                 91.548733
_cell_angle_beta                  88.645177
_cell_angle_gamma                 91.382615
_cell_volume                      2462.00237203

loop_
_atom_site_label
_atom_site_type_symbol
_atom_type_description
_atom_site_fract_x
_atom_site_fract_y
_atom_site_fract_z
_atom_type_partial_charge
C1    C     C_R   0.497842 0.262673 0.498665 0.644768
C2    C     C_R   0.121203 0.540876 0.398356 0.462595
C3    C     C_R   0.241520 0.608514 0.552485 -0.044697
C4    C     C_R   0.391201 0.497517 0.501280 0.646076
C5    C     C_R   0.300780 0.605077 0.548584 0.314628
C6    C     C_R   0.328548 0.497415 0.504540 0.022699
C7    C     C_R   0.295899 0.392158 0.463324 0.229960
C8    C     C_R   0.236088 0.396173 0.467640 0.302828
C9    C     C_R   0.209096 0.504709 0.512242 0.131010
C10   C     C_R   0.759323 0.395359 0.496045 0.468682
C11   C     C_R   0.699973 0.393672 0.495421 0.395487
C12   C     C_R   0.964898 0.448467 0.755294 0.287612
C13   C     C_R   0.670671 0.504546 0.495858 -0.079366
C14   C     C_R   0.700939 0.618078 0.497202 0.178357
C15   C     C_R   0.760727 0.619712 0.499855 0.246692
C16   C     C_R   0.497973 0.736929 0.502000 0.607820
C17   C     C_R   0.789897 0.507905 0.498901 0.110226
C18   C     C_R   0.410833 0.126719 0.665727 0.474962
C19   C     C_R   0.375896 0.063542 0.759505 0.003172
C20   C     C_R   0.381323 0.937921 0.774106 -0.111938
C21   C     C_R   0.420619 0.873828 0.692067 -0.036159
C22   C     C_R   0.457196 0.935349 0.596269 -0.083260
C23   C     C_R   0.024957 0.450563 0.758426 0.269476
C24   C     C_R   0.454055 0.065264 0.586932 -0.023524
C25   C     C_R   0.493013 0.128211 0.496462 -0.034591
C26   C     C_R   0.530366 0.061241 0.408855 0.250449
C27   C     C_R   0.530304 0.934126 0.411784 0.429379
C28   C     C_R   0.608511 0.500854 0.498638 0.656314
C29   C     C_R   0.495213 0.870762 0.505862 0.006422
C30   C     C_R   0.603548 0.533577 0.119261 0.204669
C31   C     C_R   0.645377 0.612915 0.065773 -0.067644
C32   C     C_R   0.635234 0.672709 0.944408 0.436392
C33   C     C_R   0.586246 0.642008 0.870260 0.428182
C34   C     C_R   0.057992 0.480985 0.638557 0.011123
C35   C     C_R   0.543293 0.561358 0.927020 -0.006065
C36   C     C_R   0.547678 0.538605 0.070629 0.046747
C37   C     C_R   0.457408 0.444821 0.072716 0.357146
C38   C     C_R   0.458019 0.443666 0.925829 0.527694
C39   C     C_R   0.882197 0.534971 0.387251 0.504222
C40   C     C_R   0.876235 0.481617 0.624954 0.507072
C41   C     C_R   0.936481 0.479252 0.633102 0.000909
C42   C     C_R   0.969321 0.509545 0.513579 -0.123048
C43   C     C_R   0.941933 0.538596 0.389831 0.047334
C44   C     C_R   0.029656 0.510639 0.516576 -0.083831
C45   C     C_R   0.061690 0.541507 0.396277 -0.011611
C46   C     C_R   0.033899 0.571749 0.275765 -0.018630
C47   C     C_R   0.974861 0.570510 0.272022 0.446902
C48   C     C_R   0.118552 0.481710 0.634167 0.473462
Cl1   Cl    Cl    0.927171 0.402619 0.907484 -0.250427
Cl2   Cl    Cl    0.664159 0.758053 0.496974 -0.261982
Cl3   Cl    Cl    0.799329 0.761216 0.508194 -0.285302
Cl4   Cl    Cl    0.580836 0.132606 0.297565 -0.254406
Cl5   Cl    Cl    0.405450 0.349560 0.150222 -0.394843
Cl6   Cl    Cl    0.056715 0.414169 0.916681 -0.355055
Cl7   Cl    Cl    0.629564 0.387237 0.155607 -0.400338
Cl8   Cl    Cl    0.328597 0.254051 0.408815 -0.371617
Cl9   Cl    Cl    0.194330 0.265669 0.417782 -0.365935
Cu1   Cu    Cu3+1 0.500000 0.499990 0.640660 1.204907
Cu2   Cu    Cu3+1 0.500000 0.500010 0.359340 1.192291
F1    F     F_    0.670941 0.283938 0.495349 -0.490785
F2    F     F_    0.398682 0.245835 0.646675 -0.554067
F3    F     F_    0.566672 0.871856 0.325137 -0.526761
F4    F     F_    0.675992 0.748902 0.889645 -0.478732
F5    F     F_    0.581512 0.700643 0.751196 -0.535141
F6    F     F_    0.415170 0.384663 0.858285 -0.528405
F7    F     F_    0.950455 0.602074 0.152577 -0.498949
F8    F     F_    0.331049 0.708254 0.584378 -0.645812
F9    F     F_    0.787378 0.287425 0.495074 -0.470757
H1    H     H_    0.343483 0.112133 0.819203 0.201889
H2    H     H_    0.353627 0.889022 0.846184 0.176352
H3    H     H_    0.420424 0.775631 0.704361 0.201821
H4    H     H_    0.687829 0.615977 0.107479 0.209309
H5    H     H_    0.057823 0.596527 0.183082 0.224864
H6    H     H_    0.220589 0.692398 0.585924 0.189754
N1    N     N_R   0.851022 0.508063 0.503685 -0.383463
N2    N     N_R   0.148100 0.510294 0.515404 -0.385985
N3    N     N_R   0.500540 0.501210 0.147910 -0.267858
N4    N     N_R   0.500560 0.501290 0.852040 -0.267566
O1    O     O_R   0.500000 0.319640 0.618810 -0.438738
O2    O     O_R   0.582120 0.500020 0.618760 -0.458285
O3    O     O_R   0.582120 0.500050 0.381190 -0.460003
O4    O     O_2   0.855077 0.558012 0.269556 -0.306790
O5    O     O_2   0.842499 0.459267 0.736495 -0.328425
O6    O     O_2   0.148273 0.453260 0.745886 -0.360869
O7    O     O_2   0.152202 0.569661 0.283884 -0.413516
O8    O     O_R   0.500000 0.319660 0.381240 -0.434252
O9    O     O_R   0.417880 0.499950 0.618810 -0.416882
O10   O     O_R   0.417880 0.499980 0.381240 -0.475089
O11   O     O_R   0.500000 0.680340 0.618760 -0.470703
O12   O     O_R   0.500000 0.680360 0.381190 -0.470556

loop_
_geom_bond_atom_site_label_1
_geom_bond_atom_site_label_2
_ccdc_geom_bond_type
C16   O12   A    
C22   C29   A    
C27   C29   A    
C41   C42   A    
C48   N2    A    
C19   C20   A    
C5    F8    S    
Cu1   O9    S    
Cu2   N3    S    
C12   Cl1   S    
C7    C8    A    
C4    O9    A    
C45   C46   A    
C12   C23   A    
C26   C27   A    
C37   C38   A    
C21   H3    S    
C18   C24   A    
C5    C6    A    
C36   N3    A    
C30   C31   A    
C10   C17   A    
C2    O7    S    
C18   C19   A    
C3    H6    S    
Cu2   O10   S    
C35   C36   A    
C8    C9    A    
C13   C28   S    
C9    N2    S    
C15   Cl3   S    
C47   F7    S    
Cu1   O2    S    
C37   Cl5   S    
C16   O11   A    
C21   C22   A    
C1    C25   S    
C40   O5    S    
C20   H2    S    
C42   C44   A    
C7    Cl8   S    
C2    C45   A    
C34   C44   A    
C24   C25   A    
C32   F4    S    
C4    C6    S    
C39   C43   A    
C38   N4    A    
C16   C29   S    
C37   N3    A    
C48   O6    S    
Cu2   O12   S    
C12   C41   A    
C3    C9    A    
C27   F3    S    
C26   Cl4   S    
C8    Cl9   S    
C31   C32   A    
C38   F6    S    
C23   C34   A    
Cu1   O1    S    
C31   H4    S    
C39   N1    A    
C1    O1    A    
C22   C24   A    
C19   H1    S    
C34   C48   A    
C42   C43   A    
C11   F1    S    
C2    N2    A    
C44   C45   A    
C23   Cl6   S    
C1    O8    A    
C15   C17   A    
C46   C47   A    
C40   C41   A    
C28   O3    A    
Cu2   O3    S    
C39   O4    S    
C3    C5    A    
C18   F2    S    
C6    C7    A    
C4    O10   A    
C10   F9    S    
C30   Cl7   S    
C35   N4    A    
C40   N1    A    
C30   C36   A    
C32   C33   A    
C25   C26   A    
Cu2   O8    S    
C11   C13   A    
C14   Cl2   S    
C33   F5    S    
C33   C35   A    
C28   O2    A    
Cu1   O11   S    
Cu1   Cu2   S    
C10   C11   A    
Cu1   N4    S    
C20   C21   A    
C17   N1    S    
C14   C15   A    
C13   C14   A    
C43   C47   A    
C46   H5    S    
