data_mof_unit_63078.cif
_audit_creation_date              2012-12-10T19:46:44-0500
_audit_creation_method            fapswitch 2.2
_symmetry_space_group_name_H-M    P1
_symmetry_Int_Tables_number       1
_space_group_crystal_system       tetragonal
_cell_length_a                    18.536552
_cell_length_b                    18.536552
_cell_length_c                    32.789889
_cell_angle_alpha                 90.0
_cell_angle_beta                  90.0
_cell_angle_gamma                 90.0
_cell_volume                      11266.729152

loop_
_atom_site_label
_atom_site_type_symbol
_atom_type_description
_atom_site_fract_x
_atom_site_fract_y
_atom_site_fract_z
_atom_type_partial_charge
C1    C     C_R   0.500000 0.000000 0.896055 0.488617
C2    C     C_1   0.500000 1.000000 0.768818 -0.002988
C3    C     C_3   0.297341 0.356133 0.447914 -0.265685
C4    C     C_3   0.643866 0.702659 0.447914 -0.265685
C5    C     C_3   0.702659 0.356133 0.447915 -0.265685
C6    C     C_3   0.356133 0.297341 0.447914 -0.265685
C7    C     C_3   0.297341 0.643866 0.447915 -0.265685
C8    C     C_1   0.500000 0.000000 0.149161 -0.007936
C9    C     C_1   0.000000 0.500000 0.149161 -0.007936
C10   C     C_1   0.000000 0.500000 0.649161 -0.007936
C11   C     C_1   0.500000 0.000000 0.649161 -0.007936
C12   C     C_1   0.500000 0.000000 0.186775 -0.037488
C13   C     C_1   0.500000 0.000000 0.268818 -0.002988
C14   C     C_1   0.000000 0.500000 0.186775 -0.037488
C15   C     C_1   0.000000 0.500000 0.686775 -0.037488
C16   C     C_1   0.500000 0.000000 0.686775 -0.037488
C17   C     C_1   0.000000 0.500000 0.268818 -0.002988
C18   C     C_1   1.000000 0.500000 0.813247 -0.039592
C19   C     C_1   0.500000 1.000000 0.813247 -0.039592
C20   C     C_1   0.500000 0.000000 0.313247 -0.039592
C21   C     C_1   0.000000 0.500000 0.313247 -0.039592
C22   C     C_1   1.000000 0.500000 0.850861 -0.010680
C23   C     C_1   0.500000 1.000000 0.850861 -0.010680
C24   C     C_1   0.500000 0.000000 0.350861 -0.010680
C25   C     C_R   0.000000 0.500000 0.896055 0.488617
C26   C     C_1   0.000000 0.500000 0.350861 -0.010680
C27   C     C_R   0.500000 0.000000 0.103965 0.489173
C28   C     C_R   0.000000 0.500000 0.103965 0.489173
C29   C     C_R   0.000000 0.500000 0.603965 0.489173
C30   C     C_R   0.500000 0.000000 0.603965 0.489173
C31   C     C_R   0.640363 0.859572 0.000055 0.514588
C32   C     C_R   0.140428 0.640363 0.000055 0.514588
C33   C     C_R   0.359637 0.140428 0.000055 0.514588
C34   C     C_R   0.859572 0.359637 0.000055 0.514588
C35   C     C_R   0.640363 0.140428 0.000055 0.514588
C36   C     C_R   0.000000 0.500000 0.396055 0.488617
C37   C     C_R   0.140428 0.359637 0.000055 0.514588
C38   C     C_R   0.359637 0.859572 0.000055 0.514588
C39   C     C_R   0.859572 0.640363 0.000055 0.514588
C40   C     C_R   0.140363 0.359571 0.500055 0.514588
C41   C     C_R   0.640428 0.140363 0.500055 0.514588
C42   C     C_R   0.859637 0.640428 0.500055 0.514588
C43   C     C_R   0.359571 0.859637 0.500055 0.514588
C44   C     C_R   0.140363 0.640428 0.500055 0.514588
C45   C     C_R   0.640428 0.859637 0.500055 0.514588
C46   C     C_R   0.859637 0.359571 0.500055 0.514588
C47   C     C_R   0.500000 0.000000 0.396055 0.488617
C48   C     C_R   0.359571 0.140363 0.500055 0.514588
C49   C     C_R   0.242433 0.809122 0.977081 0.019874
C50   C     C_R   0.190878 0.242433 0.977081 0.019873
C51   C     C_R   0.757567 0.190878 0.977081 0.019874
C52   C     C_R   0.809122 0.757567 0.977081 0.019873
C53   C     C_R   0.242433 0.190878 0.977081 0.019873
C54   C     C_R   0.190878 0.757567 0.977081 0.019874
C55   C     C_R   0.757567 0.809122 0.977081 0.019873
C56   C     C_R   0.809122 0.242433 0.977081 0.019874
C57   C     C_R   0.742433 0.309121 0.477081 0.019874
C58   C     C_1   0.500000 0.000000 0.231205 -0.002379
C59   C     C_R   0.690878 0.742433 0.477081 0.019873
C60   C     C_R   0.257567 0.690878 0.477081 0.019874
C61   C     C_R   0.309121 0.257567 0.477081 0.019873
C62   C     C_R   0.742433 0.690878 0.477081 0.019873
C63   C     C_R   0.690878 0.257567 0.477081 0.019874
C64   C     C_R   0.257567 0.309121 0.477081 0.019873
C65   C     C_R   0.309121 0.742433 0.477081 0.019874
C66   C     C_R   0.304804 0.803680 0.000318 0.028189
C67   C     C_R   0.196320 0.304804 0.000318 0.028189
C68   C     C_R   0.695196 0.196320 0.000318 0.028189
C69   C     C_1   0.000000 0.500000 0.231205 -0.002379
C70   C     C_R   0.803680 0.695196 0.000318 0.028189
C71   C     C_R   0.304804 0.196320 0.000318 0.028189
C72   C     C_R   0.196320 0.695196 0.000318 0.028189
C73   C     C_R   0.695196 0.803680 0.000318 0.028189
C74   C     C_R   0.803680 0.304804 0.000318 0.028189
C75   C     C_R   0.804804 0.303680 0.500318 0.028189
C76   C     C_R   0.696320 0.804804 0.500318 0.028189
C77   C     C_R   0.195196 0.696320 0.500318 0.028189
C78   C     C_R   0.303680 0.195196 0.500318 0.028189
C79   C     C_R   0.804804 0.696320 0.500318 0.028189
C80   C     C_1   0.000000 0.500000 0.731205 -0.002379
C81   C     C_R   0.696320 0.195196 0.500318 0.028189
C82   C     C_R   0.195196 0.303680 0.500318 0.028189
C83   C     C_R   0.303680 0.804804 0.500318 0.028189
C84   C     C_R   0.312763 0.740993 0.024455 -0.157722
C85   C     C_R   0.259006 0.312763 0.024455 -0.157722
C86   C     C_R   0.687237 0.259006 0.024455 -0.157722
C87   C     C_R   0.740993 0.687237 0.024455 -0.157722
C88   C     C_R   0.312763 0.259006 0.024455 -0.157722
C89   C     C_R   0.259006 0.687237 0.024455 -0.157722
C90   C     C_R   0.687237 0.740993 0.024455 -0.157722
C91   C     C_1   0.500000 0.000000 0.731205 -0.002379
C92   C     C_R   0.740993 0.312763 0.024455 -0.157722
C93   C     C_R   0.812763 0.240993 0.524455 -0.157722
C94   C     C_R   0.759007 0.812763 0.524455 -0.157722
C95   C     C_R   0.187237 0.759007 0.524455 -0.157722
C96   C     C_R   0.240993 0.187237 0.524455 -0.157722
C97   C     C_R   0.812763 0.759007 0.524455 -0.157722
C98   C     C_R   0.759007 0.187237 0.524455 -0.157722
C99   C     C_R   0.187237 0.240993 0.524455 -0.157722
C100  C     C_R   0.240993 0.812763 0.524455 -0.157722
C101  C     C_3   0.143866 0.797341 0.947915 -0.265685
C102  C     C_1   1.000000 0.500000 0.768818 -0.002988
C103  C     C_3   0.202659 0.143866 0.947914 -0.265685
C104  C     C_3   0.856133 0.202659 0.947915 -0.265685
C105  C     C_3   0.797341 0.856133 0.947914 -0.265685
C106  C     C_3   0.143866 0.202659 0.947914 -0.265685
C107  C     C_3   0.202659 0.856133 0.947915 -0.265685
C108  C     C_3   0.856134 0.797341 0.947914 -0.265685
C109  C     C_3   0.797341 0.143866 0.947915 -0.265685
C110  C     C_3   0.643866 0.297341 0.447915 -0.265685
C111  C     C_3   0.702659 0.643866 0.447914 -0.265685
C112  C     C_3   0.356133 0.702659 0.447915 -0.265685
H1    H     H_    0.360167 0.733350 0.043269 0.142905
H2    H     H_    0.766650 0.860167 0.543269 0.142905
H3    H     H_    0.139832 0.766650 0.543269 0.142905
H4    H     H_    0.233350 0.139833 0.543269 0.142905
H5    H     H_    0.860167 0.766650 0.543269 0.142905
H6    H     H_    0.766650 0.139832 0.543269 0.142905
H7    H     H_    0.139833 0.233350 0.543269 0.142905
H8    H     H_    0.233350 0.860167 0.543269 0.142905
H9    H     H_    0.138492 0.768786 0.918262 0.146580
H10   H     H_    0.231214 0.138492 0.918262 0.146580
H11   H     H_    0.861508 0.231214 0.918262 0.146580
H12   H     H_    0.266650 0.360167 0.043269 0.142905
H13   H     H_    0.768786 0.861507 0.918262 0.146580
H14   H     H_    0.138492 0.231214 0.918262 0.146580
H15   H     H_    0.231214 0.861508 0.918262 0.146580
H16   H     H_    0.861507 0.768786 0.918262 0.146580
H17   H     H_    0.768786 0.138492 0.918262 0.146580
H18   H     H_    0.638492 0.268786 0.418262 0.146580
H19   H     H_    0.731214 0.638492 0.418262 0.146580
H20   H     H_    0.361508 0.731214 0.418262 0.146580
H21   H     H_    0.268786 0.361507 0.418262 0.146580
H22   H     H_    0.638492 0.731214 0.418262 0.146580
H23   H     H_    0.639833 0.266650 0.043269 0.142905
H24   H     H_    0.731214 0.361508 0.418262 0.146580
H25   H     H_    0.361507 0.268786 0.418262 0.146580
H26   H     H_    0.268786 0.638492 0.418262 0.146580
H27   H     H_    0.092355 0.814949 0.962138 0.138205
H28   H     H_    0.185051 0.092355 0.962138 0.138205
H29   H     H_    0.907645 0.185051 0.962138 0.138205
H30   H     H_    0.814949 0.907645 0.962138 0.138205
H31   H     H_    0.092355 0.185051 0.962138 0.138205
H32   H     H_    0.185051 0.907645 0.962138 0.138205
H33   H     H_    0.907645 0.814949 0.962138 0.138205
H34   H     H_    0.733350 0.639833 0.043269 0.142905
H35   H     H_    0.814949 0.092355 0.962138 0.138205
H36   H     H_    0.592355 0.314949 0.462138 0.138205
H37   H     H_    0.685051 0.592355 0.462138 0.138205
H38   H     H_    0.407645 0.685051 0.462138 0.138205
H39   H     H_    0.314949 0.407645 0.462138 0.138205
H40   H     H_    0.592355 0.685051 0.462138 0.138205
H41   H     H_    0.685051 0.407645 0.462138 0.138205
H42   H     H_    0.407645 0.314949 0.462138 0.138205
H43   H     H_    0.314949 0.592355 0.462138 0.138205
H44   H     H_    0.360167 0.266650 0.043269 0.142905
H45   H     H_    0.266650 0.639833 0.043269 0.142905
H46   H     H_    0.639833 0.733350 0.043269 0.142905
H47   H     H_    0.733350 0.360167 0.043269 0.142905
H48   H     H_    0.860167 0.233350 0.543269 0.142905
O1    O     O_3   0.500000 0.000000 0.000010 -0.418708
O2    O     O_R   0.500000 0.939250 0.416010 -0.532945
O3    O     O_R   0.060750 0.500000 0.416010 -0.532945
O4    O     O_R   0.500000 0.060750 0.416010 -0.532945
O5    O     O_R   0.500000 0.939250 0.084010 -0.530785
O6    O     O_R   0.060750 0.500000 0.084010 -0.530785
O7    O     O_R   0.500000 0.060750 0.084010 -0.530785
O8    O     O_R   0.939250 0.500000 0.084010 -0.530785
O9    O     O_R   0.000000 0.439250 0.584010 -0.530785
O10   O     O_R   0.560750 0.000000 0.584010 -0.530785
O11   O     O_R   0.000000 0.560750 0.584010 -0.530785
O12   O     O_3   1.000000 0.500000 0.000010 -0.418708
O13   O     O_R   0.439250 0.000000 0.584010 -0.530785
O14   O     O_R   0.646150 0.914530 0.977990 -0.541411
O15   O     O_R   0.085470 0.646150 0.977990 -0.541411
O16   O     O_R   0.353850 0.085470 0.977990 -0.541411
O17   O     O_R   0.914530 0.353850 0.977990 -0.541411
O18   O     O_R   0.646150 0.085470 0.977990 -0.541411
O19   O     O_R   0.085470 0.353850 0.977990 -0.541411
O20   O     O_R   0.353850 0.914530 0.977990 -0.541411
O21   O     O_R   0.914530 0.646150 0.977990 -0.541411
O22   O     O_R   0.146150 0.414530 0.477990 -0.541411
O23   O     O_3   0.000000 0.500000 0.500010 -0.418708
O24   O     O_R   0.585470 0.146150 0.477990 -0.541411
O25   O     O_R   0.853850 0.585470 0.477990 -0.541411
O26   O     O_R   0.414530 0.853850 0.477990 -0.541411
O27   O     O_R   0.146150 0.585470 0.477990 -0.541411
O28   O     O_R   0.585470 0.853850 0.477990 -0.541411
O29   O     O_R   0.853850 0.414530 0.477990 -0.541411
O30   O     O_R   0.414530 0.146150 0.477990 -0.541411
O31   O     O_R   0.414550 0.146120 0.022030 -0.546785
O32   O     O_R   0.853880 0.414550 0.022030 -0.546785
O33   O     O_R   0.585450 0.853880 0.022030 -0.546785
O34   O     O_3   0.500000 0.000000 0.500010 -0.418708
O35   O     O_R   0.146120 0.585450 0.022030 -0.546785
O36   O     O_R   0.414550 0.853880 0.022030 -0.546785
O37   O     O_R   0.853880 0.585450 0.022030 -0.546785
O38   O     O_R   0.585450 0.146120 0.022030 -0.546785
O39   O     O_R   0.146120 0.414550 0.022030 -0.546785
O40   O     O_R   0.914550 0.646120 0.522030 -0.546785
O41   O     O_R   0.353880 0.914550 0.522030 -0.546785
O42   O     O_R   0.085450 0.353880 0.522030 -0.546785
O43   O     O_R   0.646120 0.085450 0.522030 -0.546785
O44   O     O_R   0.914550 0.353880 0.522030 -0.546785
O45   O     O_R   0.439250 0.000000 0.916010 -0.532945
O46   O     O_R   0.353880 0.085450 0.522030 -0.546785
O47   O     O_R   0.085450 0.646120 0.522030 -0.546785
O48   O     O_R   0.646120 0.914550 0.522030 -0.546785
O49   O     O_R   0.000000 0.439250 0.916010 -0.532945
O50   O     O_R   0.560750 0.000000 0.916010 -0.532945
O51   O     O_R   0.000000 0.560750 0.916010 -0.532945
O52   O     O_R   0.939250 0.500000 0.416010 -0.532945
Zn1   Zn    Zn3+2 0.500000 0.913220 0.031480 0.940435
Zn2   Zn    Zn3+2 0.000000 0.586740 0.968550 0.936809
Zn3   Zn    Zn3+2 0.413260 0.000000 0.968550 0.936809
Zn4   Zn    Zn3+2 0.000000 0.413260 0.968550 0.936809
Zn5   Zn    Zn3+2 0.086740 0.500000 0.468550 0.936809
Zn6   Zn    Zn3+2 0.500000 0.086740 0.468550 0.936809
Zn7   Zn    Zn3+2 0.913260 0.500000 0.468550 0.936809
Zn8   Zn    Zn3+2 0.500000 0.913260 0.468550 0.936809
Zn9   Zn    Zn3+2 0.086780 0.500000 0.031480 0.940435
Zn10  Zn    Zn3+2 0.500000 0.086780 0.031480 0.940435
Zn11  Zn    Zn3+2 0.913220 0.500000 0.031480 0.940435
Zn12  Zn    Zn3+2 0.000000 0.413220 0.531480 0.940435
Zn13  Zn    Zn3+2 0.586780 0.000000 0.531480 0.940435
Zn14  Zn    Zn3+2 0.000000 0.586780 0.531480 0.940435
Zn15  Zn    Zn3+2 0.413220 0.000000 0.531480 0.940435
Zn16  Zn    Zn3+2 0.586740 0.000000 0.968550 0.936809

loop_
_geom_bond_atom_site_label_1
_geom_bond_atom_site_label_2
_ccdc_geom_bond_type
C101  C107  S    
C5    H24   S    
C21   C26   T    
C52   C70   A    
C17   C69   T    
C84   H1    S    
C72   C89   A    
C87   H34   S    
C93   H48   S    
C68   C86   A    
C82   C99   A    
C54   C101  S    
C93   C98   A    
C3    C6    S    
C94   H2    S    
C106  H31   S    
O34   Zn6   S    
C104  H11   S    
C3    C64   S    
O33   Zn1   S    
C75   C93   A    
C55   C105  S    
C92   H47   S    
C88   H44   S    
C6    C61   S    
C44   C77   S    
O38   Zn10  S    
C53   C103  S    
C73   C90   A    
C10   C15   T    
C63   C81   A    
C104  C109  S    
O5    Zn1   S    
O12   Zn2   S    
C31   C73   S    
O9    Zn12  S    
C5    C110  S    
C48   C78   S    
C49   C54   A    
C96   C99   A    
O30   Zn6   S    
C26   C36   S    
O1    Zn3   S    
C43   C83   S    
C7    C112  S    
O23   Zn14  S    
C85   H12   S    
C51   C56   A    
C18   C102  S    
C74   C92   A    
C25   O51   A    
C33   O16   A    
O14   Zn16  S    
C30   O10   A    
O12   Zn9   S    
C76   C94   A    
C47   O2    A    
C62   C111  S    
C38   C66   S    
C11   C30   S    
C78   C96   A    
O23   Zn12  S    
C22   C25   S    
O19   Zn4   S    
C43   O41   A    
C36   O3    A    
C41   O24   A    
C98   H6    S    
O21   Zn2   S    
C100  H8    S    
C41   O43   A    
C1    O45   A    
C50   C67   A    
C30   O13   A    
C48   O30   A    
C52   C55   A    
C28   O6    A    
O1    Zn16  S    
C12   C58   S    
C35   O18   A    
O24   Zn6   S    
C39   O37   A    
C52   C108  S    
C42   C79   S    
O23   Zn5   S    
O44   Zn12  S    
O17   Zn4   S    
C109  H35   S    
C32   O35   A    
C110  H36   S    
C70   C87   A    
C111  H37   S    
O6    Zn9   S    
C46   C75   S    
C32   O15   A    
C57   C63   A    
C40   O22   A    
O28   Zn8   S    
O22   Zn5   S    
C101  H27   S    
C37   O19   A    
C105  C108  S    
O2    Zn8   S    
C60   C77   A    
C67   C85   A    
O49   Zn4   S    
C38   O20   A    
C49   C66   A    
O18   Zn16  S    
C112  H20   S    
C50   C53   A    
O15   Zn2   S    
C20   C24   T    
C62   C79   A    
C56   C74   A    
C56   C104  S    
C49   C107  S    
O13   Zn15  S    
C95   H3    S    
C105  H30   S    
C31   O33   A    
C28   O8    A    
C95   C100  A    
O42   Zn12  S    
O34   Zn8   S    
C13   C58   T    
C43   O26   A    
O26   Zn8   S    
C77   C95   A    
C44   O47   A    
C17   C21   S    
C80   C102  T    
O8    Zn11  S    
C3    H21   S    
O34   Zn15  S    
C90   H46   S    
C61   C64   A    
C19   C23   T    
C9    C14   T    
O7    Zn10  S    
C40   C82   S    
O48   Zn13  S    
C11   C16   T    
O47   Zn14  S    
C15   C80   S    
O11   Zn14  S    
C61   C78   A    
C8    C12   T    
C41   C81   S    
O1    Zn10  S    
C1    O50   A    
O16   Zn3   S    
C54   C72   A    
O40   Zn14  S    
C29   O11   A    
C4    H40   S    
C25   O49   A    
O31   Zn10  S    
C64   C82   A    
C35   O38   A    
C39   O21   A    
C36   O52   A    
O39   Zn9   S    
C47   O4    A    
O3    Zn5   S    
C42   O25   A    
C111  H19   S    
C4    C111  S    
C27   O5    A    
C60   C65   A    
C1    C23   S    
C45   O48   A    
C83   C100  A    
C45   C76   S    
C109  H17   S    
C14   C69   S    
C112  H38   S    
O10   Zn13  S    
C84   C89   A    
C65   C112  S    
C53   C71   A    
C7    C60   S    
O43   Zn13  S    
O34   Zn13  S    
C4    H22   S    
C108  H33   S    
O27   Zn5   S    
C85   C88   A    
O4    Zn6   S    
O41   Zn15  S    
O1    Zn1   S    
C59   C62   A    
O23   Zn7   S    
O25   Zn7   S    
C13   C20   S    
C2    C19   S    
C18   C22   T    
C24   C47   S    
O50   Zn16  S    
C79   C97   A    
O20   Zn3   S    
O32   Zn11  S    
C40   O42   A    
O37   Zn11  S    
C34   O17   A    
C7    H26   S    
C45   O28   A    
C89   H45   S    
O52   Zn7   S    
C105  H13   S    
C46   O44   A    
C99   H7    S    
C106  H14   S    
C3    H39   S    
C94   C97   A    
C5    C57   S    
C33   O31   A    
C57   C75   A    
C63   C110  S    
C42   O40   A    
C107  H15   S    
O12   Zn11  S    
C86   C92   A    
C103  H28   S    
O36   Zn1   S    
C6    H42   S    
C10   C29   S    
C35   C68   S    
C6    H25   S    
C5    H41   S    
C37   C67   S    
C4    C59   S    
C34   O32   A    
C39   C70   S    
C38   O36   A    
C110  H18   S    
C103  C106  S    
C51   C68   A    
C37   O39   A    
O35   Zn9   S    
C97   H5    S    
C2    C91   T    
C101  H9    S    
C65   C83   A    
C33   C71   S    
C44   O27   A    
C66   C84   A    
C71   C88   A    
C55   C73   A    
C86   H23   S    
O51   Zn2   S    
C7    H43   S    
O45   Zn3   S    
C16   C91   S    
C51   C109  S    
C81   C98   A    
C87   C90   A    
C48   O46   A    
O46   Zn15  S    
C50   C106  S    
C8    C27   S    
C104  H29   S    
C96   H4    S    
C108  H16   S    
C34   C74   S    
C46   O29   A    
C29   O9    A    
C107  H32   S    
O12   Zn4   S    
C103  H10   S    
C59   C76   A    
O29   Zn7   S    
C9    C28   S    
C27   O7    A    
C32   C72   S    
C31   O14   A    
