data_mof_unit_35181.cif
_audit_creation_date              2012-12-10T18:33:39-0500
_audit_creation_method            fapswitch 2.2
_symmetry_space_group_name_H-M    P1
_symmetry_Int_Tables_number       1
_space_group_crystal_system       triclinic
_cell_length_a                    10.507003
_cell_length_b                    15.013236
_cell_length_c                    15.519255
_cell_angle_alpha                 81.648088
_cell_angle_beta                  89.879535
_cell_angle_gamma                 104.763771
_cell_volume                      2340.18320722

loop_
_atom_site_label
_atom_site_type_symbol
_atom_type_description
_atom_site_fract_x
_atom_site_fract_y
_atom_site_fract_z
_atom_type_partial_charge
C1    C     C_R   0.480638 0.441282 0.661911 0.874855
C2    C     C_R   0.499468 0.487450 0.045159 0.032061
C3    C     C_R   0.472405 0.391854 0.079849 -0.227307
C4    C     C_R   0.527820 0.608151 0.920148 -0.227322
C5    C     C_R   0.466730 0.322586 0.027473 0.188529
C6    C     C_R   0.533493 0.677420 0.972521 0.188533
C7    C     C_R   0.703050 0.842551 0.634323 0.105127
C8    C     C_R   0.297000 0.157464 0.365641 0.105112
C9    C     C_R   0.666081 0.752967 0.612560 -0.006381
C10   C     C_R   0.333943 0.247041 0.387424 -0.006378
C11   C     C_R   0.513441 0.793876 0.512030 -0.083290
C12   C     C_R   0.519369 0.558718 0.338089 0.874854
C13   C     C_R   0.486559 0.206124 0.487968 -0.083290
C14   C     C_R   0.543873 0.885838 0.530788 -0.044016
C15   C     C_R   0.456162 0.114172 0.469186 -0.044012
C16   C     C_R   0.742396 0.500981 0.500377 0.882628
C17   C     C_R   0.257604 0.499019 0.499622 0.882632
C18   C     C_R   0.641487 0.910068 0.592890 0.153322
C19   C     C_R   0.358566 0.089948 0.407071 0.153314
C20   C     C_R   0.481539 0.953868 0.489576 0.101797
C21   C     C_R   0.518511 0.046145 0.510387 0.101797
C22   C     C_R   0.616812 0.067536 0.571570 -0.245693
C23   C     C_R   0.462144 0.463994 0.812566 -0.256611
C24   C     C_R   0.383260 0.932484 0.428376 -0.245686
C25   C     C_R   0.676134 0.001103 0.611881 -0.207046
C26   C     C_R   0.323943 0.998919 0.388064 -0.207047
C27   C     C_3   0.930148 0.428362 0.558097 -0.222895
C28   C     C_3   0.069851 0.571638 0.441902 -0.222894
C29   C     C_3   0.044958 0.507814 0.579103 0.237718
C30   C     C_3   0.955041 0.492186 0.420896 0.237722
C31   C     C_3   0.121991 0.497666 0.499347 -0.030025
C32   C     C_3   0.878009 0.502334 0.500653 -0.030021
C33   C     C_3   0.009151 0.418096 0.477261 -0.187367
C34   C     C_R   0.537972 0.536011 0.187441 -0.256607
C35   C     C_3   0.990849 0.581904 0.522738 -0.187365
C36   C     C_R   0.472845 0.404722 0.754550 -0.108302
C37   C     C_R   0.527212 0.595279 0.245450 -0.108297
C38   C     C_R   0.491574 0.286117 0.874863 0.219625
C39   C     C_R   0.508563 0.713888 0.125120 0.219627
C40   C     C_R   0.488580 0.316448 0.785083 -0.208876
C41   C     C_R   0.511489 0.683553 0.214905 -0.208880
C42   C     C_3   0.099281 0.515992 0.669236 -0.915670
C43   C     C_3   0.900717 0.484008 0.330763 -0.915680
C44   C     C_3   0.807947 0.864042 0.700051 -0.968854
C45   C     C_R   0.482094 0.442119 0.900863 0.023672
C46   C     C_3   0.192133 0.135982 0.299893 -0.968825
C47   C     C_3   0.430437 0.222972 0.073363 -0.915170
C48   C     C_3   0.569822 0.777034 0.926631 -0.915171
C49   C     C_3   0.521220 0.192667 0.900147 -0.926384
C50   C     C_3   0.478946 0.807345 0.099819 -0.926371
C51   C     C_R   0.518078 0.557886 0.099136 0.023676
C52   C     C_R   0.481300 0.348294 0.935316 0.114913
C53   C     C_R   0.518879 0.651712 0.064676 0.114911
C54   C     C_R   0.500736 0.512555 0.954840 0.032052
H1    H     H_    0.556617 0.231140 0.534870 0.136632
H2    H     H_    0.979927 0.648080 0.541931 0.155480
H3    H     H_    0.562062 0.471738 0.212886 0.166683
H4    H     H_    0.438056 0.528272 0.787136 0.166695
H5    H     H_    0.499156 0.728243 0.261526 0.157141
H6    H     H_    0.500876 0.271755 0.738455 0.157146
H7    H     H_    0.450877 0.368939 0.148706 0.155236
H8    H     H_    0.549364 0.631060 0.851291 0.155237
H9    H     H_    0.750425 0.022573 0.658172 0.161561
H10   H     H_    0.249672 0.977454 0.341758 0.161560
H11   H     H_    0.020252 0.520069 0.714893 0.242040
H12   H     H_    0.443355 0.768850 0.465148 0.136638
H13   H     H_    0.135945 0.454132 0.693243 0.236266
H14   H     H_    0.181536 0.579825 0.666031 0.254034
H15   H     H_    0.979747 0.479932 0.285106 0.242042
H16   H     H_    0.818462 0.420175 0.333968 0.254032
H17   H     H_    0.864054 0.545869 0.306756 0.236268
H18   H     H_    0.842436 0.801683 0.726055 0.244478
H19   H     H_    0.894280 0.918669 0.668919 0.253964
H20   H     H_    0.768435 0.888718 0.755919 0.247341
H21   H     H_    0.157635 0.198339 0.273897 0.244481
H22   H     H_    0.231678 0.111330 0.244022 0.247343
H23   H     H_    0.288695 0.300485 0.357565 0.141065
H24   H     H_    0.105799 0.081340 0.331004 0.253956
H25   H     H_    0.404681 0.218091 0.143602 0.238359
H26   H     H_    0.341716 0.182114 0.044861 0.244678
H27   H     H_    0.514326 0.191205 0.071348 0.249856
H28   H     H_    0.595628 0.781913 0.856401 0.238364
H29   H     H_    0.485936 0.808808 0.928614 0.249855
H30   H     H_    0.658523 0.817886 0.955157 0.244680
H31   H     H_    0.546408 0.163708 0.842343 0.231761
H32   H     H_    0.608717 0.200297 0.940991 0.245247
H33   H     H_    0.434436 0.140449 0.933069 0.250257
H34   H     H_    0.711331 0.699523 0.642417 0.141057
H35   H     H_    0.453720 0.836305 0.157612 0.231758
H36   H     H_    0.565756 0.859558 0.066922 0.250254
H37   H     H_    0.391482 0.799726 0.058945 0.245249
H38   H     H_    0.651614 0.135518 0.590289 0.135522
H39   H     H_    0.348484 0.864510 0.409638 0.135516
H40   H     H_    0.869499 0.370913 0.605948 0.141741
H41   H     H_    0.130500 0.629087 0.394052 0.141740
H42   H     H_    0.020072 0.351920 0.458068 0.155480
N1    N     N_R   0.574200 0.731700 0.552740 -0.120182
N2    N     N_R   0.425800 0.268300 0.447260 -0.120184
O1    O     O_R   0.462600 0.383110 0.605620 -0.617768
O2    O     O_R   0.537400 0.616890 0.394380 -0.617764
O3    O     O_R   0.510210 0.531900 0.639510 -0.619837
O4    O     O_R   0.489790 0.468100 0.360490 -0.619841
O5    O     O_R   0.662240 0.425610 0.483080 -0.618325
O6    O     O_R   0.337760 0.574390 0.516920 -0.618325
O7    O     O_R   0.709860 0.574400 0.516970 -0.625826
O8    O     O_R   0.290140 0.425600 0.483030 -0.625822
Zn1   Zn    Zn3+2 0.468210 0.400660 0.477370 0.932214
Zn2   Zn    Zn3+2 0.531790 0.599340 0.522630 0.932218

loop_
_geom_bond_atom_site_label_1
_geom_bond_atom_site_label_2
_ccdc_geom_bond_type
C23   H4    S    
C38   C40   A    
C23   C45   A    
C29   C42   S    
C27   C29   S    
C34   C37   A    
C14   C18   A    
C47   H25   S    
C1    O1    A    
C46   H22   S    
C39   C41   A    
C38   C49   S    
C27   C33   S    
C15   C19   A    
C5    C47   S    
C34   C51   A    
C6    C48   S    
C28   H41   S    
C40   H6    S    
C17   O6    A    
C24   C26   A    
C9    H34   S    
C11   C14   A    
C38   C52   A    
O8    Zn1   S    
C4    H8    S    
C12   C37   S    
C25   H9    S    
C13   N2    A    
C10   N2    A    
C19   C26   A    
C49   H33   S    
C26   H10   S    
C16   O5    A    
N1    Zn2   S    
C50   H36   S    
C20   C24   A    
C28   C35   S    
C22   C25   A    
C42   H11   S    
C9    N1    A    
C31   C33   S    
C5    C52   A    
C11   H12   S    
O3    Zn2   S    
C27   C32   S    
C43   H15   S    
C21   C22   A    
C42   H14   S    
C18   C25   A    
C47   H26   S    
C46   H21   S    
C10   H23   S    
C3    H7    S    
O7    Zn2   S    
O2    Zn2   S    
C8    C19   A    
C32   C35   S    
C49   H31   S    
C36   C40   A    
C41   H5    S    
C4    C6    A    
C2    C54   A    
C46   H24   S    
C45   C52   A    
N2    Zn1   S    
C48   H30   S    
C51   C53   A    
C12   O4    A    
C14   C20   A    
C34   H3    S    
C50   H35   S    
C7    C18   A    
O4    Zn1   S    
C7    C44   S    
C44   H20   S    
C16   O7    A    
C45   C54   A    
C43   H16   S    
C13   C15   A    
C42   H13   S    
C17   C31   S    
C30   C43   S    
C6    C53   A    
C33   H42   S    
C1    O3    A    
O6    Zn2   S    
C7    C9    A    
C43   H17   S    
C30   C33   S    
C4    C54   A    
C35   H2    S    
C49   H32   S    
C28   C31   S    
C3    C5    A    
C16   C32   S    
O1    Zn1   S    
C29   C35   S    
C48   H29   S    
C11   N1    A    
C28   C30   S    
C2    C3    A    
C29   C31   S    
C17   O8    A    
C30   C32   S    
C39   C53   A    
C48   H28   S    
C44   H18   S    
C47   H27   S    
C37   C41   A    
C44   H19   S    
C8    C46   S    
C12   O2    A    
C2    C51   A    
C50   H37   S    
C15   C21   A    
C39   C50   S    
C20   C21   A    
C8    C10   A    
C23   C36   A    
C22   H38   S    
C27   H40   S    
O5    Zn1   S    
C24   H39   S    
C1    C36   S    
C13   H1    S    
