data_mof_unit_58636.cif
_audit_creation_date              2012-12-10T18:23:10-0500
_audit_creation_method            fapswitch 2.2
_symmetry_space_group_name_H-M    P1
_symmetry_Int_Tables_number       1
_space_group_crystal_system       triclinic
_cell_length_a                    14.950046
_cell_length_b                    14.024039
_cell_length_c                    10.48296
_cell_angle_alpha                 89.925746
_cell_angle_beta                  90.280771
_cell_angle_gamma                 89.89319
_cell_volume                      2197.82560866

loop_
_atom_site_label
_atom_site_type_symbol
_atom_type_description
_atom_site_fract_x
_atom_site_fract_y
_atom_site_fract_z
_atom_type_partial_charge
C1    C     C_R   0.326665 0.500046 0.500206 0.889712
C2    C     C_R   0.953219 0.356425 0.368511 -0.212889
C3    C     C_R   0.555541 0.797875 0.419766 -0.005488
C4    C     C_R   0.441681 0.202037 0.576116 -0.011453
C5    C     C_R   0.443377 0.797991 0.578971 0.002008
C6    C     C_R   0.558699 0.201827 0.424245 -0.002917
C7    C     C_R   0.441257 0.898777 0.580520 -0.104932
C8    C     C_R   0.560138 0.100936 0.421699 -0.107348
C9    C     C_R   0.556943 0.898567 0.417434 -0.103681
C10   C     C_R   0.439916 0.101256 0.577973 -0.107384
C11   C     C_R   0.499407 0.949331 0.499314 -0.054402
C12   C     C_R   0.673294 0.500065 0.499622 0.890427
C13   C     C_R   0.499652 0.050448 0.499389 -0.060588
C14   C     C_R   0.382740 0.949794 0.661062 0.350396
C15   C     C_R   0.621084 0.049825 0.344865 0.379696
C16   C     C_R   0.614651 0.949187 0.335690 0.331339
C17   C     C_R   0.379633 0.050573 0.655920 0.348474
C18   C     C_R   0.500423 0.500177 0.257182 0.868836
C19   C     C_R   0.500026 0.499863 0.742857 0.867733
C20   C     C_3   0.505325 0.590884 0.040569 -0.137159
C21   C     C_3   0.495807 0.409330 0.959662 -0.131222
C22   C     C_3   0.576338 0.540717 0.958017 -0.181740
C23   C     C_R   0.953390 0.501274 0.497527 0.055038
C24   C     C_3   0.424741 0.459583 0.042086 -0.178486
C25   C     C_3   0.429215 0.549667 0.957560 -0.175773
C26   C     C_3   0.571888 0.450678 0.042648 -0.177670
C27   C     C_3   0.500252 0.499494 0.877766 0.024983
C28   C     C_3   0.500787 0.500725 0.122338 0.029580
C29   C     C_R   0.814192 0.429008 0.433175 -0.267220
C30   C     C_R   0.185634 0.574052 0.560984 -0.262899
C31   C     C_R   0.768849 0.500697 0.498423 -0.064555
C32   C     C_R   0.231032 0.500109 0.500062 -0.066806
C33   C     C_R   0.814382 0.573836 0.561177 -0.259277
C34   C     C_R   0.046444 0.500932 0.498255 0.061157
C35   C     C_R   0.185431 0.426510 0.438348 -0.267527
C36   C     C_R   0.906928 0.574701 0.561271 0.119493
C37   C     C_R   0.092882 0.426978 0.435577 0.126912
C38   C     C_3   0.362797 0.894820 0.862525 0.088844
C39   C     C_3   0.301727 0.835536 0.947833 -0.326554
C40   C     C_3   0.339151 0.827788 0.083184 -0.974633
C41   C     C_3   0.771045 0.082992 0.326268 0.106682
C42   C     C_3   0.785904 0.138475 0.450834 -0.407677
C43   C     C_3   0.880909 0.125005 0.501606 -0.951781
C44   C     C_3   0.622289 0.892663 0.133221 0.085277
C45   C     C_R   0.906736 0.428371 0.432699 0.130915
C46   C     C_3   0.677708 0.831771 0.042023 -0.322495
C47   C     C_3   0.631155 0.820175 0.913008 -0.989663
C48   C     C_3   0.238840 0.110930 0.664605 0.093970
C49   C     C_3   0.180011 0.182529 0.735193 -0.330136
C50   C     C_3   0.090405 0.196476 0.667367 -0.966239
C51   C     C_R   0.093083 0.574613 0.561533 0.119981
C52   C     C_R   0.953599 0.647355 0.624158 -0.219030
C53   C     C_R   0.046166 0.355357 0.370621 -0.241804
C54   C     C_R   0.046566 0.647444 0.624016 -0.218260
H1    H     H_    0.371396 0.589941 0.917930 0.131088
H2    H     H_    0.222062 0.370128 0.390604 0.152175
H3    H     H_    0.918241 0.703928 0.673143 0.147252
H4    H     H_    0.081474 0.298790 0.321564 0.143327
H5    H     H_    0.082047 0.704131 0.672800 0.152549
H6    H     H_    0.917690 0.301086 0.317180 0.150661
H7    H     H_    0.599091 0.756984 0.358317 0.167248
H8    H     H_    0.396684 0.242914 0.635417 0.165570
H9    H     H_    0.399783 0.757176 0.640389 0.159840
H10   H     H_    0.604068 0.242557 0.365428 0.165653
H11   H     H_    0.370523 0.967068 0.905273 0.178065
H12   H     H_    0.629770 0.410591 0.082455 0.138485
H13   H     H_    0.429421 0.859251 0.858512 0.123539
H14   H     H_    0.234403 0.869196 0.951293 0.232120
H15   H     H_    0.294613 0.762791 0.907038 0.213196
H16   H     H_    0.406107 0.793672 0.082009 0.253599
H17   H     H_    0.293842 0.783529 0.142308 0.274786
H18   H     H_    0.344758 0.899602 0.127090 0.264121
H19   H     H_    0.820261 0.108525 0.254956 0.159396
H20   H     H_    0.785761 0.006001 0.341490 0.180849
H21   H     H_    0.773475 0.215305 0.433585 0.227913
H22   H     H_    0.738492 0.113537 0.524941 0.222788
H23   H     H_    0.510107 0.664282 0.079164 0.137804
H24   H     H_    0.892545 0.049101 0.527252 0.263505
H25   H     H_    0.890409 0.169408 0.588213 0.279697
H26   H     H_    0.930736 0.146915 0.429141 0.263034
H27   H     H_    0.612324 0.964609 0.090089 0.168033
H28   H     H_    0.555980 0.857784 0.146162 0.121500
H29   H     H_    0.743929 0.865896 0.027374 0.230973
H30   H     H_    0.688705 0.760078 0.084821 0.221468
H31   H     H_    0.566599 0.782350 0.924705 0.259383
H32   H     H_    0.674157 0.777458 0.848508 0.269026
H33   H     H_    0.618744 0.890912 0.868396 0.265565
H34   H     H_    0.491843 0.335319 0.922559 0.152402
H35   H     H_    0.203288 0.041335 0.658733 0.177710
H36   H     H_    0.250182 0.138713 0.566101 0.120055
H37   H     H_    0.167893 0.156678 0.833892 0.229366
H38   H     H_    0.215109 0.252255 0.740721 0.224352
H39   H     H_    0.100995 0.221972 0.568300 0.273822
H40   H     H_    0.049930 0.250313 0.719131 0.271973
H41   H     H_    0.052907 0.128206 0.664874 0.267115
H42   H     H_    0.637747 0.573866 0.918758 0.139098
H43   H     H_    0.363233 0.426704 0.081413 0.134415
H44   H     H_    0.777208 0.374999 0.381369 0.141874
H45   H     H_    0.222430 0.630181 0.609253 0.154590
H46   H     H_    0.777708 0.629167 0.611014 0.153397
N1    N     N_R   0.500000 0.750030 0.500000 -0.122448
N2    N     N_R   0.500000 0.249970 0.500000 -0.123285
O1    O     O_R   0.367850 0.580280 0.500030 -0.623297
O2    O     O_3   0.684377 0.099143 0.274663 -0.654547
O3    O     O_3   0.668362 0.900283 0.250741 -0.655463
O4    O     O_3   0.320082 0.099558 0.732327 -0.650798
O5    O     O_R   0.632150 0.419720 0.499970 -0.628124
O6    O     O_R   0.632150 0.580280 0.499970 -0.625673
O7    O     O_R   0.367850 0.419720 0.500030 -0.630521
O8    O     O_R   0.499970 0.580260 0.313950 -0.630591
O9    O     O_R   0.500030 0.419740 0.686050 -0.627542
O10   O     O_R   0.500030 0.580260 0.686050 -0.628926
O11   O     O_R   0.499970 0.419740 0.313950 -0.625476
O12   O     O_3   0.324252 0.901275 0.739577 -0.650376
Zn1   Zn    Zn3+2 0.500000 0.607200 0.500000 0.936124
Zn2   Zn    Zn3+2 0.500000 0.392800 0.500000 0.934801

loop_
_geom_bond_atom_site_label_1
_geom_bond_atom_site_label_2
_ccdc_geom_bond_type
C30   C51   A    
C44   O3    S    
C8    C13   A    
C23   C45   A    
C40   H17   S    
C34   C37   A    
C39   H14   S    
C21   C26   S    
C42   H22   S    
C19   O10   A    
C43   H24   S    
C7    C11   A    
C34   C51   A    
C40   H16   S    
C20   H23   S    
C47   H31   S    
O6    Zn1   S    
C35   C37   A    
C9    C16   A    
C44   H28   S    
C38   C39   S    
C38   O12   S    
C2    H6    S    
C50   H41   S    
C20   C25   S    
C10   C17   A    
C43   H25   S    
C15   C16   A    
C4    H8    S    
C33   C36   A    
C5    H9    S    
C41   C42   S    
C6    H10   S    
O7    Zn2   S    
C1    O7    A    
C41   H20   S    
C7    C14   A    
C48   O4    S    
C44   C46   S    
C4    N2    A    
C31   C33   A    
O9    Zn2   S    
C15   O2    S    
C19   C27   S    
C1    O1    A    
C36   C52   A    
O11   Zn2   S    
C37   C53   A    
C3    N1    A    
C21   C27   S    
C21   H34   S    
C48   H36   S    
C14   C17   A    
C49   H37   S    
C18   O11   A    
C52   C54   A    
C54   H5    S    
C3    H7    S    
C2    C45   A    
C5    N1    A    
C24   H43   S    
C26   H12   S    
C47   H32   S    
C24   C28   S    
C18   C28   S    
C24   C25   S    
C44   H27   S    
C39   C40   S    
C5    C7    A    
C50   H40   S    
C6    C8    A    
C20   C28   S    
C43   H26   S    
C14   O12   S    
C30   H45   S    
C2    C53   A    
C1    C32   S    
C29   C45   A    
C47   H33   S    
O1    Zn1   S    
C32   C35   A    
C3    C9    A    
C38   H11   S    
C23   C34   A    
C39   H15   S    
C9    C11   A    
C16   O3    S    
C46   H30   S    
C29   H44   S    
C48   C49   S    
C20   C22   S    
C23   C36   A    
C8    C15   A    
C22   C27   S    
C12   C31   S    
N1    Zn1   S    
C42   C43   S    
C49   H38   S    
C4    C10   A    
C42   H21   S    
C12   O6    A    
C46   C47   S    
C40   H18   S    
C35   H2    S    
C22   H42   S    
C18   O8    A    
C10   C13   A    
C12   O5    A    
C53   H4    S    
C50   H39   S    
C19   O9    A    
C25   C27   S    
C26   C28   S    
C41   O2    S    
C48   H35   S    
C51   C54   A    
C33   H46   S    
C29   C31   A    
C17   O4    S    
C30   C32   A    
C11   C13   A    
C25   H1    S    
C6    N2    A    
O5    Zn2   S    
N2    Zn2   S    
C52   H3    S    
C41   H19   S    
C46   H29   S    
C38   H13   S    
C49   C50   S    
C22   C26   S    
C21   C24   S    
O8    Zn1   S    
O10   Zn1   S    
