data_mof_unit_61088.cif
_audit_creation_date              2012-12-10T21:34:03-0500
_audit_creation_method            fapswitch 2.2
_symmetry_space_group_name_H-M    P1
_symmetry_Int_Tables_number       1
_space_group_crystal_system       triclinic
_cell_length_a                    13.60602
_cell_length_b                    16.229085
_cell_length_c                    16.860056
_cell_angle_alpha                 86.905989
_cell_angle_beta                  88.128842
_cell_angle_gamma                 95.482156
_cell_volume                      3697.81514125

loop_
_atom_site_label
_atom_site_type_symbol
_atom_type_description
_atom_site_fract_x
_atom_site_fract_y
_atom_site_fract_z
_atom_type_partial_charge
Br1   Br    Br    0.056032 0.641774 0.505581 -0.389275
Br2   Br    Br    0.464107 0.304182 0.746931 -0.398166
Br3   Br    Br    0.674540 0.326265 0.377672 -0.360896
Br4   Br    Br    0.327377 0.673994 0.623966 -0.390697
Br5   Br    Br    0.944050 0.358349 0.493384 -0.389018
Br6   Br    Br    0.618598 0.651413 0.724297 -0.345729
Br7   Br    Br    0.286902 0.472534 0.289662 -0.372500
Br8   Br    Br    0.538030 0.668316 0.909472 -0.287948
Br9   Br    Br    0.291271 0.427108 0.100876 -0.252496
Br10  Br    Br    0.711244 0.532062 0.075445 -0.254267
Br11  Br    Br    0.389907 0.324523 0.932214 -0.268123
Br12  Br    Br    0.708093 0.564829 0.269922 -0.381066
C1    C     C_R   0.499511 0.511287 0.347844 1.017236
C2    C     C_R   0.570655 0.856148 0.484152 0.073066
C3    C     C_R   0.509381 0.109709 0.476053 0.247193
C4    C     C_R   0.493711 0.890168 0.525656 0.245723
C5    C     C_R   0.583116 0.165707 0.436192 -0.039838
C6    C     C_R   0.420411 0.834493 0.566454 -0.036026
C7    C     C_R   0.581569 0.252594 0.442794 0.370985
C8    C     C_R   0.420443 0.747595 0.558939 0.392007
C9    C     C_R   0.684949 0.515386 0.500421 0.928963
C10   C     C_R   0.315031 0.484566 0.500133 0.930421
C11   C     C_1   0.211614 0.472166 0.499711 -0.069814
C12   C     C_R   0.504959 0.489311 0.653092 0.968031
C13   C     C_1   0.788359 0.527829 0.500639 -0.067282
C14   C     C_2   0.020143 0.464097 0.498295 0.210880
C15   C     C_2   0.979898 0.536007 0.500925 0.210620
C16   C     C_1   0.876012 0.534876 0.500776 0.082736
C17   C     C_1   0.123990 0.465171 0.499052 0.084607
C18   C     C_R   0.497557 0.516857 0.262628 -0.274099
C19   C     C_R   0.508285 0.485431 0.740333 -0.293820
C20   C     C_R   0.409257 0.490155 0.226982 0.155821
C21   C     C_R   0.535910 0.559845 0.777956 0.208743
C22   C     C_R   0.411104 0.473558 0.146629 0.249594
C23   C     C_R   0.589252 0.514813 0.138131 0.251355
C24   C     C_R   0.508733 0.566194 0.857534 0.227345
C25   C     C_R   0.501876 0.486317 0.102296 0.081019
C26   C     C_R   0.461746 0.497308 0.901158 0.088436
C27   C     C_3   0.641648 0.737801 0.420103 -0.688106
C28   C     C_3   0.353066 0.262405 0.572839 -0.682317
C29   C     C_3   0.665458 0.909473 0.459276 -0.801716
C30   C     C_3   0.335748 0.089006 0.538828 -0.809910
C31   C     C_3   0.662187 0.134328 0.383905 -0.722212
C32   C     C_3   0.343384 0.866249 0.620475 -0.715394
C33   C     C_R   0.446341 0.420113 0.867534 0.241942
C34   C     C_R   0.587391 0.530262 0.218670 0.162282
C35   C     C_R   0.471898 0.413320 0.787227 0.176700
C36   C     C_R   0.436193 0.230112 0.526227 0.216732
C37   C     C_R   0.562665 0.769625 0.471865 0.196097
C38   C     C_R   0.430367 0.143295 0.515292 0.074018
H1    H     H_    0.618728 0.678458 0.396022 0.280161
H2    H     H_    0.329514 0.029796 0.508749 0.259802
H3    H     H_    0.330755 0.076198 0.604208 0.250582
H4    H     H_    0.270516 0.120274 0.520120 0.250082
H5    H     H_    0.659271 0.161703 0.322351 0.270626
H6    H     H_    0.736048 0.151772 0.407540 0.270306
H7    H     H_    0.653341 0.066448 0.379561 0.235175
H8    H     H_    0.347636 0.838253 0.681664 0.276927
H9    H     H_    0.353382 0.934112 0.625218 0.238000
H10   H     H_    0.268635 0.849717 0.598079 0.264994
H11   H     H_    0.659849 0.780371 0.366815 0.224329
H12   H     H_    0.709407 0.732166 0.454120 0.238561
H13   H     H_    0.375576 0.321063 0.598891 0.282783
H14   H     H_    0.289638 0.269796 0.534169 0.226933
H15   H     H_    0.328071 0.219484 0.624543 0.240330
H16   H     H_    0.674011 0.967936 0.490509 0.261606
H17   H     H_    0.730595 0.876910 0.475726 0.253868
H18   H     H_    0.668342 0.923420 0.394060 0.241676
N1    N     N_2   0.508683 0.472429 0.020918 -0.063159
N2    N     N_2   0.444259 0.504300 0.982572 -0.052499
N3    N     N_R   0.511670 0.283920 0.490320 -0.144402
N4    N     N_R   0.488330 0.716080 0.509680 -0.141535
N5    N     N_2   0.511287 0.021636 0.469086 -0.147505
N6    N     N_2   0.492558 0.978321 0.532723 -0.139067
O1    O     O_R   0.495820 0.577170 0.387320 -0.624970
O2    O     O_R   0.504180 0.422830 0.612680 -0.604979
O3    O     O_R   0.503320 0.438390 0.381110 -0.569335
O4    O     O_R   0.496680 0.561610 0.618890 -0.558655
O5    O     O_R   0.636060 0.579370 0.503570 -0.628987
O6    O     O_R   0.363940 0.420630 0.496430 -0.639218
O7    O     O_R   0.643560 0.440600 0.497360 -0.559530
O8    O     O_R   0.356440 0.559400 0.502640 -0.558174
Zn1   Zn    Zn3+2 0.495000 0.592660 0.504150 1.032016
Zn2   Zn    Zn3+2 0.505000 0.407340 0.495850 1.031420

loop_
_geom_bond_atom_site_label_1
_geom_bond_atom_site_label_2
_ccdc_geom_bond_type
C27   H1    S    
C26   N2    S    
C25   N1    S    
C22   C25   A    
N5    N6    D    
C7    N3    A    
O6    Zn2   S    
O2    Zn2   S    
C29   H17   S    
C13   C16   T    
C14   C15   D    
C28   H13   S    
C4    N6    S    
C11   C17   T    
C23   C25   A    
C30   H3    S    
C2    C37   A    
C32   H9    S    
C21   C24   A    
C3    C5    A    
Br8   C24   S    
C3    C38   A    
C26   C33   A    
O4    Zn1   S    
C1    O1    A    
C32   H8    S    
O5    Zn1   S    
C37   N4    A    
C19   C21   A    
Br3   C7    S    
Br10  C23   S    
C36   C38   A    
C19   C35   A    
C29   H18   S    
C33   C35   A    
C27   H11   S    
C1    O3    A    
C1    C18   S    
Br12  C34   S    
C12   O2    A    
O3    Zn2   S    
C20   C22   A    
C5    C31   S    
C6    C32   S    
C9    O5    A    
C30   C38   S    
C2    C29   S    
C12   O4    A    
C27   C37   S    
C9    O7    A    
C28   H15   S    
Br9   C22   S    
C2    C4    A    
Br11  C33   S    
C36   N3    A    
C10   O8    A    
O7    Zn2   S    
N3    Zn2   S    
C31   H5    S    
C28   C36   S    
C27   H12   S    
C9    C13   S    
Br7   C20   S    
C3    N5    S    
C18   C34   A    
C29   H16   S    
Br2   C35   S    
C28   H14   S    
Br6   C21   S    
C24   C26   A    
C12   C19   S    
C10   O6    A    
C30   H4    S    
C18   C20   A    
O1    Zn1   S    
C32   H10   S    
C5    C7    A    
C6    C8    A    
N1    N2    D    
N4    Zn1   S    
C31   H7    S    
Br5   C14   S    
Br4   C8    S    
C31   H6    S    
C14   C17   S    
C4    C6    A    
O8    Zn1   S    
C15   C16   S    
Br1   C15   S    
C10   C11   S    
C8    N4    A    
C23   C34   A    
C30   H2    S    
