data_mof_unit_5141.cif
_audit_creation_date              2012-12-11T14:13:20-0500
_audit_creation_method            fapswitch 2.2
_symmetry_space_group_name_H-M    P1
_symmetry_Int_Tables_number       1
_space_group_crystal_system       triclinic
_cell_length_a                    11.516238
_cell_length_b                    18.730261
_cell_length_c                    10.005644
_cell_angle_alpha                 90.000246
_cell_angle_beta                  110.244822
_cell_angle_gamma                 89.999902
_cell_volume                      2024.90849788

loop_
_atom_site_label
_atom_site_type_symbol
_atom_type_description
_atom_site_fract_x
_atom_site_fract_y
_atom_site_fract_z
_atom_type_partial_charge
C1    C     C_R   0.115004 0.637062 0.152738 0.557446
C2    C     C_R   0.880458 0.363363 0.846304 0.579561
C3    C     C_R   0.884993 0.137062 0.847261 0.557423
C4    C     C_R   0.119542 0.863363 0.153697 0.579550
C5    C     C_R   0.470522 0.478851 0.638974 -0.026112
C6    C     C_R   0.595797 0.535595 0.464460 -0.030125
C7    C     C_R   0.529475 0.978850 0.361020 -0.026114
C8    C     C_R   0.404202 0.035596 0.535533 -0.030156
C9    C     C_2   0.405669 0.924469 0.921205 -0.045211
C10   C     C_2   0.641002 0.061241 0.986418 -0.062745
C11   C     C_2   0.594327 0.424468 0.078802 -0.045208
C12   C     C_2   0.358994 0.561241 0.013586 -0.062715
C13   C     C_2   0.519740 0.951001 0.957198 0.318948
C14   C     C_2   0.534702 0.028793 0.974548 0.311812
C15   C     C_2   0.480255 0.451000 0.042802 0.318975
C16   C     C_2   0.465291 0.528791 0.025447 0.311788
C17   C     C_2   0.077637 0.939547 0.131187 0.262110
C18   C     C_2   0.935045 0.063499 0.870648 0.259858
C19   C     C_2   0.922363 0.439548 0.868818 0.262112
C20   C     C_2   0.064952 0.563499 0.129351 0.259903
C21   C     C_2   0.085215 0.975498 0.015047 0.402840
C22   C     C_2   0.043224 0.049566 0.975305 0.409901
C23   C     C_2   0.914776 0.475499 0.984954 0.402822
C24   C     C_2   0.956768 0.549566 0.024701 0.409914
C25   C     C_R   0.468575 0.645671 0.435444 0.553507
C26   C     C_R   0.567696 0.360638 0.630877 0.547197
C27   C     C_R   0.531424 0.145671 0.564554 0.553496
C28   C     C_R   0.432303 0.860638 0.369121 0.547203
C29   C     C_R   0.349863 0.639286 0.013714 0.553231
C30   C     C_R   0.621700 0.353596 0.038977 0.586112
C31   C     C_R   0.650136 0.139286 0.986287 0.553207
C32   C     C_R   0.378300 0.853596 0.961024 0.586097
C33   C     C_R   0.561651 0.437821 0.604781 -0.009459
C34   C     C_R   0.507018 0.577070 0.503119 0.013538
C35   C     C_R   0.438345 0.937821 0.395213 -0.009461
C36   C     C_R   0.492980 0.077070 0.496875 0.013538
C37   C     C_R   0.392551 0.450108 0.708363 -0.077441
C38   C     C_R   0.645105 0.556073 0.356860 -0.093137
C39   C     C_R   0.607446 0.950107 0.291631 -0.077453
C40   C     C_R   0.354903 0.056073 0.643140 -0.093091
C41   C     C_R   0.284102 0.484159 0.705407 0.257870
C42   C     C_R   0.757561 0.530941 0.353451 0.249467
C43   C     C_R   0.715895 0.984157 0.294587 0.257867
C44   C     C_R   0.242457 0.030941 0.646560 0.249415
C45   C     C_R   0.275423 0.556786 0.680532 -0.105121
C46   C     C_R   0.801142 0.468765 0.424803 -0.100857
C47   C     C_R   0.724576 0.056784 0.319463 -0.105146
C48   C     C_R   0.198868 0.968764 0.575214 -0.100912
C49   C     C_R   0.366272 0.590927 0.642200 -0.091655
C50   C     C_R   0.737925 0.437296 0.504690 -0.135167
C51   C     C_R   0.633727 0.090926 0.357795 -0.091667
C52   C     C_R   0.262075 0.937296 0.495313 -0.135143
C53   C     C_R   0.450802 0.550314 0.597269 0.011146
C54   C     C_R   0.634582 0.469919 0.529874 -0.008351
C55   C     C_R   0.549196 0.050314 0.402724 0.011155
C56   C     C_R   0.365416 0.969919 0.470121 -0.008347
Cr1   Cr    Cr6+3 0.187610 0.750000 0.979860 1.066892
Cr2   Cr    Cr6+3 0.812390 0.250000 0.020140 1.066885
Cr3   Cr    Cr6+3 0.245810 0.750000 0.341640 0.982544
Cr4   Cr    Cr6+3 0.754190 0.250000 0.658360 0.982519
Cr5   Cr    Cr6+3 0.485760 0.750000 0.219910 1.016067
Cr6   Cr    Cr6+3 0.514240 0.250000 0.780090 1.016184
H1    H     H_    0.199331 0.586737 0.692332 0.144544
H2    H     H_    0.881740 0.442931 0.414341 0.148482
H3    H     H_    0.800669 0.086735 0.307665 0.144530
H4    H     H_    0.118281 0.942927 0.585696 0.148488
H5    H     H_    0.410453 0.401491 0.765745 0.202220
H6    H     H_    0.595084 0.587272 0.266185 0.199283
H7    H     H_    0.589544 0.901490 0.234250 0.202221
H8    H     H_    0.404927 0.087269 0.733818 0.199393
H9    H     H_    0.364598 0.648443 0.642982 0.175495
H10   H     H_    0.776436 0.387623 0.541303 0.203198
H11   H     H_    0.635404 0.148443 0.357018 0.175498
H12   H     H_    0.223563 0.887623 0.458701 0.203203
H13   H     H_    0.721965 0.030215 0.991120 0.157325
H14   H     H_    0.327507 0.960186 0.885279 0.211258
H15   H     H_    0.278034 0.530215 0.008896 0.157320
H16   H     H_    0.672489 0.460186 0.114739 0.211215
O1    O     O_R   0.267710 0.668200 0.902110 -0.543336
O2    O     O_R   0.732290 0.331800 0.097890 -0.469079
O3    O     O_R   0.732290 0.168200 0.097890 -0.543353
O4    O     O_R   0.267710 0.831800 0.902110 -0.469076
O5    O     O_R   0.099480 0.674460 0.038850 -0.487929
O6    O     O_R   0.900520 0.325540 0.961150 -0.423975
O7    O     O_R   0.900520 0.174460 0.961150 -0.487911
O8    O     O_R   0.099480 0.825540 0.038850 -0.423973
O9    O     O_R   0.116720 0.669210 0.267660 -0.537721
O10   O     O_R   0.883280 0.330790 0.732340 -0.551197
O11   O     O_R   0.883280 0.169210 0.732340 -0.537770
O12   O     O_R   0.116720 0.830790 0.267660 -0.551198
O13   O     O_R   0.366710 0.675440 0.427590 -0.519088
O14   O     O_R   0.633290 0.324560 0.572410 -0.512585
O15   O     O_R   0.633290 0.175440 0.572410 -0.519089
O16   O     O_R   0.366710 0.824560 0.427590 -0.512583
O17   O     O_R   0.534870 0.669390 0.371760 -0.551359
O18   O     O_R   0.465130 0.330610 0.628240 -0.529780
O19   O     O_R   0.465130 0.169390 0.628240 -0.551373
O20   O     O_R   0.534870 0.830610 0.371760 -0.529773
O21   O     O_R   0.453080 0.674480 0.075160 -0.439572
O22   O     O_R   0.546920 0.325520 0.924840 -0.504917
O23   O     O_R   0.546920 0.174480 0.924840 -0.439436
O24   O     O_R   0.453080 0.825520 0.075160 -0.504934
O25   O     O_3   0.306390 0.750000 0.180470 -0.341678
O26   O     O_3   0.693610 0.250000 0.819530 -0.341687
O27   O     O_3   0.193945 0.449938 0.744213 -0.490545
C57   C     C_3   0.167835 0.381425 0.680832 -0.035463
H17   H     H_    0.233584 0.341190 0.747094 0.155232
H18   H     H_    0.167603 0.380559 0.569399 0.065282
H19   H     H_    0.074183 0.365035 0.675395 0.196044
O28   O     O_3   0.815249 0.558895 0.263992 -0.523784
C58   C     C_3   0.820987 0.634172 0.273976 -0.036213
H20   H     H_    0.856401 0.652655 0.386781 0.071343
H21   H     H_    0.729920 0.658810 0.215104 0.176638
H22   H     H_    0.885663 0.653729 0.222417 0.199909
O29   O     O_3   0.806051 0.949936 0.255778 -0.490547
C59   C     C_3   0.832159 0.881423 0.319155 -0.035459
H23   H     H_    0.766403 0.841189 0.252898 0.155204
H24   H     H_    0.832402 0.880558 0.430593 0.065301
H25   H     H_    0.925806 0.865028 0.324578 0.196055
O30   O     O_3   0.184826 0.058889 0.736075 -0.523621
C60   C     C_3   0.178785 0.134151 0.725766 -0.036187
H26   H     H_    0.142868 0.152489 0.612880 0.071353
H27   H     H_    0.269850 0.158932 0.784097 0.175995
H28   H     H_    0.114376 0.153697 0.777701 0.200105
F1    F     F_    0.438825 0.067682 0.987387 -0.621031
F2    F     F_    0.619954 0.907082 0.990591 -0.614627
F3    F     F_    0.561161 0.567677 0.012586 -0.621232
F4    F     F_    0.380042 0.407080 0.009401 -0.614612
F5    F     F_    0.121567 0.103904 0.038491 -0.641574
F6    F     F_    0.131026 0.942223 0.923771 -0.646238
F7    F     F_    0.878422 0.603905 0.961524 -0.641611
F8    F     F_    0.868956 0.442224 0.076221 -0.646248
O31   O     O_3   0.856514 0.007648 0.807578 -0.608322
C61   C     C_3   0.860108 0.997110 0.669955 -0.089029
H29   H     H_    0.952719 0.977932 0.674584 0.181696
H30   H     H_    0.835110 0.046432 0.604910 0.127592
H31   H     H_    0.791282 0.955532 0.616147 0.156967
O32   O     O_3   0.020599 0.966526 0.223042 -0.572666
C62   C     C_3   0.051912 0.037776 0.266471 -0.096252
H32   H     H_    0.985293 0.075196 0.193188 0.162264
H33   H     H_    0.149707 0.050895 0.280682 0.159371
H34   H     H_    0.039597 0.045839 0.370354 0.139301
O33   O     O_3   0.143487 0.507648 0.192413 -0.608348
C63   C     C_3   0.139886 0.497101 0.330032 -0.089008
H35   H     H_    0.047282 0.477907 0.325391 0.181735
H36   H     H_    0.164857 0.546424 0.395082 0.127608
H37   H     H_    0.208729 0.455532 0.383843 0.156951
O34   O     O_3   0.979407 0.466527 0.776971 -0.572666
C64   C     C_3   0.948092 0.537777 0.733540 -0.096248
H38   H     H_    0.014706 0.575198 0.806825 0.162259
H39   H     H_    0.850295 0.550894 0.719323 0.159358
H40   H     H_    0.960412 0.545840 0.629660 0.139365

loop_
_geom_bond_atom_site_label_1
_geom_bond_atom_site_label_2
_ccdc_geom_bond_type
C1    O9    A    
C44   C48   A    
C5    C37   A    
C12   C29   S    
C3    O7    A    
Cr1   O1    S    
C2    O6    A    
C58   H20   S    
C24   F7    S    
C7    C55   A    
C8    C56   A    
C61   H31   S    
Cr4   O10   S    
Cr4   O11   S    
Cr1   O8    S    
C50   C54   A    
C14   F1    S    
C40   H8    S    
C3    C18   S    
C31   O23   A    
C5    C53   A    
Cr5   O25   S    
C38   C42   A    
C52   H12   S    
C64   H39   S    
C42   C46   A    
C62   H34   S    
C4    O8    A    
C57   H17   S    
C44   O30   S    
C26   O14   A    
C15   C16   S    
C30   O22   A    
C59   H23   S    
C18   O31   S    
C28   O16   A    
C8    C36   A    
C9    C13   D    
O28   C58   S    
C60   H28   S    
C50   H10   S    
C9    C32   S    
C43   O29   S    
C11   C15   D    
C10   C31   S    
C12   C16   D    
C11   C30   S    
C5    C33   A    
C23   C24   S    
C6    C38   A    
C2    O10   A    
C17   O32   S    
C9    H14   S    
C40   C44   A    
Cr6   O26   S    
Cr2   O2    S    
C25   C34   S    
Cr6   O23   S    
C30   O2    A    
Cr4   O15   S    
C35   C56   A    
C21   C22   S    
C20   O33   S    
Cr5   O21   S    
C6    C54   A    
C63   H37   S    
C4    O12   A    
Cr4   O14   S    
C26   O18   A    
Cr1   O25   S    
C25   O13   A    
C29   O21   A    
C20   C24   D    
O34   C64   S    
C28   C35   S    
C63   H36   S    
C10   C14   D    
Cr2   O3    S    
C47   C51   A    
C45   H1    S    
C17   C21   D    
C6    C34   A    
C46   H2    S    
Cr3   O12   S    
C19   C23   D    
C11   H16   S    
Cr2   O6    S    
Cr6   O19   S    
C10   H13   S    
C26   C33   S    
C29   O1    A    
C45   C49   A    
C12   H15   S    
Cr1   O5    S    
C39   H7    S    
C58   H21   S    
Cr3   O13   S    
C60   H26   S    
C41   O27   S    
Cr6   O22   S    
C4    C17   S    
Cr3   O16   S    
C38   H6    S    
C25   O17   A    
C15   F4    S    
C22   F5    S    
O31   C61   S    
C32   O24   A    
C64   H40   S    
Cr2   O26   S    
C13   F2    S    
Cr2   O7    S    
O30   C60   S    
C28   O20   A    
C33   C54   A    
C27   O19   A    
C1    C20   S    
C7    C39   A    
C2    C19   S    
C18   C22   D    
C7    C35   A    
C51   H11   S    
C63   H35   S    
C61   H30   S    
C62   H32   S    
Cr5   O17   S    
C61   H29   S    
C27   C36   S    
C1    O5    A    
C32   O4    A    
O27   C57   S    
C46   C50   A    
C19   O34   S    
C31   O3    A    
C59   H25   S    
C3    O11   A    
Cr3   O25   S    
Cr5   O24   S    
C42   O28   S    
C36   C55   A    
Cr4   O26   S    
C64   H38   S    
C62   H33   S    
Cr5   O20   S    
O29   C59   S    
C57   H18   S    
C49   C53   A    
C37   H5    S    
C59   H24   S    
C23   F8    S    
C58   H22   S    
C51   C55   A    
C37   C41   A    
C16   F3    S    
Cr3   O9    S    
C21   F6    S    
C60   H27   S    
C27   O15   A    
O32   C62   S    
C52   C56   A    
C48   C52   A    
C39   C43   A    
C34   C53   A    
C49   H9    S    
C41   C45   A    
Cr1   O4    S    
C8    C40   A    
C48   H4    S    
Cr6   O18   S    
C13   C14   S    
C43   C47   A    
C47   H3    S    
O33   C63   S    
C57   H19   S    
