data_mof_unit_47323.cif
_audit_creation_date              2012-12-10T19:25:52-0500
_audit_creation_method            fapswitch 2.2
_symmetry_space_group_name_H-M    P1
_symmetry_Int_Tables_number       1
_space_group_crystal_system       triclinic
_cell_length_a                    9.827375
_cell_length_b                    10.602589
_cell_length_c                    16.846208
_cell_angle_alpha                 91.385248
_cell_angle_beta                  81.458356
_cell_angle_gamma                 90.472861
_cell_volume                      1735.30495644

loop_
_atom_site_label
_atom_site_type_symbol
_atom_type_description
_atom_site_fract_x
_atom_site_fract_y
_atom_site_fract_z
_atom_type_partial_charge
C1    C     C_R   0.500426 0.741662 0.499432 0.953043
C2    C     C_3   0.621722 0.959849 0.464693 -0.105312
C3    C     C_3   0.946874 0.604614 0.527689 0.132733
C4    C     C_3   0.053496 0.395699 0.472380 0.150702
C5    C     C_3   0.061702 0.590681 0.455828 -0.148887
C6    C     C_3   0.938636 0.409423 0.544341 -0.108671
C7    C     C_3   0.029280 0.516232 0.571005 0.131784
C8    C     C_3   0.971372 0.484260 0.429268 0.116698
C9    C     C_R   0.476665 0.498695 0.652911 0.928577
C10   C     C_R   0.523307 0.500110 0.346798 0.880941
C11   C     C_R   0.452661 0.474466 0.738534 -0.083754
C12   C     C_R   0.498694 0.258109 0.500273 0.911797
C13   C     C_R   0.543768 0.490192 0.259055 -0.130834
C14   C     C_R   0.470468 0.570049 0.795920 0.013914
C15   C     C_R   0.462718 0.562716 0.214998 -0.066935
C16   C     C_R   0.438096 0.543336 0.876937 -0.268025
C17   C     C_R   0.464571 0.533833 0.133746 -0.126809
C18   C     C_R   0.403043 0.420585 0.901396 0.072225
C19   C     C_R   0.540948 0.431882 0.096729 0.036279
C20   C     C_R   0.383701 0.325529 0.845281 0.182035
C21   C     C_R   0.625390 0.361524 0.139621 0.104969
C22   C     C_R   0.406948 0.352650 0.763588 0.016968
C23   C     C_3   0.401554 0.954721 0.459313 0.034832
C24   C     C_R   0.631950 0.396121 0.219834 0.145742
C25   C     C_2   0.414194 0.389163 0.984234 -0.035905
C26   C     C_2   0.536992 0.408186 0.011140 -0.073007
C27   C     C_2   0.529708 0.696030 0.775473 0.421883
C28   C     C_2   0.380210 0.671636 0.252182 0.426510
C29   C     C_2   0.669747 0.427334 0.956636 0.377708
C30   C     C_2   0.285611 0.349935 0.036288 0.427227
C31   C     C_2   0.539251 0.079277 0.338864 0.378231
C32   C     C_2   0.438968 0.919399 0.660798 0.437597
C33   C     C_2   0.225750 0.065799 0.572984 0.406902
C34   C     C_3   0.592196 0.043771 0.540929 -0.046813
C35   C     C_2   0.761424 0.916653 0.426241 0.421505
C36   C     C_3   0.521728 0.039326 0.424126 -0.032401
C37   C     C_3   0.470863 0.959668 0.575724 -0.076191
C38   C     C_3   0.493855 0.123739 0.500535 -0.072171
C39   C     C_3   0.500156 0.875666 0.499540 -0.086193
C40   C     C_3   0.371238 0.039100 0.534964 -0.039694
H1    H     H_    0.405112 0.590291 0.098583 0.171620
H2    H     H_    0.179086 0.301087 0.384451 0.221331
H3    H     H_    0.974647 0.544424 0.690985 0.186424
H4    H     H_    0.116379 0.623293 0.651479 0.212021
H5    H     H_    0.024865 0.483165 0.308589 0.194493
H6    H     H_    0.920595 0.366000 0.344105 0.171329
H7    H     H_    0.826796 0.349971 0.227641 0.199886
H8    H     H_    0.711537 0.239582 0.261938 0.186463
H9    H     H_    0.317345 0.281643 0.672330 0.257509
H10   H     H_    0.484674 0.240546 0.669424 0.189591
H11   H     H_    0.753589 0.477254 0.979130 0.074992
H12   H     H_    0.453964 0.615121 0.921728 0.128449
H13   H     H_    0.187363 0.360329 0.015071 0.063768
H14   H     H_    0.426149 0.138980 0.844903 0.212091
H15   H     H_    0.256983 0.173673 0.850655 0.205104
H16   H     H_    0.686838 0.233754 0.045917 0.208598
H17   H     H_    0.664875 0.174643 0.136659 0.207652
H18   H     H_    0.619487 0.037455 0.295289 0.089243
H19   H     H_    0.500060 0.955151 0.705066 0.091084
H20   H     H_    0.250431 0.980945 0.391194 0.230041
H21   H     H_    0.221623 0.861122 0.454297 0.173987
H22   H     H_    0.741284 0.015799 0.610051 0.194764
H23   H     H_    0.117251 0.664459 0.417968 0.153886
H24   H     H_    0.773612 0.134601 0.546256 0.192900
H25   H     H_    0.158553 0.987592 0.593079 0.077525
H26   H     H_    0.852168 0.946015 0.451553 0.057087
H27   H     H_    0.883365 0.334934 0.581725 0.155699
H28   H     H_    0.513129 0.773269 0.819276 0.062028
H29   H     H_    0.393569 0.707648 0.311304 0.084760
H30   H     H_    0.963196 0.784300 0.569408 0.141904
H31   H     H_    0.827769 0.703995 0.615376 0.242214
H32   H     H_    0.039976 0.218780 0.424915 0.146487
N1    N     N_3   0.136700 0.499970 0.500060 -0.095625
N2    N     N_3   0.703111 0.253770 0.104618 -0.466786
N3    N     N_3   0.297487 0.904277 0.413719 -0.436599
N4    N     N_3   0.696402 0.093060 0.586783 -0.457883
N5    N     N_3   0.863300 0.500030 0.499940 -0.094899
N6    N     N_3   0.883774 0.722594 0.559282 -0.416915
N7    N     N_3   0.118042 0.279336 0.438656 -0.356401
N8    N     N_3   0.066225 0.536042 0.650894 -0.400351
N9    N     N_3   0.936887 0.462987 0.349332 -0.384329
N10   N     N_3   0.729745 0.336317 0.261320 -0.428564
N11   N     N_3   0.390795 0.253197 0.706736 -0.475273
N12   N     N_3   0.348493 0.200047 0.871373 -0.453025
O1    O     O_R   0.383390 0.686040 0.500000 -0.634837
O2    O     O_2   0.297018 0.723407 0.216854 -0.552817
O3    O     O_2   0.689066 0.382871 0.888363 -0.550050
O4    O     O_2   0.287992 0.301982 0.101248 -0.533686
O5    O     O_2   0.459361 0.154261 0.317312 -0.568629
O6    O     O_2   0.341677 0.849161 0.681078 -0.606318
O7    O     O_2   0.181382 0.172903 0.581323 -0.564053
O8    O     O_2   0.773632 0.848275 0.366339 -0.560803
O9    O     O_R   0.616610 0.313960 0.500000 -0.644957
O10   O     O_R   0.616650 0.686050 0.499970 -0.574423
O11   O     O_R   0.383350 0.313950 0.500030 -0.550040
O12   O     O_R   0.369590 0.500020 0.615820 -0.609996
O13   O     O_R   0.630410 0.499980 0.384180 -0.561790
O14   O     O_R   0.602840 0.500020 0.615790 -0.584009
O15   O     O_R   0.397160 0.499980 0.384210 -0.635150
O16   O     O_2   0.602708 0.714212 0.711691 -0.613675
Zn1   Zn    Zn3+2 0.344250 0.499990 0.500020 1.002500
Zn2   Zn    Zn3+2 0.655750 0.500010 0.499980 1.015252

loop_
_geom_bond_atom_site_label_1
_geom_bond_atom_site_label_2
_ccdc_geom_bond_type
C2    C35   S    
C9    O14   A    
H30   N6    S    
C34   C37   S    
C28   H29   S    
C4    C8    S    
H14   N12   S    
C33   H25   S    
C7    N1    S    
H21   N3    S    
C31   H18   S    
C19   C21   A    
C37   C40   S    
C3    C7    S    
C33   O7    D    
C11   C14   A    
C23   C40   S    
C5    H23   S    
H7    N10   S    
C19   C26   S    
C24   N10   S    
C27   H28   S    
C2    C39   S    
C32   O6    D    
C1    O10   A    
C31   O5    D    
C12   O11   A    
C14   C27   S    
O13   Zn2   S    
C35   O8    D    
C2    C34   S    
N1    Zn1   S    
H2    N7    S    
O12   Zn1   S    
C12   C38   S    
H22   N4    S    
N5    Zn2   S    
C18   C25   S    
H10   N11   S    
C1    O1    A    
C30   H13   S    
C27   O16   D    
C33   C40   S    
H16   N2    S    
C8    N9    S    
H4    N8    S    
C4    N7    S    
C4    C6    S    
C6    N5    S    
C35   H26   S    
H3    N8    S    
O14   Zn2   S    
C21   N2    S    
C13   C24   A    
H17   N2    S    
C10   O13   A    
H6    N9    S    
H24   N4    S    
C32   C37   S    
C9    C11   S    
C9    O12   A    
C4    N1    S    
C6    H27   S    
O15   Zn1   S    
C20   C22   A    
C13   C15   A    
C28   O2    D    
C8    N5    S    
C14   C16   A    
C12   O9    A    
C30   O4    D    
C3    N5    S    
O1    Zn1   S    
C29   H11   S    
C2    C36   S    
C25   C30   S    
C15   C17   A    
C11   C22   A    
C34   C38   S    
H5    N9    S    
C16   H12   S    
C23   N3    S    
C3    C5    S    
C10   C13   S    
O9    Zn2   S    
C5    C8    S    
C6    C7    S    
H32   N7    S    
H20   N3    S    
C22   N11   S    
H9    N11   S    
C20   N12   S    
C25   C26   D    
C37   C39   S    
C38   C40   S    
C15   C28   S    
C23   C39   S    
C36   C38   S    
C17   C19   A    
H8    N10   S    
C18   C20   A    
C5    N1    S    
C10   O15   A    
C17   H1    S    
C29   O3    D    
C1    C39   S    
O10   Zn2   S    
C26   C29   S    
C16   C18   A    
C23   C36   S    
C21   C24   A    
C31   C36   S    
C32   H19   S    
H15   N12   S    
C3    N6    S    
H31   N6    S    
O11   Zn1   S    
C34   N4    S    
C7    N8    S    
