data_mof_unit_22989.cif
_audit_creation_date              2012-10-26T18:34:22-0400
_audit_creation_method            fapswitch 2.2
_symmetry_space_group_name_H-M    P1
_symmetry_Int_Tables_number       1
_space_group_crystal_system       triclinic
_cell_length_a                    10.810393
_cell_length_b                    9.628642
_cell_length_c                    9.04439
_cell_angle_alpha                 90.606915
_cell_angle_beta                  92.070866
_cell_angle_gamma                 89.77523
_cell_volume                      940.751633283

loop_
_atom_site_label
_atom_site_type_symbol
_atom_type_description
_atom_site_fract_x
_atom_site_fract_y
_atom_site_fract_z
_atom_type_partial_charge
C1    C     C_R   0.262445 0.500193 0.502075 0.506308
C2    C     C_R   0.064625 0.621351 0.542547 -0.149806
C3    C     C_R   0.871486 0.500452 0.500501 0.013500
C4    C     C_R   0.128396 0.500375 0.503266 0.018440
C5    C     C_R   0.444403 0.073194 0.384601 0.321102
C6    C     C_R   0.553925 0.926857 0.615712 0.302490
C7    C     C_R   0.561304 0.075815 0.609964 0.312598
C8    C     C_R   0.440874 0.924589 0.387256 0.321360
C9    C     C_3   0.296497 0.181965 0.232793 0.035467
C10   C     C_3   0.252839 0.161888 0.071735 -0.395673
C11   C     C_3   0.553205 0.885695 0.866308 0.011309
C12   C     C_R   0.737541 0.499978 0.499991 0.531648
C13   C     C_3   0.640337 0.845430 0.994751 -0.351936
C14   C     C_3   0.756721 0.126160 0.700384 0.008841
C15   C     C_3   0.829633 0.227359 0.799808 -0.365807
C16   C     C_3   0.263647 0.834884 0.273376 0.019983
C17   C     C_3   0.221517 0.711948 0.176866 -0.350066
C18   C     C_R   0.500601 0.499497 0.221001 0.529662
C19   C     C_R   0.500059 0.500382 0.779027 0.549481
C20   C     C_1   0.500057 0.499111 0.065672 -0.062264
C21   C     C_1   0.499820 0.500295 0.934332 -0.068297
C22   C     C_R   0.063150 0.379358 0.464228 -0.148358
C23   C     C_R   0.936490 0.621399 0.541271 -0.141962
C24   C     C_R   0.935292 0.379864 0.460988 -0.147591
Cu1   Cu    Cu3+1 0.500000 0.640660 0.500000 0.998055
Cu2   Cu    Cu3+1 0.500000 0.359340 0.500000 1.001004
H1    H     H_    0.110420 0.284662 0.434818 0.103370
H2    H     H_    0.466425 0.824920 0.872312 0.148507
H3    H     H_    0.528216 0.996741 0.882152 0.166263
H4    H     H_    0.594221 0.862036 0.101108 0.171542
H5    H     H_    0.667437 0.734532 0.984792 0.156041
H6    H     H_    0.724990 0.910405 0.994643 0.135130
H7    H     H_    0.783176 0.141632 0.584032 0.124126
H8    H     H_    0.783961 0.019493 0.734047 0.152748
H9    H     H_    0.810133 0.207939 0.917538 0.147423
H10   H     H_    0.930332 0.213532 0.783805 0.088646
H11   H     H_    0.803269 0.335944 0.772856 0.174457
H12   H     H_    0.888560 0.715430 0.573347 0.136899
H13   H     H_    0.213028 0.924486 0.227693 0.106116
H14   H     H_    0.233075 0.821557 0.388200 0.124601
H15   H     H_    0.249106 0.727636 0.061096 0.134825
H16   H     H_    0.262599 0.613642 0.217665 0.162016
H17   H     H_    0.119179 0.702654 0.178075 0.087631
H18   H     H_    0.886680 0.286470 0.426096 0.115590
H19   H     H_    0.113489 0.715115 0.575996 0.107980
H20   H     H_    0.290387 0.294683 0.254549 0.171420
H21   H     H_    0.232244 0.131119 0.308429 0.064167
H22   H     H_    0.270293 0.054027 0.033219 0.159635
H23   H     H_    0.152288 0.185012 0.059519 0.083509
H24   H     H_    0.303828 0.233526 0.000328 0.158210
N1    N     N_R   0.500000 0.852070 0.500000 -0.261268
N2    N     N_R   0.500000 0.147930 0.500000 -0.264445
O1    O     O_R   0.319640 0.618740 0.499990 -0.518305
O2    O     O_3   0.611909 0.856344 0.731535 -0.540904
O3    O     O_3   0.628825 0.149484 0.717248 -0.525493
O4    O     O_3   0.393149 0.853341 0.264046 -0.523748
O5    O     O_R   0.680360 0.381260 0.500010 -0.493767
O6    O     O_R   0.680360 0.618740 0.500010 -0.481971
O7    O     O_R   0.319640 0.381260 0.499990 -0.532865
O8    O     O_R   0.500000 0.618760 0.288390 -0.453818
O9    O     O_R   0.500000 0.381240 0.711610 -0.443250
O10   O     O_R   0.500000 0.618760 0.711610 -0.468620
O11   O     O_R   0.500000 0.381240 0.288390 -0.457972
O12   O     O_3   0.420775 0.136656 0.249602 -0.513917

loop_
_geom_bond_atom_site_label_1
_geom_bond_atom_site_label_2
_ccdc_geom_bond_type
C14   H8    S    
C5    C8    A    
C2    C4    A    
Cu2   O11   S    
C16   O4    S    
C5    N2    A    
C6    C7    A    
Cu1   O8    S    
Cu2   N2    S    
C6    N1    A    
C9    O12   S    
C4    C22   A    
C9    C10   S    
C15   H10   S    
C13   H6    S    
C3    C23   A    
C7    O3    S    
C22   H1    S    
C1    C4    S    
C12   O6    A    
C8    O4    S    
C14   H7    S    
Cu1   N1    S    
C14   O3    S    
C9    H20   S    
C11   C13   S    
C8    N1    A    
C3    C24   A    
C11   O2    S    
C11   H2    S    
C16   H14   S    
C12   O5    A    
C15   H9    S    
C19   C21   S    
Cu2   O9    S    
C6    O2    S    
C7    N2    A    
C9    H21   S    
C18   C20   S    
Cu1   O10   S    
C1    O7    A    
C2    H19   S    
C10   H22   S    
C24   H18   S    
Cu2   O5    S    
C22   C24   A    
C18   O11   A    
C17   H15   S    
Cu1   O6    S    
C16   H13   S    
C23   H12   S    
C19   O9    A    
C13   H4    S    
C2    C23   A    
C20   C21   T    
C11   H3    S    
Cu2   O7    S    
C18   O8    A    
C17   H17   S    
C1    O1    A    
C14   C15   S    
C15   H11   S    
C3    C12   S    
C19   O10   A    
Cu1   Cu2   S    
C17   H16   S    
C10   H23   S    
C13   H5    S    
C5    O12   S    
Cu1   O1    S    
C16   C17   S    
C10   H24   S    
