data_mof_unit_57557.cif
_audit_creation_date              2012-12-11T14:08:29-0500
_audit_creation_method            fapswitch 2.2
_symmetry_space_group_name_H-M    P1
_symmetry_Int_Tables_number       1
_space_group_crystal_system       triclinic
_cell_length_a                    27.059075
_cell_length_b                    7.238723
_cell_length_c                    17.220347
_cell_angle_alpha                 89.998604
_cell_angle_beta                  96.914192
_cell_angle_gamma                 90.006159
_cell_volume                      3348.47357995

loop_
_atom_site_label
_atom_site_type_symbol
_atom_type_description
_atom_site_fract_x
_atom_site_fract_y
_atom_site_fract_z
_atom_type_partial_charge
O1    O     O_R   0.000700 0.436510 0.857920 -0.530273
O2    O     O_R   0.999300 0.563490 0.142080 -0.530274
O3    O     O_R   0.999300 0.936510 0.642080 -0.530274
O4    O     O_R   0.000700 0.063490 0.357920 -0.530274
O5    O     O_R   0.930080 0.766380 0.721890 -0.538495
O6    O     O_R   0.069920 0.233620 0.278110 -0.538490
O7    O     O_R   0.069920 0.266380 0.778110 -0.538504
O8    O     O_R   0.930080 0.733620 0.221890 -0.538515
C1    C     C_R   0.910027 0.597541 0.712013 0.695595
C2    C     C_R   0.089972 0.402463 0.287988 0.695593
C3    C     C_R   0.089974 0.097555 0.787987 0.695589
C4    C     C_R   0.910026 0.902441 0.212015 0.695602
O9    O     O_R   0.996180 0.766230 0.862310 -0.542624
O10   O     O_R   0.003820 0.233770 0.137690 -0.542620
O11   O     O_R   0.003820 0.266230 0.637690 -0.542624
O12   O     O_R   0.996180 0.733770 0.362310 -0.542623
O13   O     O_R   0.065870 0.936460 0.783500 -0.535413
O14   O     O_R   0.934130 0.063540 0.216500 -0.535417
O15   O     O_R   0.934130 0.436460 0.716500 -0.535411
O16   O     O_R   0.065870 0.563540 0.283500 -0.535412
C5    C     C_R   0.998457 0.596581 0.894438 0.757627
C6    C     C_R   0.001543 0.403418 0.105562 0.757633
C7    C     C_R   0.001543 0.096583 0.605561 0.757628
C8    C     C_R   0.998457 0.903416 0.394439 0.757628
O17   O     O_3   0.022790 0.603020 0.723980 -0.375754
O18   O     O_3   0.977210 0.396980 0.276020 -0.375762
O19   O     O_3   0.977210 0.103020 0.776020 -0.375745
O20   O     O_3   0.022790 0.896980 0.223980 -0.375739
V1    V     V_3+5 0.995770 0.877900 0.754830 1.404634
V2    V     V_3+5 0.004230 0.122100 0.245170 1.404632
V3    V     V_3+5 0.004230 0.377900 0.745170 1.404637
V4    V     V_3+5 0.995770 0.622100 0.254830 1.404618
C9    C     C_2   0.001689 0.082341 0.519407 -0.330116
C10   C     C_2   0.998311 0.917659 0.480592 -0.330115
C11   C     C_2   0.998310 0.582339 0.980591 -0.330114
C12   C     C_2   0.001690 0.417661 0.019409 -0.330110
H1    H     H_    0.004430 0.210374 0.487326 0.153267
H2    H     H_    0.995570 0.789626 0.512674 0.153268
H3    H     H_    0.995569 0.710369 0.012670 0.153273
H4    H     H_    0.004431 0.289631 0.987330 0.153272
C13   C     C_R   0.677376 0.807404 0.089021 0.616598
C14   C     C_R   0.322629 0.192389 0.910920 0.616663
C15   C     C_R   0.322624 0.307675 0.410855 0.616742
C16   C     C_R   0.677380 0.692541 0.589118 0.616710
O21   O     O_2   0.707778 0.680377 0.062462 -0.523911
O22   O     O_2   0.292237 0.319492 0.937449 -0.523888
O23   O     O_2   0.292231 0.180455 0.437322 -0.523887
O24   O     O_2   0.707780 0.819722 0.562642 -0.523896
N1    N     N_R   0.695862 0.933272 0.144722 -0.557587
N2    N     N_R   0.304134 0.066481 0.855244 -0.557601
N3    N     N_R   0.304128 0.433725 0.355244 -0.557598
N4    N     N_R   0.695869 0.566500 0.644740 -0.557598
C17   C     C_R   0.664563 0.058614 0.174141 0.643025
C18   C     C_R   0.335421 0.941056 0.825851 0.643004
C19   C     C_R   0.335414 0.559294 0.325920 0.642948
C20   C     C_R   0.664574 0.440993 0.674081 0.642977
C21   C     C_R   0.778300 0.086517 0.155533 -0.099272
C22   C     C_R   0.221680 0.913408 0.844553 -0.099293
C23   C     C_R   0.221671 0.586689 0.344628 -0.099282
C24   C     C_R   0.778313 0.413424 0.655389 -0.099272
C25   C     C_R   0.830440 0.076935 0.169106 -0.192251
C26   C     C_R   0.169541 0.923069 0.830996 -0.192216
C27   C     C_R   0.169532 0.576969 0.331072 -0.192216
C28   C     C_R   0.830453 0.423077 0.668955 -0.192225
C29   C     C_R   0.824940 0.761394 0.213585 -0.197025
C30   C     C_R   0.175072 0.238431 0.786316 -0.197034
C31   C     C_R   0.175073 0.261746 0.286238 -0.197037
C32   C     C_R   0.824937 0.738355 0.713734 -0.197023
C33   C     C_R   0.772882 0.772082 0.201034 -0.062467
C34   C     C_R   0.227131 0.227662 0.798857 -0.062431
C35   C     C_R   0.227131 0.272577 0.298775 -0.062397
C36   C     C_R   0.772879 0.727591 0.701188 -0.062411
C37   C     C_R   0.748959 0.933357 0.170307 0.350800
C38   C     C_R   0.251037 0.066434 0.829668 0.350793
C39   C     C_R   0.251032 0.433759 0.329665 0.350743
C40   C     C_R   0.748965 0.566416 0.670319 0.350750
C41   C     C_R   0.596214 0.952612 0.080466 -0.072995
C42   C     C_R   0.403783 0.047102 0.919493 -0.073001
C43   C     C_R   0.403779 0.453029 0.419494 -0.072973
C44   C     C_R   0.596219 0.547240 0.580484 -0.072945
C45   C     C_R   0.627147 0.812154 0.057507 -0.044583
C46   C     C_R   0.372858 0.187603 0.942439 -0.044642
C47   C     C_R   0.372852 0.312429 0.442373 -0.044806
C48   C     C_R   0.627151 0.687812 0.557599 -0.044769
C49   C     C_R   0.606417 0.673796 0.006885 -0.199795
C50   C     C_R   0.393591 0.325962 0.993056 -0.199888
C51   C     C_R   0.393582 0.173959 0.492928 -0.200030
C52   C     C_R   0.606425 0.826279 0.507038 -0.199981
C53   C     C_R   0.613652 0.068849 0.143103 -0.094118
C54   C     C_R   0.386334 0.930807 0.856882 -0.094063
C55   C     C_R   0.386327 0.569510 0.356951 -0.093959
C56   C     C_R   0.613661 0.430801 0.643047 -0.093993
C57   C     C_R   0.854552 0.912932 0.196957 -0.058069
C58   C     C_R   0.145446 0.087023 0.803047 -0.058074
C59   C     C_R   0.145443 0.413050 0.303048 -0.058075
C60   C     C_R   0.854556 0.586991 0.696955 -0.058075
H5    H     H_    0.841944 0.634049 0.236425 0.137218
H6    H     H_    0.158079 0.365724 0.763399 0.137226
H7    H     H_    0.158082 0.134490 0.263259 0.137241
H8    H     H_    0.841936 0.865614 0.736694 0.137242
H9    H     H_    0.751059 0.652232 0.212996 0.151083
H10   H     H_    0.248967 0.347415 0.786818 0.151122
H11   H     H_    0.248971 0.152900 0.286675 0.151201
H12   H     H_    0.751049 0.847313 0.713267 0.151173
H13   H     H_    0.627890 0.551762 0.996607 0.168961
H14   H     H_    0.372123 0.448015 0.003326 0.168968
H15   H     H_    0.372109 0.051868 0.503151 0.169003
H16   H     H_    0.627902 0.948357 0.496810 0.169000
C61   C     C_R   0.484462 0.890050 0.932696 -0.068793
C62   C     C_R   0.515535 0.109648 0.067257 -0.068903
C63   C     C_R   0.515533 0.390185 0.567218 -0.068678
C64   C     C_R   0.484466 0.610092 0.432750 -0.068609
C65   C     C_R   0.469756 0.146905 0.020524 0.079852
C66   C     C_R   0.530246 0.852820 0.979422 0.079544
C67   C     C_R   0.530253 0.647237 0.479484 0.079173
C68   C     C_R   0.469751 0.353017 0.520477 0.079490
C69   C     C_R   0.452540 0.025823 0.958421 -0.063691
C70   C     C_R   0.547460 0.973896 0.041529 -0.063930
C71   C     C_R   0.547462 0.526027 0.541543 -0.063595
C72   C     C_R   0.452539 0.474235 0.458423 -0.063388
C73   C     C_R   0.471497 0.813529 0.856679 0.500390
C74   C     C_R   0.528488 0.186102 0.143289 0.500430
C75   C     C_R   0.528490 0.313521 0.643210 0.500419
C76   C     C_R   0.471497 0.686810 0.356770 0.500387
C77   C     C_R   0.421182 0.819957 0.823492 -0.143803
C78   C     C_R   0.578795 0.179626 0.176506 -0.143504
C79   C     C_R   0.578805 0.319869 0.676394 -0.143950
C80   C     C_R   0.421175 0.680504 0.323614 -0.144253
O25   O     O_2   0.317575 0.827074 0.767191 -0.510082
O26   O     O_2   0.682397 0.172530 0.232833 -0.510099
O27   O     O_2   0.682413 0.326877 0.732694 -0.510077
O28   O     O_2   0.317565 0.673443 0.267325 -0.510075
C81   C     C_R   0.556686 0.686265 0.973041 0.447989
C82   C     C_R   0.443319 0.313468 0.026908 0.447904
C83   C     C_R   0.443306 0.186425 0.526799 0.447822
C84   C     C_R   0.556699 0.813825 0.473166 0.447914
H17   H     H_    0.148108 0.803030 0.843993 0.138075
H18   H     H_    0.851860 0.197081 0.156198 0.138068
H19   H     H_    0.851881 0.303071 0.655922 0.138080
H20   H     H_    0.148095 0.696929 0.344131 0.138086
H21   H     H_    0.239180 0.788534 0.869168 0.146495
H22   H     H_    0.760788 0.211444 0.130994 0.146476
H23   H     H_    0.760807 0.288590 0.630733 0.146565
H24   H     H_    0.239167 0.711521 0.369304 0.146575
H25   H     H_    0.410352 0.752891 0.767882 0.234447
H26   H     H_    0.589613 0.246632 0.232133 0.234421
H27   H     H_    0.589631 0.252689 0.731981 0.234439
H28   H     H_    0.410339 0.747731 0.268041 0.234474
S1    S     S_3+6 0.518115 0.786754 0.791479 0.089356
O29   O     O_2   0.553494 0.946921 0.803162 -0.317762
O30   O     O_2   0.548133 0.613613 0.805135 -0.291146
O31   O     O_3   0.492143 0.784002 0.697869 -0.443809
H29   H     H_    0.520572 0.787415 0.666636 0.370561
S2    S     S_3+6 0.481843 0.213147 0.208422 0.089319
O32   O     O_2   0.452124 0.387033 0.195005 -0.290991
O33   O     O_2   0.446212 0.053807 0.196387 -0.317866
O34   O     O_3   0.507739 0.214628 0.302073 -0.443644
H30   H     H_    0.479269 0.212124 0.333236 0.370486
S3    S     S_3+6 0.481871 0.286741 0.708411 0.089421
O35   O     O_2   0.446560 0.447102 0.696832 -0.317610
O36   O     O_2   0.451776 0.113779 0.694666 -0.291252
O37   O     O_3   0.507857 0.283616 0.802012 -0.443835
H31   H     H_    0.479434 0.286900 0.833260 0.370546
S4    S     S_3+6 0.518091 0.713294 0.291503 0.089474
O38   O     O_2   0.548483 0.885499 0.305480 -0.291392
O39   O     O_2   0.553142 0.552109 0.302730 -0.317494
O40   O     O_3   0.492029 0.717677 0.197948 -0.443983
H32   H     H_    0.520409 0.713691 0.166623 0.370598
O41   O     O_3   0.531660 0.531900 0.941927 -0.612932
H33   H     H_    0.554404 0.423953 0.947458 0.321115
O42   O     O_3   0.468349 0.467827 0.058017 -0.612973
H34   H     H_    0.445607 0.575780 0.052494 0.321050
O43   O     O_3   0.468319 0.032045 0.557908 -0.612969
H35   H     H_    0.445573 0.924089 0.552348 0.321068
O44   O     O_3   0.531692 0.968201 0.442040 -0.612888
H36   H     H_    0.554438 0.076155 0.447610 0.321127

loop_
_geom_bond_atom_site_label_1
_geom_bond_atom_site_label_2
_ccdc_geom_bond_type
O17   V3    S    
C47   C51   A    
O42   H34   S    
N1    C17   A    
O1    C5    A    
O34   H30   S    
O19   V1    S    
O13   V1    S    
C27   H20   S    
O3    C7    A    
C11   C12   D    
C14   C46   A    
C44   C48   A    
O4    V2    S    
O15   V3    S    
C62   C70   A    
C78   H26   S    
C61   C69   A    
C68   C83   A    
O43   H35   S    
C42   C54   A    
O7    C3    A    
C41   C53   A    
C32   C60   A    
C21   H22   S    
C83   O43   S    
O2    V4    S    
S4    O38   D    
N3    C39   S    
C18   C54   A    
N2    C38   S    
C24   H23   S    
C14   O22   S    
C52   H16   S    
C25   C57   A    
C25   H18   S    
C31   C35   A    
C67   C84   A    
C27   C59   A    
O1    V3    S    
C15   C47   A    
C63   C71   A    
O41   H33   S    
C21   C37   A    
O3    V1    S    
C81   O41   S    
C34   C38   A    
C19   C55   A    
C73   C77   A    
C1    O15   A    
S3    O35   D    
C2    O16   A    
C7    C9    S    
O2    C6    A    
S3    O36   D    
C33   C37   A    
C63   C68   A    
O14   V2    S    
C79   H27   S    
S2    O33   D    
C31   H7    S    
C76   C80   A    
C16   N4    A    
O11   C7    A    
C44   C71   A    
O12   C8    A    
C31   C59   A    
C74   S2    S    
C50   H14   S    
O10   V2    S    
C49   H13   S    
C13   N1    A    
C50   C82   A    
C24   C28   A    
O5    V1    S    
C53   C78   A    
O7    V3    S    
C55   C80   A    
C63   C75   A    
O8    V4    S    
C51   C83   A    
C12   H4    S    
C42   C69   A    
C28   C60   A    
S2    O34   S    
C41   C70   A    
S1    O31   S    
O40   H32   S    
C64   C72   A    
O18   V4    S    
C80   H28   S    
C36   H12   S    
N4    C40   S    
C46   C50   A    
O11   V3    S    
C24   C40   A    
C8    C10   S    
C68   C72   A    
C32   C36   A    
C74   C78   A    
C11   H3    S    
C32   H8    S    
O5    C1    A    
C54   C77   A    
C42   C46   A    
C75   C79   A    
O44   H36   S    
C1    C60   S    
C41   C45   A    
O8    C4    A    
C13   C45   A    
C43   C72   A    
C9    C10   D    
S3    O37   S    
O9    C5    A    
C36   C40   A    
N2    C18   A    
C21   C25   A    
C44   C56   A    
C62   C65   A    
C52   C84   A    
S2    O32   D    
C66   C70   A    
C22   C26   A    
C14   N2    A    
C65   C69   A    
C61   C66   A    
C3    C58   S    
O6    V2    S    
C23   H24   S    
C67   C71   A    
C65   C82   A    
C26   C58   A    
C17   C53   A    
N1    C37   S    
C4    C57   S    
C56   C79   A    
C23   C39   A    
C22   C38   A    
O37   H31   S    
O16   V4    S    
O9    V1    S    
C18   O25   S    
C35   H11   S    
C3    O13   A    
C10   H2    S    
C43   C55   A    
S4    O40   S    
C48   C52   A    
C17   O26   S    
C16   C48   A    
O6    C2    A    
C34   H10   S    
C64   C76   A    
C5    C11   S    
C33   H9    S    
O12   V4    S    
C6    C12   S    
C23   C27   A    
C30   C58   A    
C82   O42   S    
O10   C6    A    
S1    O30   D    
C30   H6    S    
C29   H5    S    
O20   V2    S    
C77   H25   S    
S1    O29   D    
C62   C74   A    
C35   C39   A    
C22   H21   S    
C15   N3    A    
C30   C34   A    
C75   S3    S    
C2    C59   S    
O4    C8    A    
C29   C33   A    
S4    O39   D    
C29   C57   A    
C66   C81   A    
C73   S1    S    
N3    C19   A    
C26   H17   S    
C9    H1    S    
C84   O44   S    
C20   O27   S    
C43   C47   A    
N4    C20   A    
C20   C56   A    
C51   H15   S    
O31   H29   S    
C19   O28   S    
C4    O14   A    
C13   O21   S    
C61   C73   A    
C15   O23   S    
C64   C67   A    
C45   C49   A    
C16   O24   S    
C49   C81   A    
C76   S4    S    
C28   H19   S    
