data_mof_unit_54028.cif
_audit_creation_date              2012-12-11T14:54:40-0500
_audit_creation_method            fapswitch 2.2
_symmetry_space_group_name_H-M    P1
_symmetry_Int_Tables_number       1
_space_group_crystal_system       triclinic
_cell_length_a                    18.851155
_cell_length_b                    10.966428
_cell_length_c                    18.680833
_cell_angle_alpha                 89.836457
_cell_angle_beta                  90.72942
_cell_angle_gamma                 90.12809
_cell_volume                      3861.54748541

loop_
_atom_site_label
_atom_site_type_symbol
_atom_type_description
_atom_site_fract_x
_atom_site_fract_y
_atom_site_fract_z
_atom_type_partial_charge
C1    C     C_R   0.730557 0.377804 0.646318 0.577416
C2    C     C_R   0.294696 0.837053 0.456927 0.019905
C3    C     C_R   0.044473 0.556712 0.447271 -0.120378
C4    C     C_2   0.829141 0.125430 0.100022 0.587648
C5    C     C_2   0.177281 0.130188 0.897078 0.578224
C6    C     C_2   0.329119 0.625461 0.100039 0.587379
C7    C     C_2   0.677212 0.630123 0.897111 0.578526
C8    C     C_2   0.620117 0.847730 0.083283 0.550153
C9    C     C_2   0.381567 0.849940 0.917050 0.560714
C10   C     C_2   0.120113 0.347760 0.083300 0.550712
C11   C     C_2   0.881560 0.349915 0.917068 0.560179
C12   C     C_2   0.642963 0.783015 0.575895 0.560187
C13   C     C_R   0.205094 0.337098 0.543303 0.019870
C14   C     C_2   0.346656 0.760348 0.418450 0.548746
C15   C     C_2   0.153074 0.260176 0.582066 0.549084
C16   C     C_2   0.856926 0.283590 0.424724 0.560517
C17   C     C_3   0.531308 0.447386 0.096974 -0.222430
C18   C     C_3   0.512811 0.473102 0.907470 -0.219013
C19   C     C_3   0.031490 0.947284 0.097061 -0.223214
C20   C     C_3   0.012990 0.973132 0.907559 -0.218854
C21   C     C_R   0.802773 0.356814 0.462466 0.038841
C22   C     C_R   0.698906 0.850987 0.463190 -0.131119
C23   C     C_R   0.293592 0.834065 0.531852 -0.154705
C24   C     C_R   0.206322 0.333654 0.468371 -0.154288
C25   C     C_R   0.801261 0.351918 0.537166 -0.131147
C26   C     C_R   0.751551 0.913927 0.425529 0.008559
C27   C     C_R   0.240981 0.897571 0.569044 0.003289
C28   C     C_R   0.258968 0.397362 0.430926 0.003531
C29   C     C_R   0.271349 0.373199 0.355917 0.570151
C30   C     C_R   0.748677 0.414674 0.574600 0.008674
C31   C     C_R   0.800176 0.987309 0.461797 -0.142235
C32   C     C_R   0.187779 0.959269 0.531299 -0.126493
C33   C     C_R   0.312080 0.459737 0.468457 -0.125944
C34   C     C_R   0.700126 0.487811 0.538132 -0.142711
C35   C     C_R   0.801005 0.990232 0.534657 -0.173545
C36   C     C_R   0.187610 0.961319 0.458353 -0.152500
C37   C     C_R   0.312046 0.462512 0.541400 -0.152201
C38   C     C_R   0.699086 0.490182 0.465285 -0.173842
C39   C     C_R   0.749112 0.928206 0.573894 0.007865
C40   C     C_R   0.228653 0.873357 0.644104 0.572380
C41   C     C_R   0.244030 0.910254 0.420618 0.012969
C42   C     C_R   0.255700 0.410911 0.579349 0.013133
C43   C     C_R   0.750866 0.428219 0.426244 0.007663
C44   C     C_R   0.505244 0.055146 0.963895 -0.166207
C45   C     C_R   0.499606 0.058330 0.036252 -0.172862
C46   C     C_R   0.005254 0.555152 0.963906 -0.167441
C47   C     C_R   0.999626 0.558326 0.036265 -0.172157
C48   C     C_R   0.488424 0.168144 0.071482 0.018493
C49   C     C_R   0.501130 0.162217 0.923451 0.044000
C50   C     C_R   0.988479 0.668142 0.071507 0.020781
C51   C     C_R   0.769500 0.877551 0.353764 0.574791
C52   C     C_R   0.001165 0.662235 0.923471 0.041978
C53   C     C_R   0.480618 0.277935 0.031487 0.116774
C54   C     C_R   0.483436 0.272917 0.956108 0.120699
C55   C     C_R   0.980722 0.777953 0.031526 0.117702
C56   C     C_R   0.983528 0.772952 0.956147 0.119725
C57   C     C_R   0.529963 0.155065 0.647202 0.549057
C58   C     C_R   0.433981 0.150545 0.360337 0.555943
C59   C     C_R   0.066096 0.650898 0.639680 0.557122
C60   C     C_R   0.969993 0.655037 0.352822 0.545607
C61   C     C_R   0.779610 0.063986 0.981838 -0.172475
C62   C     C_3   0.510730 0.366486 0.452824 -0.256320
C63   C     C_R   0.222620 0.065637 0.016946 -0.168237
C64   C     C_R   0.279607 0.564000 0.981845 -0.172566
C65   C     C_R   0.722603 0.565609 0.016959 -0.168157
C66   C     C_R   0.782697 0.045292 0.055737 0.018461
C67   C     C_R   0.220261 0.047092 0.942954 0.015736
C68   C     C_R   0.282689 0.545312 0.055747 0.018247
C69   C     C_R   0.720235 0.547061 0.942970 0.015981
C70   C     C_R   0.739905 0.952752 0.086587 -0.003247
C71   C     C_R   0.261408 0.952460 0.913119 -0.003007
C72   C     C_R   0.239900 0.452769 0.086596 -0.004002
C73   C     C_3   0.533148 0.368442 0.531012 -0.263915
C74   C     C_R   0.761397 0.452449 0.913128 -0.002234
C75   C     C_R   0.680411 0.909617 0.047489 0.011048
C76   C     C_R   0.320455 0.908698 0.952729 0.010115
C77   C     C_R   0.180404 0.409644 0.047499 0.011005
C78   C     C_R   0.820450 0.408696 0.952737 0.010152
C79   C     C_R   0.676543 0.933817 0.973742 -0.131109
C80   C     C_R   0.323785 0.931902 0.026667 -0.131737
C81   C     C_R   0.176532 0.433855 0.973752 -0.131411
C82   C     C_R   0.823783 0.431906 0.026672 -0.131393
C83   C     C_R   0.729251 0.002753 0.939739 -0.043063
C84   C     C_3   0.966559 0.867950 0.468566 -0.263832
C85   C     C_R   0.271306 0.002169 0.060009 -0.043024
C86   C     C_R   0.229247 0.502769 0.939744 -0.043670
C87   C     C_R   0.771303 0.502165 0.060015 -0.042429
C88   C     C_R   0.741401 0.968377 0.647362 0.596012
C89   C     C_R   0.257193 0.964488 0.350792 0.581902
C90   C     C_R   0.242728 0.464637 0.649181 0.585676
C91   C     C_R   0.758569 0.468344 0.352667 0.592367
C92   C     C_R   0.732794 0.385400 0.849785 0.576825
C93   C     C_R   0.267392 0.385775 0.150323 0.582533
C94   C     C_R   0.232798 0.885409 0.849777 0.579074
C95   C     C_3   0.989127 0.866190 0.546716 -0.255522
C96   C     C_R   0.767396 0.885764 0.150315 0.580317
C97   C     C_R   0.530396 0.156683 0.852097 0.575375
C98   C     C_R   0.466236 0.157812 0.145569 0.567873
C99   C     C_R   0.030406 0.656686 0.852104 0.586547
C100  C     C_R   0.966257 0.657813 0.145581 0.557926
C101  C     C_R   0.727083 0.023299 0.861705 0.566531
C102  C     C_R   0.272936 0.023012 0.138153 0.567984
C103  C     C_R   0.227082 0.523303 0.861706 0.568843
C104  C     C_R   0.772936 0.523013 0.138155 0.565729
C105  C     C_R   0.443727 0.158290 0.437940 0.003926
C106  C     C_R   0.697243 0.856309 0.537890 0.039079
C107  C     C_R   0.484693 0.163293 0.583150 0.017553
C108  C     C_R   0.015195 0.663412 0.416904 0.016293
C109  C     C_R   0.056467 0.658822 0.562050 0.004063
C110  C     C_R   0.458765 0.269062 0.472148 0.018540
C111  C     C_R   0.479174 0.271443 0.543644 0.011708
C112  C     C_R   0.020646 0.771592 0.456103 0.010388
C113  C     C_R   0.041185 0.769416 0.527568 0.017704
C114  C     C_R   0.455559 0.056299 0.553037 -0.120277
C115  C     C_R   0.435885 0.053900 0.480641 -0.141952
C116  C     C_R   0.064366 0.554531 0.519625 -0.141301
Cr1   Cr    Cr6+3 0.771950 0.169480 0.750100 1.055790
Cr2   Cr    Cr6+3 0.383410 0.010620 0.249390 1.064137
Cr3   Cr    Cr6+3 0.116590 0.510620 0.750610 1.059640
Cr4   Cr    Cr6+3 0.883410 0.510620 0.249390 1.070291
Cr5   Cr    Cr6+3 0.228050 0.169480 0.249900 1.038037
Cr6   Cr    Cr6+3 0.271950 0.669480 0.750100 1.045393
Cr7   Cr    Cr6+3 0.728050 0.669480 0.249900 1.048225
Cr8   Cr    Cr6+3 0.614930 0.323340 0.749170 1.029822
Cr9   Cr    Cr6+3 0.385070 0.323340 0.250830 1.040560
Cr10  Cr    Cr6+3 0.114930 0.823340 0.749170 1.027189
Cr11  Cr    Cr6+3 0.885070 0.823340 0.250830 1.043222
Cr12  Cr    Cr6+3 0.616590 0.010620 0.750610 1.065952
H1    H     H_    0.455213 0.971336 0.582752 0.172374
H2    H     H_    0.367899 0.897001 0.057987 0.184554
H3    H     H_    0.132034 0.400333 0.942868 0.181602
H4    H     H_    0.867898 0.397006 0.057993 0.184660
H5    H     H_    0.911807 0.833259 0.459601 0.158374
H6    H     H_    0.015530 0.951994 0.564134 0.162445
H7    H     H_    0.484234 0.451992 0.435093 0.161925
H8    H     H_    0.587924 0.334363 0.540200 0.157784
H9    H     H_    0.553156 0.333432 0.416913 0.159939
H10   H     H_    0.519942 0.455161 0.558428 0.161161
H11   H     H_    0.979592 0.954850 0.440863 0.159934
H12   H     H_    0.420487 0.968410 0.456765 0.175567
H13   H     H_    0.946823 0.832593 0.582812 0.162367
H14   H     H_    0.662195 0.791418 0.434921 0.161258
H15   H     H_    0.331532 0.777902 0.560858 0.163666
H16   H     H_    0.168462 0.277001 0.439585 0.163643
H17   H     H_    0.837980 0.292647 0.565641 0.161694
H18   H     H_    0.842444 0.034019 0.434441 0.179271
H19   H     H_    0.144065 0.002911 0.557898 0.179897
H20   H     H_    0.355862 0.503473 0.441704 0.180074
H21   H     H_    0.657977 0.534489 0.565360 0.179354
H22   H     H_    0.841656 0.046232 0.559740 0.161339
H23   H     H_    0.079939 0.469177 0.543720 0.174858
H24   H     H_    0.145472 0.012402 0.432153 0.160203
H25   H     H_    0.354061 0.514266 0.567383 0.161226
H26   H     H_    0.658374 0.545777 0.440041 0.160918
H27   H     H_    0.515551 0.967278 0.940141 0.191883
H28   H     H_    0.500887 0.972120 0.064230 0.198948
H29   H     H_    0.015526 0.467281 0.940142 0.191623
H30   H     H_    0.000875 0.472105 0.064234 0.199194
H31   H     H_    0.922489 0.213988 0.110813 0.339225
H32   H     H_    0.087337 0.226805 0.883967 0.333804
H33   H     H_    0.422456 0.714046 0.110843 0.339483
H34   H     H_    0.044829 0.471791 0.417802 0.172368
H35   H     H_    0.587237 0.726678 0.884044 0.333528
H36   H     H_    0.561423 0.829603 0.172360 0.328123
H37   H     H_    0.440111 0.834167 0.827821 0.327271
H38   H     H_    0.061416 0.329672 0.172381 0.326030
H39   H     H_    0.940099 0.334069 0.827844 0.329440
H40   H     H_    0.617775 0.682277 0.662641 0.337013
H41   H     H_    0.369811 0.665104 0.329474 0.347471
H42   H     H_    0.129894 0.164703 0.671334 0.346443
H43   H     H_    0.882002 0.183098 0.338256 0.337887
H44   H     H_    0.436395 0.451131 0.038926 0.289278
H45   H     H_    0.815253 0.128488 0.957215 0.185412
H46   H     H_    0.568170 0.475260 0.054024 0.158454
H47   H     H_    0.559104 0.383505 0.134028 0.162547
H48   H     H_    0.516132 0.529555 0.127725 0.175241
H49   H     H_    0.410896 0.401685 0.919477 0.265016
H50   H     H_    0.495979 0.550136 0.941715 0.209339
H51   H     H_    0.514444 0.505246 0.851139 0.170159
H52   H     H_    0.567004 0.443757 0.923921 0.182969
H53   H     H_    0.936594 0.951221 0.038979 0.289281
H54   H     H_    0.068467 0.974829 0.054142 0.158468
H55   H     H_    0.059131 0.883441 0.134251 0.160770
H56   H     H_    0.188092 0.132024 0.040878 0.187860
H57   H     H_    0.016375 0.029636 0.127667 0.174907
H58   H     H_    0.911046 0.901824 0.919530 0.265295
H59   H     H_    0.996179 0.050169 0.941810 0.209304
H60   H     H_    0.014652 0.005299 0.851234 0.171073
H61   H     H_    0.067164 0.943719 0.924024 0.182296
H62   H     H_    0.315253 0.628497 0.957222 0.185528
H63   H     H_    0.688065 0.631976 0.040895 0.187744
H64   H     H_    0.632055 0.900265 0.942853 0.181696
N1    N     N_2   0.468316 0.390943 0.066588 -0.482034
N2    N     N_2   0.462627 0.373950 0.912747 -0.518656
N3    N     N_2   0.968474 0.890969 0.066640 -0.481368
N4    N     N_2   0.962766 0.874035 0.912804 -0.517416
O1    O     O_R   0.787510 0.042610 0.670410 -0.530781
O2    O     O_R   0.454250 0.051070 0.169440 -0.531439
O3    O     O_R   0.045750 0.551070 0.830560 -0.538138
O4    O     O_R   0.954250 0.551070 0.169440 -0.537509
O5    O     O_R   0.681210 0.959150 0.825320 -0.470813
O6    O     O_R   0.318790 0.959150 0.174680 -0.467131
O7    O     O_R   0.181210 0.459150 0.825320 -0.469234
O8    O     O_R   0.818790 0.459150 0.174680 -0.468743
O9    O     O_3   0.667820 0.167810 0.749960 -0.295083
O10   O     O_3   0.332180 0.167810 0.250040 -0.316741
O11   O     O_3   0.167820 0.667810 0.749960 -0.317031
O12   O     O_R   0.212490 0.042610 0.329590 -0.532698
O13   O     O_3   0.832180 0.667810 0.250040 -0.294981
O14   O     O_R   0.765670 0.292090 0.675090 -0.500011
O15   O     O_R   0.234330 0.292090 0.324910 -0.501946
O16   O     O_R   0.265670 0.792090 0.675090 -0.501779
O17   O     O_R   0.734330 0.792090 0.324910 -0.500106
O18   O     O_R   0.670220 0.409020 0.668560 -0.514922
O19   O     O_R   0.329780 0.409020 0.331440 -0.520656
O20   O     O_R   0.170220 0.909020 0.668560 -0.518736
O21   O     O_R   0.829780 0.909020 0.331440 -0.516751
O22   O     O_R   0.556580 0.251590 0.674980 -0.502736
O23   O     O_R   0.287510 0.542610 0.670410 -0.529937
O24   O     O_R   0.443420 0.251590 0.325020 -0.503478
O25   O     O_R   0.056580 0.751590 0.674980 -0.499007
O26   O     O_R   0.943420 0.751590 0.325020 -0.506471
O27   O     O_R   0.545890 0.049670 0.670030 -0.505021
O28   O     O_R   0.454110 0.049670 0.329970 -0.490322
O29   O     O_R   0.045890 0.549670 0.670030 -0.490458
O30   O     O_R   0.954110 0.549670 0.329970 -0.503693
O31   O     O_R   0.681340 0.957860 0.676500 -0.445518
O32   O     O_R   0.318660 0.957860 0.323500 -0.474677
O33   O     O_R   0.181340 0.457860 0.676500 -0.475749
O34   O     O_R   0.712490 0.542610 0.329590 -0.533757
O35   O     O_R   0.818660 0.457860 0.323500 -0.444660
O36   O     O_R   0.787380 0.044010 0.830940 -0.498195
O37   O     O_R   0.212620 0.044010 0.169060 -0.507320
O38   O     O_R   0.287380 0.544010 0.830940 -0.497359
O39   O     O_R   0.712620 0.544010 0.169060 -0.508178
O40   O     O_R   0.765540 0.293390 0.823910 -0.484753
O41   O     O_R   0.234460 0.293390 0.176090 -0.483584
O42   O     O_R   0.265540 0.793390 0.823910 -0.482189
O43   O     O_R   0.734460 0.793390 0.176090 -0.486089
O44   O     O_R   0.670090 0.410410 0.829090 -0.510546
O45   O     O_R   0.556450 0.252890 0.823790 -0.486134
O46   O     O_R   0.329910 0.410410 0.170910 -0.479933
O47   O     O_R   0.170090 0.910410 0.829090 -0.510597
O48   O     O_R   0.829910 0.910410 0.170910 -0.479980
O49   O     O_2   0.809394 0.159155 0.158858 -0.475536
O50   O     O_R   0.895212 0.162332 0.074869 -0.688454
O51   O     O_2   0.197914 0.157739 0.837327 -0.466275
O52   O     O_R   0.113480 0.177062 0.921747 -0.704063
O53   O     O_2   0.309361 0.659175 0.158872 -0.474862
O54   O     O_R   0.395188 0.662389 0.074893 -0.688485
O55   O     O_2   0.697815 0.657708 0.837354 -0.467026
O56   O     O_R   0.443550 0.252890 0.176210 -0.469978
O57   O     O_R   0.613402 0.676925 0.921804 -0.704014
O58   O     O_2   0.581609 0.777764 0.049888 -0.507106
O59   O     O_R   0.604438 0.875549 0.154392 -0.672368
O60   O     O_2   0.421475 0.782849 0.950808 -0.510168
O61   O     O_R   0.396331 0.877604 0.845617 -0.670517
O62   O     O_2   0.081616 0.277763 0.049914 -0.506771
O63   O     O_R   0.104430 0.375611 0.154405 -0.676608
O64   O     O_2   0.921472 0.282851 0.950839 -0.510435
O65   O     O_R   0.896321 0.377528 0.845629 -0.666222
O66   O     O_2   0.584617 0.766142 0.548189 -0.529281
O67   O     O_R   0.056450 0.752890 0.823790 -0.481669
O68   O     O_R   0.659148 0.729664 0.642241 -0.664416
O69   O     O_2   0.402802 0.731976 0.447487 -0.550941
O70   O     O_R   0.330376 0.716641 0.349895 -0.650358
O71   O     O_2   0.096863 0.231638 0.553165 -0.550657
O72   O     O_R   0.169360 0.216465 0.650736 -0.647661
O73   O     O_2   0.915248 0.266892 0.452481 -0.528978
O74   O     O_R   0.840661 0.230182 0.358557 -0.666492
O75   O     O_R   0.943550 0.752890 0.176210 -0.474789
O76   O     O_R   0.545750 0.051070 0.830560 -0.543871

loop_
_geom_bond_atom_site_label_1
_geom_bond_atom_site_label_2
_ccdc_geom_bond_type
C44   C49   A    
C62   H7    S    
C39   C106  A    
C41   C89   S    
C55   C56   A    
C19   N3    S    
C16   C21   S    
C54   N2    S    
H38   O63   S    
C9    O61   S    
Cr8   O9    S    
C18   N2    S    
C53   N1    S    
C55   N3    S    
C5    C67   S    
C30   C34   A    
C52   C99   S    
C114  C115  A    
H44   N1    S    
Cr10  O25   S    
C107  C114  A    
C71   C94   S    
Cr8   O18   S    
C53   C54   A    
C51   O21   A    
Cr11  O21   S    
H41   O70   S    
C84   C112  S    
Cr3   O3    S    
C104  O8    A    
H58   N4    S    
C28   C29   S    
Cr2   O10   S    
C105  C110  A    
C5    O51   D    
C25   H17   S    
C15   O71   D    
C93   O46   A    
C64   C68   A    
C16   O73   D    
H33   O54   S    
Cr8   O44   S    
Cr5   O10   S    
Cr5   O41   S    
C29   O19   A    
C88   O31   A    
C73   H10   S    
C2    C41   A    
C49   C54   A    
C46   C52   A    
Cr9   O10   S    
Cr4   O13   S    
Cr12  O27   S    
C102  O37   A    
C12   O68   S    
C74   C92   S    
C37   C42   A    
H35   O57   S    
C110  C111  A    
C96   O48   A    
C22   C26   A    
C59   O25   A    
C109  C116  A    
Cr4   O4    S    
C21   C43   A    
C31   H18   S    
C58   O24   A    
C61   C66   A    
C94   O42   A    
C104  O39   A    
C92   O44   A    
C65   H63   S    
C84   H11   S    
C93   O41   A    
C79   C83   A    
C76   C80   A    
C10   O62   D    
C90   O33   A    
C29   O15   A    
C35   H22   S    
C23   C27   A    
C101  O36   A    
C103  O7    A    
C17   H47   S    
Cr10  O11   S    
C60   O30   A    
C81   C86   A    
C3    H34   S    
C17   H48   S    
C109  C113  A    
C51   O17   A    
C6    C68   S    
C32   C36   A    
C27   C32   A    
C18   H52   S    
C26   C31   A    
C56   N4    S    
C7    O57   S    
Cr12  O76   S    
C23   H15   S    
C36   C41   A    
Cr2   O6    S    
C39   C88   S    
H32   O52   S    
C59   O29   A    
C86   C103  S    
C95   C113  S    
Cr4   O35   S    
C64   C86   A    
C112  C113  A    
C34   H21   S    
Cr11  O13   S    
C13   C42   A    
C65   C87   A    
C47   C50   A    
Cr7   O43   S    
C2    C23   A    
C48   C53   A    
C63   C67   A    
C84   H5    S    
C80   H2    S    
Cr6   O23   S    
C98   O2    A    
C91   O34   A    
H42   O72   S    
C37   H25   S    
C69   C74   A    
C73   C111  S    
Cr3   O7    S    
C47   H30   S    
C15   O72   S    
H49   N2    S    
C19   H55   S    
C17   N1    S    
C32   H19   S    
C58   O28   A    
C36   H24   S    
Cr1   O40   S    
Cr2   O32   S    
C22   C106  A    
C46   H29   S    
C49   C97   S    
C92   O40   A    
C8    C75   S    
C43   C91   S    
C17   H46   S    
C108  C112  A    
C13   C24   A    
C91   O35   A    
C42   C90   S    
C84   C95   S    
C88   O1    A    
H53   N3    S    
C70   C96   S    
C94   O47   A    
H31   O50   S    
C7    C69   S    
C80   C85   A    
C11   C78   S    
C20   H60   S    
C8    O59   S    
C78   C82   A    
C99   O3    A    
C19   H54   S    
C62   C110  S    
C73   H8    S    
C77   C81   A    
C27   C40   S    
C68   C72   A    
Cr5   O15   S    
C40   O20   A    
C82   C87   A    
C61   H45   S    
Cr9   O46   S    
C62   C73   S    
C45   H28   S    
C12   O66   D    
C115  H12   S    
H40   O68   S    
C95   H6    S    
C4    O50   S    
C90   O23   A    
Cr10  O20   S    
Cr6   O38   S    
Cr7   O39   S    
C72   C93   S    
C100  O4    A    
C9    C76   S    
C10   C77   S    
C18   H51   S    
C95   H13   S    
C103  O38   A    
Cr5   O37   S    
C79   H64   S    
C13   C15   S    
Cr8   O22   S    
C74   C78   A    
Cr1   O9    S    
Cr4   O8    S    
C114  H1    S    
Cr6   O16   S    
C1    O18   A    
C9    O60   D    
Cr3   O11   S    
Cr12  O9    S    
C38   H26   S    
C5    O52   S    
C82   H4    S    
Cr2   O2    S    
Cr4   O30   S    
C71   C76   A    
C20   H61   S    
Cr1   O1    S    
C44   C45   A    
Cr3   O29   S    
C57   O27   A    
C45   C48   A    
C25   C30   A    
C21   C25   A    
C46   C47   A    
Cr1   O14   S    
C63   H56   S    
C83   C101  S    
C6    O53   D    
C57   C107  S    
C1    O14   A    
C34   C38   A    
C44   H27   S    
C107  C111  A    
Cr6   O11   S    
C105  C115  A    
Cr9   O56   S    
Cr11  O48   S    
C24   C28   A    
H43   O74   S    
C60   O26   A    
C60   C108  S    
C28   C33   A    
C72   C77   A    
C64   H62   S    
C22   H14   S    
C14   O69   D    
C97   O76   A    
C6    O54   S    
C18   H50   S    
C61   C83   A    
C3    C108  A    
C12   C106  S    
C48   C98   S    
C40   O16   A    
Cr1   O36   S    
C50   C100  S    
C50   C55   A    
Cr5   O12   S    
C3    C116  A    
C33   H20   S    
C11   O64   D    
C58   C105  S    
Cr7   O17   S    
C102  O6    A    
C38   C43   A    
C101  O5    A    
C26   C51   S    
C19   H57   S    
C20   H59   S    
C98   O56   A    
Cr9   O19   S    
C16   O74   S    
Cr6   O42   S    
Cr7   O34   S    
C24   H16   S    
Cr12  O31   S    
C65   C69   A    
C35   C39   A    
Cr7   O13   S    
C31   C35   A    
C8    O58   D    
C1    C30   S    
C59   C109  S    
H37   O61   S    
Cr10  O67   S    
Cr2   O28   S    
C67   C71   A    
Cr12  O5    S    
C11   O65   S    
C62   H9    S    
C2    C14   S    
C89   O12   A    
C33   C37   A    
C4    O49   D    
Cr11  O26   S    
C81   H3    S    
Cr3   O33   S    
C99   O67   A    
C87   C104  S    
H36   O59   S    
Cr9   O24   S    
C52   C56   A    
C66   C70   A    
C4    C66   S    
C96   O43   A    
C57   O22   A    
C7    O55   D    
Cr10  O47   S    
H39   O65   S    
C10   O63   S    
C70   C75   A    
Cr11  O75   S    
C89   O32   A    
C97   O45   A    
Cr8   O45   S    
C75   C79   A    
C20   N4    S    
C116  H23   S    
C63   C85   A    
C85   C102  S    
C14   O70   S    
C100  O75   A    
