data_mof_unit_5324.cif
_audit_creation_date              2012-12-10T16:57:08-0500
_audit_creation_method            fapswitch 2.2
_symmetry_space_group_name_H-M    P1
_symmetry_Int_Tables_number       1
_space_group_crystal_system       triclinic
_cell_length_a                    7.788293
_cell_length_b                    8.575302
_cell_length_c                    16.672245
_cell_angle_alpha                 92.001264
_cell_angle_beta                  78.858247
_cell_angle_gamma                 93.933369
_cell_volume                      1089.66129974

loop_
_atom_site_label
_atom_site_type_symbol
_atom_type_description
_atom_site_fract_x
_atom_site_fract_y
_atom_site_fract_z
_atom_type_partial_charge
C1    C     C_R   0.546445 0.794856 0.497480 0.997944
C2    C     C_R   0.505135 0.572178 0.205090 -0.038530
C3    C     C_R   0.456096 0.536727 0.879327 -0.161299
C4    C     C_R   0.524519 0.532342 0.122635 -0.269317
C5    C     C_R   0.391782 0.386029 0.904106 0.017460
C6    C     C_R   0.573846 0.383992 0.093241 0.086119
C7    C     C_R   0.341428 0.273326 0.848614 0.234545
C8    C     C_R   0.618314 0.273748 0.144837 0.232163
C9    C     C_R   0.370471 0.311253 0.765328 0.034266
C10   C     C_R   0.603681 0.313363 0.228460 -0.025514
C11   C     C_2   0.399538 0.345049 0.987513 -0.046139
C12   C     C_R   0.453938 0.205086 0.500817 0.947784
C13   C     C_2   0.559427 0.343741 0.008845 -0.043070
C14   C     C_2   0.554846 0.736954 0.772554 0.458620
C15   C     C_2   0.444324 0.730269 0.230961 0.442549
C16   C     C_2   0.642936 0.198482 0.285660 0.372817
C17   C     C_2   0.330440 0.193096 0.703525 0.376203
C18   C     C_2   0.726974 0.333606 0.948526 0.403425
C19   C     C_2   0.230325 0.334985 0.047407 0.381063
C20   C     C_3   0.259660 0.115759 0.879848 -0.762240
C21   C     C_3   0.676701 0.116027 0.109700 -0.843644
C22   C     C_2   0.571037 0.958356 0.495193 -0.287627
C23   C     C_2   0.429806 0.041429 0.500953 -0.233703
C24   C     C_R   0.473548 0.498250 0.654240 0.813801
C25   C     C_R   0.525359 0.495213 0.345584 0.949595
C26   C     C_R   0.443507 0.462282 0.740370 -0.199841
C27   C     C_R   0.543528 0.461157 0.258532 -0.151654
C28   C     C_R   0.483184 0.576789 0.797542 -0.047072
H1    H     H_    0.493136 0.615187 0.080695 0.123231
H2    H     H_    0.242576 0.218654 0.663361 0.087129
H3    H     H_    0.849630 0.374392 0.966163 0.035517
H4    H     H_    0.113762 0.376352 0.030674 0.043842
H5    H     H_    0.141830 0.133129 0.927820 0.197704
H6    H     H_    0.214587 0.038297 0.832635 0.264899
H7    H     H_    0.355472 0.053849 0.906361 0.276357
H8    H     H_    0.571462 0.054808 0.081881 0.251530
H9    H     H_    0.796979 0.132937 0.062078 0.218638
H10   H     H_    0.708756 0.037521 0.155253 0.255746
H11   H     H_    0.491409 0.621131 0.924291 0.166720
H12   H     H_    0.704320 0.009876 0.489301 0.165492
H13   H     H_    0.296540 0.989945 0.506710 0.171853
H14   H     H_    0.023536 0.379311 0.439222 0.196337
H15   H     H_    0.976444 0.620683 0.560773 0.194682
H16   H     H_    0.574705 0.770552 0.709143 0.080789
H17   H     H_    0.423043 0.810173 0.185220 0.082291
H18   H     H_    0.756047 0.219226 0.314561 0.095387
N1    N     N_2   0.953500 0.457650 0.478520 -0.165401
N2    N     N_2   0.046500 0.542350 0.521480 -0.161559
O1    O     O_R   0.388470 0.738640 0.505270 -0.593069
O2    O     O_2   0.416046 0.773945 0.302410 -0.515450
O3    O     O_2   0.545797 0.081758 0.302125 -0.535430
O4    O     O_2   0.398845 0.068164 0.696046 -0.577836
O5    O     O_2   0.730818 0.274951 0.880452 -0.522376
O6    O     O_2   0.217683 0.275706 0.114003 -0.549105
O7    O     O_R   0.611530 0.261360 0.494730 -0.620442
O8    O     O_R   0.679650 0.711510 0.491500 -0.630745
O9    O     O_R   0.320350 0.288490 0.508500 -0.645222
O10   O     O_R   0.337210 0.515200 0.623500 -0.622993
O11   O     O_R   0.662790 0.484800 0.376500 -0.645944
O12   O     O_R   0.628380 0.488060 0.609730 -0.603247
O13   O     O_R   0.371620 0.511940 0.390270 -0.570220
O14   O     O_2   0.592748 0.834011 0.822691 -0.546816
Zn1   Zn    Zn3+2 0.305580 0.518120 0.509190 0.990487
Zn2   Zn    Zn3+2 0.694420 0.481880 0.490810 0.968523

loop_
_geom_bond_atom_site_label_1
_geom_bond_atom_site_label_2
_ccdc_geom_bond_type
C10   C27   A    
C25   O13   A    
C2    C4    A    
O8    Zn2   S    
O9    Zn1   S    
C2    C27   A    
O1    Zn1   S    
C25   C27   S    
H15   N2    S    
C14   H16   S    
C26   C28   A    
N1    N2    D    
C23   H13   S    
C16   O3    D    
C24   O12   A    
O12   Zn2   S    
C20   H6    S    
O7    Zn2   S    
C8    C21   S    
C22   H12   S    
C1    C22   S    
C21   H8    S    
C10   C16   S    
C6    C13   S    
C2    C15   S    
C11   C13   D    
C12   C23   S    
C11   C19   S    
O11   Zn2   S    
C17   H2    S    
C13   C18   S    
C12   O9    A    
C17   O4    D    
C9    C17   S    
C3    C28   A    
C1    O8    A    
C24   C26   S    
C9    C26   A    
C5    C11   S    
C5    C7    A    
H14   N1    S    
C12   O7    A    
C20   H5    S    
C3    H11   S    
C14   O14   D    
C7    C9    A    
N1    Zn2   S    
C21   H9    S    
C19   O6    D    
C24   O10   A    
C4    C6    A    
C15   O2    D    
C16   H18   S    
O10   Zn1   S    
O13   Zn1   S    
C15   H17   S    
C22   C23   D    
N2    Zn1   S    
C6    C8    A    
C18   H3    S    
C25   O11   A    
C18   O5    D    
C14   C28   S    
C20   H7    S    
C1    O1    A    
C19   H4    S    
C7    C20   S    
C8    C10   A    
C21   H10   S    
C4    H1    S    
C3    C5    A    
