data_mof_unit_64125.cif
_audit_creation_date              2012-12-10T16:58:34-0500
_audit_creation_method            fapswitch 2.2
_symmetry_space_group_name_H-M    P1
_symmetry_Int_Tables_number       1
_space_group_crystal_system       triclinic
_cell_length_a                    13.161935
_cell_length_b                    13.140211
_cell_length_c                    15.601659
_cell_angle_alpha                 108.820712
_cell_angle_beta                  74.354316
_cell_angle_gamma                 91.171064
_cell_volume                      2452.84415964

loop_
_atom_site_label
_atom_site_type_symbol
_atom_type_description
_atom_site_fract_x
_atom_site_fract_y
_atom_site_fract_z
_atom_type_partial_charge
C1    C     C_R   0.217947 0.541481 0.535983 0.539108
C2    C     C_R   0.527448 0.497746 0.116349 0.304895
C3    C     C_R   0.579647 0.310884 0.088263 0.340864
C4    C     C_R   0.780436 0.458143 0.464640 0.546092
C5    C     C_R   0.449372 0.588694 0.854194 -0.031239
C6    C     C_2   0.893437 0.444721 0.450670 -0.029376
C7    C     C_2   0.935987 0.487518 0.521879 0.404914
C8    C     C_2   0.102375 0.552705 0.555408 0.427157
C9    C     C_2   0.051493 0.479056 0.502923 0.347407
C10   C     C_2   0.537934 0.895174 0.539978 -0.060684
C11   C     C_2   0.505069 0.937726 0.484295 -0.129739
C12   C     C_R   0.460907 0.734967 0.992691 0.420438
C13   C     C_2   0.462184 0.102700 0.456357 -0.070400
C14   C     C_2   0.508414 0.053880 0.500766 -0.139783
C15   C     C_R   0.470298 0.218470 0.471938 0.518678
C16   C     C_R   0.529322 0.781327 0.528040 0.528629
C17   C     C_R   0.544263 0.441977 0.247831 0.618402
C18   C     C_R   0.455830 0.555891 0.752828 0.533410
C19   C     C_R   0.566544 0.282138 0.998498 -0.083216
C20   C     C_R   0.557481 0.417835 0.147753 0.062901
C21   C     C_R   0.439673 0.699470 0.905812 0.424089
C22   C     C_R   0.491167 0.661534 0.029942 -0.089540
C23   C     C_R   0.492215 0.549063 0.984933 -0.008920
C24   C     C_R   0.470097 0.512718 0.895794 -0.047012
C25   C     C_R   0.518897 0.471253 0.023119 0.050473
C26   C     C_R   0.532707 0.360229 0.966888 -0.051555
C27   C     C_R   0.506740 0.326684 0.881824 -0.094192
C28   C     C_R   0.470732 0.401175 0.849340 -0.068058
F1    F     F_    0.606707 0.233121 0.119709 -0.581429
F2    F     F_    0.873431 0.541693 0.610012 -0.558615
F3    F     F_    0.047533 0.638540 0.628495 -0.560421
F4    F     F_    0.492405 0.595729 0.182233 -0.644760
F5    F     F_    0.418654 0.774478 0.868829 -0.539978
F6    F     F_    0.458645 0.842229 0.038813 -0.534769
F7    F     F_    0.106383 0.394608 0.427992 -0.638103
H1    H     H_    0.943389 0.409195 0.378935 0.122719
H2    H     H_    0.473679 0.887153 0.428319 0.164466
H3    H     H_    0.419579 0.056897 0.407373 0.150012
H4    H     H_    0.510941 0.241720 0.841477 0.130011
H5    H     H_    0.578787 0.197901 0.954983 0.181749
H6    H     H_    0.443843 0.369552 0.786854 0.142613
H7    H     H_    0.549396 0.100413 0.550957 0.165450
H8    H     H_    0.564203 0.945856 0.599143 0.118137
H9    H     H_    0.517553 0.696090 0.091948 0.239662
O1    O     O_3   0.500000 0.500000 0.500000 -0.493670
O2    O     O_R   0.468210 0.402800 0.293550 -0.496668
O3    O     O_R   0.410220 0.615430 0.721590 -0.464007
O4    O     O_R   0.602670 0.506150 0.290200 -0.510913
O5    O     O_R   0.518910 0.475630 0.694660 -0.547905
O6    O     O_R   0.526920 0.270960 0.524520 -0.553815
O7    O     O_R   0.454490 0.752910 0.584610 -0.507491
O8    O     O_R   0.270990 0.462040 0.468400 -0.495061
O9    O     O_R   0.747590 0.514090 0.422470 -0.535588
O10   O     O_R   0.265290 0.607490 0.589320 -0.506951
O11   O     O_R   0.716130 0.416380 0.519810 -0.490429
O12   O     O_R   0.423930 0.265320 0.430520 -0.504995
O13   O     O_R   0.594650 0.710810 0.460350 -0.514221
Zn1   Zn    Zn3+2 0.564370 0.417180 0.558730 0.983757
Zn2   Zn    Zn3+2 0.417220 0.409120 0.424430 1.049029
Zn3   Zn    Zn3+2 0.609330 0.556780 0.419650 1.020328
Zn4   Zn    Zn3+2 0.409080 0.616930 0.597190 1.048111

loop_
_geom_bond_atom_site_label_1
_geom_bond_atom_site_label_2
_ccdc_geom_bond_type
O3    Zn4   S    
C23   C24   A    
C16   O7    A    
O1    Zn3   S    
C3    C19   A    
C6    C7    D    
O10   Zn4   S    
C12   C22   A    
C4    O9    A    
C1    C8    S    
C10   H8    S    
O7    Zn4   S    
O12   Zn2   S    
C14   H7    S    
C17   O4    A    
C18   O3    A    
C23   C25   A    
C26   C27   A    
C3    C20   A    
C7    F2    S    
C10   C16   S    
C13   C14   D    
C15   O12   A    
C3    F1    S    
C13   H3    S    
C5    C24   A    
C1    O10   A    
O1    Zn4   S    
C1    O8    A    
O9    Zn3   S    
C6    H1    S    
O4    Zn3   S    
C2    C25   A    
C16   O13   A    
C13   C15   S    
C4    O11   A    
O2    Zn2   S    
C11   C14   S    
C9    F7    S    
O1    Zn1   S    
O11   Zn1   S    
C4    C6    S    
C21   F5    S    
C10   C11   D    
C12   F6    S    
O6    Zn1   S    
C7    C9    S    
C28   H6    S    
C17   C20   S    
C5    C21   A    
C17   O2    A    
C2    F4    S    
C19   H5    S    
C15   O6    A    
C27   C28   A    
C11   H2    S    
C19   C26   A    
C22   C23   A    
O1    Zn2   S    
O8    Zn2   S    
C5    C18   S    
C25   C26   A    
C8    F3    S    
C2    C20   A    
C12   C21   A    
C22   H9    S    
O5    Zn1   S    
C24   C28   A    
C18   O5    A    
C27   H4    S    
C8    C9    D    
O13   Zn3   S    
