data_mof_unit_33725.cif
_audit_creation_date              2012-12-10T17:42:10-0500
_audit_creation_method            fapswitch 2.2
_symmetry_space_group_name_H-M    P1
_symmetry_Int_Tables_number       1
_space_group_crystal_system       triclinic
_cell_length_a                    15.097562
_cell_length_b                    13.682846
_cell_length_c                    10.783538
_cell_angle_alpha                 89.978001
_cell_angle_beta                  89.822077
_cell_angle_gamma                 90.337835
_cell_volume                      2227.58792565

loop_
_atom_site_label
_atom_site_type_symbol
_atom_type_description
_atom_site_fract_x
_atom_site_fract_y
_atom_site_fract_z
_atom_type_partial_charge
C1    C     C_R   0.328440 0.499375 0.497538 0.894952
C2    C     C_3   0.576199 0.567713 0.926709 -0.362840
C3    C     C_R   0.813296 0.415744 0.468421 -0.210952
C4    C     C_R   0.767903 0.500419 0.502685 -0.081444
C5    C     C_R   0.814917 0.584818 0.536512 -0.210116
C6    C     C_R   0.907414 0.584873 0.536014 0.036199
C7    C     C_R   0.953033 0.500281 0.498603 0.094513
C8    C     C_R   0.905317 0.415688 0.463947 0.119136
C9    C     C_R   0.954537 0.668400 0.571601 -0.261845
C10   C     C_R   0.047237 0.669395 0.571357 0.452969
C11   C     C_R   0.093643 0.584401 0.533615 -0.019939
C12   C     C_R   0.500925 0.500068 0.259344 0.886841
C13   C     C_R   0.046086 0.500127 0.495525 -0.044333
C14   C     C_R   0.091100 0.415636 0.453374 0.056773
C15   C     C_R   0.041831 0.332447 0.418147 -0.119329
C16   C     C_R   0.950023 0.332365 0.424430 -0.198909
C17   C     C_R   0.186146 0.580791 0.533910 -0.170582
C18   C     C_R   0.231396 0.497927 0.492610 -0.146869
C19   C     C_R   0.184024 0.416060 0.447344 0.331932
C20   C     C_R   0.439933 0.792819 0.571578 0.044486
C21   C     C_R   0.439828 0.206338 0.571383 0.071318
C22   C     C_R   0.559434 0.793661 0.427637 0.032624
C23   C     C_R   0.559851 0.207041 0.428447 0.045759
C24   C     C_R   0.560756 0.896746 0.425806 -0.009515
C25   C     C_R   0.560991 0.103996 0.426267 -0.019307
C26   C     C_R   0.671371 0.500263 0.501898 0.842383
C27   C     C_R   0.499449 0.948121 0.499322 0.091633
C28   C     C_R   0.499489 0.051789 0.499408 0.090446
C29   C     C_R   0.438227 0.895890 0.572927 -0.014126
C30   C     C_R   0.438191 0.103203 0.572870 -0.005751
C31   C     C_R   0.621772 0.949445 0.352761 -0.181563
C32   C     C_R   0.621978 0.052156 0.353133 -0.149128
C33   C     C_R   0.377113 0.050485 0.645849 -0.162384
C34   C     C_R   0.377194 0.947748 0.645983 -0.180399
C35   C     C_R   0.501397 0.499850 0.740047 0.790894
C36   C     C_3   0.407374 0.525515 0.068109 0.235584
C37   C     C_3   0.528090 0.396010 0.069447 0.254065
C38   C     C_3   0.412039 0.536749 0.925499 -0.410631
C39   C     C_3   0.515549 0.394102 0.927558 -0.408733
C40   C     C_3   0.571406 0.574741 0.069435 -0.338023
C41   C     C_3   0.502264 0.500196 0.120897 -0.128686
C42   C     C_3   0.501768 0.499358 0.877194 0.002221
Cu1   Cu    Cu3+1 0.499990 0.597420 0.500010 0.987141
Cu2   Cu    Cu3+1 0.499990 0.402580 0.500010 1.011542
H1    H     H_    0.224432 0.642223 0.567258 0.223238
H2    H     H_    0.073306 0.266051 0.386965 0.210484
H3    H     H_    0.913884 0.267093 0.397466 0.164803
H4    H     H_    0.393470 0.751522 0.627876 0.144018
H5    H     H_    0.393265 0.247024 0.627462 0.134777
H6    H     H_    0.605856 0.752989 0.371303 0.130777
H7    H     H_    0.606845 0.248169 0.373160 0.198474
H8    H     H_    0.669470 0.911255 0.295592 0.152879
H9    H     H_    0.669886 0.091003 0.296327 0.184146
H10   H     H_    0.329387 0.088677 0.702965 0.160237
H11   H     H_    0.329556 0.908878 0.703242 0.182728
H12   H     H_    0.363530 0.461689 0.088289 0.102741
H13   H     H_    0.481702 0.340763 0.109488 0.113060
H14   H     H_    0.356459 0.495183 0.882398 0.148498
H15   H     H_    0.456431 0.348386 0.905077 0.143411
H16   H     H_    0.404631 0.614554 0.897274 0.232431
H17   H     H_    0.572253 0.358746 0.879741 0.239855
H18   H     H_    0.554251 0.650321 0.096288 0.232082
H19   H     H_    0.637998 0.561719 0.109240 0.191587
H20   H     H_    0.569689 0.642413 0.887001 0.186642
H21   H     H_    0.642004 0.539726 0.897462 0.208654
H22   H     H_    0.777009 0.350268 0.442471 0.182272
H23   H     H_    0.779567 0.650076 0.564228 0.157901
H24   H     H_    0.918592 0.732988 0.599890 0.194087
N1    N     N_R   0.499930 0.743810 0.499950 -0.192344
N2    N     N_R   0.499930 0.256190 0.499950 -0.194876
O1    O     O_R   0.370250 0.582280 0.500040 -0.567954
O2    O     O_R   0.370250 0.417720 0.500040 -0.550614
O3    O     O_R   0.499970 0.582270 0.317700 -0.541039
O4    O     O_R   0.499970 0.417730 0.317700 -0.550481
O5    O     O_R   0.629730 0.582260 0.499980 -0.608693
O6    O     O_R   0.629730 0.417740 0.499980 -0.565422
O7    O     O_R   0.500000 0.582270 0.682320 -0.600481
O8    O     O_R   0.500000 0.417730 0.682320 -0.601624
S1    S     S_3+6 0.350300 0.629449 0.134123 0.026139
O9    O     O_2   0.276225 0.658831 0.049279 -0.230673
O10   O     O_2   0.310657 0.600396 0.256393 -0.285927
O11   O     O_3   0.417907 0.726196 0.154202 -0.541673
H25   H     H_    0.386451 0.769287 0.213319 0.386197
S2    S     S_3+6 0.639249 0.355347 0.107916 -0.020445
O12   O     O_2   0.638686 0.245725 0.115864 -0.279187
O13   O     O_2   0.704280 0.385672 0.008895 -0.308029
O14   O     O_3   0.673741 0.400688 0.244246 -0.572677
H26   H     H_    0.726683 0.441041 0.224949 0.353492
S3    S     S_3+6 0.102352 0.778714 0.616395 0.003838
O15   O     O_2   0.036938 0.858603 0.642481 -0.267608
O16   O     O_2   0.155671 0.759514 0.731278 -0.290566
O17   O     O_3   0.170695 0.814725 0.501428 -0.520414
H27   H     H_    0.202080 0.872846 0.534486 0.373775
Cl1   Cl    Cl    0.239671 0.316868 0.375218 -0.610503

loop_
_geom_bond_atom_site_label_1
_geom_bond_atom_site_label_2
_ccdc_geom_bond_type
Cu1   O3    S    
O14   H26   S    
C12   O4    A    
C27   C29   A    
S2    O14   S    
C31   H8    S    
C5    H23   S    
C2    H21   S    
C6    C9    A    
C21   H5    S    
C7    C8    A    
C25   C28   A    
C1    C18   S    
C1    O1    A    
C40   H19   S    
S2    O13   D    
C38   C42   S    
C5    C6    A    
C15   C16   A    
C40   H18   S    
C18   C19   A    
Cu2   O6    S    
C35   C42   S    
C38   H14   S    
C10   S3    S    
C26   O6    A    
C24   C27   A    
C37   S2    S    
Cu2   N2    S    
S3    O16   D    
C9    C10   A    
C22   N1    A    
C22   H6    S    
C25   C32   A    
C34   H11   S    
C8    C16   A    
C12   O3    A    
C23   N2    A    
C36   C41   S    
C16   H3    S    
C2    H20   S    
C33   C34   A    
C39   C42   S    
C20   C29   A    
Cu1   O5    S    
C39   H17   S    
C1    O2    A    
S2    O12   D    
C3    C8    A    
S1    O10   D    
C29   C34   A    
C35   O7    A    
Cu1   Cu2   S    
C12   C41   S    
C36   H12   S    
C23   H7    S    
C31   C32   A    
C39   H15   S    
C17   C18   A    
S3    O17   S    
Cu2   O4    S    
C20   H4    S    
C19   Cl1   S    
C38   H16   S    
C40   C41   S    
C22   C24   A    
C20   N1    A    
C3    H22   S    
C3    C4    A    
C32   H9    S    
C33   H10   S    
C11   C17   A    
Cu1   O1    S    
C30   C33   A    
C14   C19   A    
C17   H1    S    
C4    C5    A    
C36   S1    S    
S1    O11   S    
C4    C26   S    
C6    C7    A    
Cu1   O7    S    
C21   C30   A    
C35   O8    A    
C21   N2    A    
C26   O5    A    
Cu2   O8    S    
C24   C31   A    
C37   C39   S    
C36   C38   S    
C11   C13   A    
C2    C42   S    
C28   C30   A    
O17   H27   S    
Cu2   O2    S    
C23   C25   A    
C37   C41   S    
C9    H24   S    
C10   C11   A    
S1    O9    D    
C2    C40   S    
C7    C13   A    
Cu1   N1    S    
O11   H25   S    
C27   C28   A    
C14   C15   A    
C15   H2    S    
S3    O15   D    
C13   C14   A    
C37   H13   S    
