data_mof_unit_35867.cif
_audit_creation_date              2012-12-10T17:09:55-0500
_audit_creation_method            fapswitch 2.2
_symmetry_space_group_name_H-M    P1
_symmetry_Int_Tables_number       1
_space_group_crystal_system       triclinic
_cell_length_a                    10.83752
_cell_length_b                    13.068118
_cell_length_c                    11.657995
_cell_angle_alpha                 98.461537
_cell_angle_beta                  95.269925
_cell_angle_gamma                 90.820515
_cell_volume                      1625.55032356

loop_
_atom_site_label
_atom_site_type_symbol
_atom_type_description
_atom_site_fract_x
_atom_site_fract_y
_atom_site_fract_z
_atom_type_partial_charge
C1    C     C_R   0.498310 0.299492 0.480303 0.846732
C2    C     C_R   0.071977 0.542006 0.601684 0.019904
C3    C     C_R   0.128065 0.510803 0.498373 -0.089187
C4    C     C_R   0.056041 0.465607 0.397549 -0.239521
C5    C     C_R   0.928954 0.451920 0.397900 -0.020026
C6    C     C_R   0.873431 0.475855 0.503642 -0.155667
C7    C     C_R   0.496500 0.812093 0.528117 -0.080573
C8    C     C_R   0.505017 0.187371 0.471723 -0.136008
C9    C     C_R   0.571470 0.027375 0.366908 -0.198164
C10   C     C_R   0.555532 0.133013 0.375252 -0.269634
C11   C     C_R   0.466710 0.134420 0.560111 0.376028
C12   C     C_R   0.262436 0.507130 0.499659 0.807136
C13   C     C_R   0.471393 0.026070 0.545521 0.060910
C14   C     C_R   0.530728 0.972509 0.452027 0.063231
C15   C     C_R   0.547486 0.865473 0.446056 -0.069756
C16   C     C_R   0.431768 0.865031 0.615655 -0.223665
C17   C     C_R   0.418860 0.970812 0.624000 -0.173686
C18   C     C_R   0.357747 0.425809 0.023173 0.333571
C19   C     C_R   0.377314 0.428834 0.146358 -0.060138
C20   C     C_R   0.562768 0.528496 0.156355 0.045998
C21   C     C_R   0.550882 0.526755 0.034043 -0.069739
C22   C     C_R   0.448867 0.472759 0.966807 -0.047093
C23   C     C_R   0.502358 0.700237 0.519848 0.818822
C24   C     C_R   0.439816 0.467683 0.843618 0.010682
C25   C     C_R   0.615578 0.580071 0.856006 0.109367
C26   C     C_R   0.635629 0.580291 0.977609 -0.140822
C27   C     C_R   0.737781 0.489165 0.500625 0.812939
C28   C     C_R   0.132029 0.608664 0.697756 -0.221537
C29   C     C_R   0.082450 0.621623 0.805273 0.501072
C30   C     C_R   0.979963 0.560111 0.819435 -0.262030
C31   C     C_R   0.917346 0.498046 0.722914 -0.039169
C32   C     C_R   0.951556 0.504365 0.609453 0.050629
Cu1   Cu    Cu3+1 0.509250 0.507730 0.615930 0.965241
Cu2   Cu    Cu3+1 0.490750 0.492270 0.384070 0.948413
H1    H     H_    0.098930 0.440752 0.317990 0.146103
H2    H     H_    0.364852 0.008588 0.690434 0.175138
H3    H     H_    0.587122 0.172990 0.307742 0.184287
H4    H     H_    0.365554 0.422819 0.789874 0.198535
H5    H     H_    0.313778 0.390769 0.193355 0.139641
H6    H     H_    0.639490 0.569678 0.209974 0.174896
H7    H     H_    0.214853 0.653067 0.688900 0.153147
H8    H     H_    0.948514 0.561373 0.905144 0.148006
H9    H     H_    0.389056 0.824042 0.676801 0.159722
H10   H     H_    0.614291 0.989106 0.292447 0.167108
N1    N     N_R   0.523180 0.519350 0.790130 -0.221218
N2    N     N_R   0.476820 0.480650 0.209890 -0.202241
O1    O     O_R   0.506570 0.354460 0.582000 -0.561339
O2    O     O_R   0.490940 0.341410 0.386200 -0.591325
O3    O     O_R   0.327470 0.506530 0.597920 -0.593394
O4    O     O_R   0.311840 0.493480 0.402120 -0.599773
O5    O     O_R   0.509060 0.658590 0.613800 -0.589124
O6    O     O_R   0.493430 0.645540 0.418000 -0.578993
O7    O     O_R   0.688160 0.506520 0.597880 -0.580776
O8    O     O_R   0.672530 0.493470 0.402080 -0.575276
O9    O     O_3   0.422618 0.187548 0.659563 -0.612666
C33   C     C_3   0.517877 0.198150 0.753276 0.077781
H11   H     H_    0.556504 0.278189 0.765172 0.211828
H12   H     H_    0.596222 0.144317 0.739582 0.137531
C34   C     C_3   0.464293 0.181328 0.866262 -0.387892
H13   H     H_    0.381284 0.228690 0.877445 0.272209
H14   H     H_    0.435501 0.099075 0.862340 0.208049
C35   C     C_3   0.559089 0.210230 0.971893 -0.855289
H15   H     H_    0.639733 0.158916 0.965010 0.259777
H16   H     H_    0.515729 0.201079 0.052622 0.250817
H17   H     H_    0.592215 0.291814 0.978282 0.271032
C36   C     C_1   0.689490 0.649079 0.802234 0.321748
N3    N     N_1   0.748566 0.705377 0.760255 -0.272366
O10   O     O_3   0.255329 0.377742 0.952833 -0.646267
C37   C     C_3   0.152253 0.355439 0.011913 0.042891
H18   H     H_    0.067808 0.361284 0.951777 0.180073
H19   H     H_    0.140010 0.413231 0.089930 0.114044
C38   C     C_3   0.156985 0.243926 0.038282 -0.364250
H20   H     H_    0.152881 0.189865 0.954856 0.230825
H21   H     H_    0.245405 0.231460 0.089755 0.212433
C39   C     C_3   0.049026 0.218389 0.105301 -0.862452
H22   H     H_    0.054760 0.268305 0.191402 0.251288
H23   H     H_    0.053002 0.136318 0.119628 0.258171
H24   H     H_    0.959319 0.229955 0.055270 0.269965
C40   C     C_1   0.743062 0.635560 0.042748 0.216058
N4    N     N_1   0.829379 0.679253 0.093986 -0.260735
O11   O     O_3   0.127235 0.700539 0.891960 -0.602849
C41   C     C_3   0.200747 0.659763 0.979740 0.052599
H25   H     H_    0.292000 0.638722 0.948069 0.155742
H26   H     H_    0.155894 0.590584 0.005947 0.140014
C42   C     C_3   0.220905 0.743160 0.086910 -0.337228
H27   H     H_    0.263434 0.813771 0.062307 0.228418
H28   H     H_    0.129800 0.763564 0.119412 0.241921
C43   C     C_3   0.304961 0.706958 0.184395 -0.855023
H29   H     H_    0.265762 0.635316 0.209413 0.259288
H30   H     H_    0.313484 0.768032 0.261952 0.257071
H31   H     H_    0.398766 0.692365 0.155827 0.259330
C44   C     C_1   0.838247 0.414916 0.745067 0.267908
N5    N     N_1   0.776284 0.347622 0.763511 -0.330138
C45   C     C_1   0.859896 0.407781 0.289325 0.257868
N6    N     N_1   0.804844 0.372419 0.202387 -0.303163
C46   C     C_1   0.623209 0.812201 0.361126 0.238086
N7    N     N_1   0.684363 0.770351 0.293675 -0.281830

loop_
_geom_bond_atom_site_label_1
_geom_bond_atom_site_label_2
_ccdc_geom_bond_type
C6    C32   A    
C21   C26   A    
C1    C8    S    
Cu1   N1    S    
O9    C33   S    
C12   O3    A    
C19   N2    A    
C42   H27   S    
C35   H15   S    
C10   H3    S    
C24   N1    A    
C28   C29   A    
C30   C31   A    
C20   H6    S    
C18   O10   S    
C28   H7    S    
C33   H11   S    
C2    C32   A    
C18   C19   A    
C37   H19   S    
C35   H16   S    
C3    C12   S    
O10   C37   S    
C31   C32   A    
C16   C17   A    
C9    H10   S    
C24   H4    S    
Cu2   N2    S    
C17   H2    S    
C9    C10   A    
C7    C15   A    
C36   N3    T    
C4    H1    S    
C34   H13   S    
C21   C22   A    
C37   H18   S    
C38   C39   S    
C5    C45   S    
C42   H28   S    
Cu1   O7    S    
C27   O8    A    
C34   H14   S    
C38   H21   S    
C15   C46   S    
C9    C14   A    
C1    O1    A    
C25   C26   A    
C41   H25   S    
O11   C41   S    
C37   C38   S    
C39   H22   S    
C29   O11   S    
C29   C30   A    
C23   O5    A    
C6    C27   S    
C43   H31   S    
C46   N7    T    
Cu1   Cu2   S    
C20   C21   A    
C39   H23   S    
C16   H9    S    
C19   H5    S    
C7    C16   A    
C43   H30   S    
Cu2   O8    S    
C41   H26   S    
Cu1   O1    S    
C22   C24   A    
Cu2   O2    S    
C3    C4    A    
C25   N1    A    
C11   O9    S    
C42   C43   S    
C34   C35   S    
C35   H17   S    
C18   C22   A    
C25   C36   S    
C38   H20   S    
Cu2   O4    S    
C12   O4    A    
C27   O7    A    
C1    O2    A    
Cu1   O5    S    
C41   C42   S    
Cu2   O6    S    
C26   C40   S    
C33   C34   S    
C13   C17   A    
C2    C3    A    
C11   C13   A    
C23   O6    A    
C5    C6    A    
C8    C11   A    
C7    C23   S    
C44   N5    T    
C33   H12   S    
C45   N6    T    
C39   H24   S    
C40   N4    T    
C4    C5    A    
C43   H29   S    
C8    C10   A    
C31   C44   S    
C14   C15   A    
C30   H8    S    
C2    C28   A    
C13   C14   A    
Cu1   O3    S    
C20   N2    A    
