data_mof_unit_17360.cif
_audit_creation_date              2013-03-05T16:41:04-0500
_audit_creation_method            fapswitch 2.2
_symmetry_space_group_name_H-M    P1
_symmetry_Int_Tables_number       1
_space_group_crystal_system       triclinic
_cell_length_a                    18.647243
_cell_length_b                    18.729895
_cell_length_c                    18.731431
_cell_angle_alpha                 109.490051
_cell_angle_beta                  109.303649
_cell_angle_gamma                 109.293556
_cell_volume                      5056.3255841

loop_
_atom_site_label
_atom_site_type_symbol
_atom_site_description
_atom_site_fract_x
_atom_site_fract_y
_atom_site_fract_z
_atom_type_partial_charge
O1    O     O_R   0.408360 0.551710 0.460090 -0.603627
O2    O     O_R   0.408400 0.448280 0.356670 -0.628293
C1    C     C_R   0.381537 0.501896 0.380099 0.864570
O3    O     O_R   0.591600 0.643340 0.551710 -0.607688
O4    O     O_R   0.591630 0.539900 0.448290 -0.624918
C2    C     C_R   0.621959 0.619988 0.501711 0.858281
Zn1   Zn    Zn3+2 0.499980 0.569060 0.569060 0.995026
Zn2   Zn    Zn3+2 0.500020 0.430940 0.430940 0.943057
O5    O     O_R   0.591600 0.551720 0.643330 -0.607893
O6    O     O_R   0.591640 0.448290 0.539910 -0.625734
O7    O     O_R   0.408370 0.460100 0.551710 -0.604415
O8    O     O_R   0.408400 0.356660 0.448290 -0.628246
C3    C     C_R   0.618217 0.497924 0.619954 0.863096
C4    C     C_R   0.378333 0.380038 0.498666 0.868980
H1    H     H_    0.801119 0.817362 0.896303 0.126317
C5    C     C_R   0.796431 0.868850 0.808828 -0.142798
H2    H     H_    0.805171 0.929669 0.853228 0.120359
C6    C     C_R   0.786478 0.853213 0.726837 -0.159693
H3    H     H_    0.787139 0.902350 0.708386 0.118344
C7    C     C_R   0.774495 0.774070 0.668533 0.131598
C8    C     C_R   0.773938 0.711588 0.694155 -0.121861
H4    H     H_    0.766298 0.650909 0.650820 0.100080
C9    C     C_R   0.782615 0.727071 0.775710 -0.118605
H5    H     H_    0.779509 0.677861 0.794151 0.131242
C10   C     C_R   0.794175 0.805635 0.833130 -0.114395
C11   C     C_R   0.825660 0.818126 0.576681 -0.268323
H6    H     H_    0.883066 0.873660 0.636583 0.148822
C12   C     C_R   0.813673 0.809864 0.496138 -0.081320
C13   C     C_R   0.737462 0.740611 0.417575 -0.006055
C14   C     C_R   0.677392 0.677263 0.422006 -0.265135
H7    H     H_    0.619083 0.622471 0.362349 0.152019
C15   C     C_R   0.689587 0.685564 0.502578 -0.080452
C16   C     C_R   0.762806 0.757831 0.581260 0.001329
C17   C     C_R   0.637387 0.725772 0.278964 -0.160960
H8    H     H_    0.591750 0.726976 0.302535 0.119718
C18   C     C_R   0.616899 0.717759 0.196809 -0.141723
H9    H     H_    0.556064 0.712866 0.157599 0.118771
C19   C     C_R   0.674990 0.716290 0.165345 -0.124427
H10   H     H_    0.658963 0.709892 0.101666 0.118056
C20   C     C_R   0.753904 0.723376 0.216244 -0.115931
H11   H     H_    0.799047 0.722522 0.192012 0.140693
C21   C     C_R   0.774773 0.731956 0.298622 -0.099980
H12   H     H_    0.836356 0.738633 0.337744 0.104232
C22   C     C_R   0.716808 0.733188 0.330789 0.131159
H13   H     H_    0.574033 0.895904 0.597839 0.127800
C23   C     C_R   0.435252 0.808124 0.515059 -0.148140
H14   H     H_    0.418050 0.851786 0.550892 0.121181
C24   C     C_R   0.369559 0.726432 0.442937 -0.156475
H15   H     H_    0.301739 0.707433 0.424021 0.119057
C25   C     C_R   0.391384 0.669145 0.396270 0.132712
C26   C     C_R   0.479805 0.695612 0.422050 -0.114799
H16   H     H_    0.497903 0.653078 0.386131 0.093106
C27   C     C_R   0.545241 0.776673 0.495215 -0.117035
H17   H     H_    0.613147 0.795471 0.516660 0.130836
C28   C     C_R   0.523104 0.833049 0.541459 -0.113754
C29   C     C_R   0.256108 0.577635 0.253543 -0.253022
H18   H     H_    0.259141 0.637535 0.256587 0.153338
C30   C     C_R   0.185923 0.497002 0.183719 -0.067537
C31   C     C_R   0.178644 0.418135 0.179750 -0.000589
C32   C     C_R   0.246190 0.422668 0.244536 -0.266089
H19   H     H_    0.243030 0.362866 0.241917 0.153801
C33   C     C_R   0.316515 0.503246 0.314109 -0.078387
C34   C     C_R   0.321168 0.582031 0.320670 -0.007506
C35   C     C_R   0.058935 0.272210 0.132535 -0.155984
H20   H     H_    0.078229 0.291691 0.200240 0.124315
C36   C     C_R   0.989672 0.188509 0.067618 -0.138876
H21   H     H_    0.956101 0.144080 0.085321 0.129285
C37   C     C_R   0.963993 0.162030 0.979945 -0.124639
H22   H     H_    0.910579 0.097167 0.929748 0.117973
C38   C     C_R   0.007382 0.219288 0.957089 -0.120652
H23   H     H_    0.987636 0.198562 0.889187 0.143060
C39   C     C_R   0.076346 0.303167 0.021859 -0.107610
H24   H     H_    0.109047 0.346961 0.003461 0.105099
C40   C     C_R   0.102845 0.330495 0.110149 0.128758
H25   H     H_    0.184683 0.585425 0.498847 0.126192
C41   C     C_R   0.207639 0.518114 0.569833 -0.142729
H26   H     H_    0.205224 0.559983 0.624093 0.123558
C42   C     C_R   0.222015 0.449524 0.570289 -0.150959
H27   H     H_    0.230764 0.438956 0.625296 0.117608
C43   C     C_R   0.225571 0.395180 0.500218 0.139494
C44   C     C_R   0.213439 0.409711 0.429287 -0.129916
H28   H     H_    0.214737 0.367670 0.374190 0.099270
C45   C     C_R   0.198596 0.478113 0.428901 -0.120534
H29   H     H_    0.188656 0.488845 0.373961 0.140374
C46   C     C_R   0.196047 0.532461 0.499240 -0.103989
C47   C     C_R   0.176875 0.255725 0.500115 -0.255553
H30   H     H_    0.120862 0.260203 0.501894 0.154651
C48   C     C_R   0.186249 0.184202 0.497890 -0.076255
C49   C     C_R   0.258419 0.176947 0.495966 -0.005796
C50   C     C_R   0.320302 0.242390 0.495463 -0.263265
H31   H     H_    0.376404 0.237891 0.493993 0.155989
C51   C     C_R   0.310919 0.313882 0.497488 -0.080990
C52   C     C_R   0.239048 0.321494 0.500106 -0.005551
C53   C     C_R   0.342094 0.113579 0.560676 -0.143541
H32   H     H_    0.388339 0.177622 0.617551 0.122491
C54   C     C_R   0.354591 0.042917 0.556234 -0.139460
H33   H     H_    0.410022 0.052452 0.609427 0.125173
C55   C     C_R   0.295927 0.960099 0.482911 -0.128724
H34   H     H_    0.305920 0.905536 0.479306 0.116397
C56   C     C_R   0.224636 0.947795 0.413968 -0.131584
H35   H     H_    0.180116 0.883818 0.356868 0.143628
C57   C     C_R   0.211272 0.018076 0.418527 -0.130899
H36   H     H_    0.156041 0.007883 0.364530 0.102532
C58   C     C_R   0.269988 0.101470 0.492056 0.136063
H37   H     H_    0.409519 0.495653 0.809664 0.123619
C59   C     C_R   0.547901 0.566861 0.857508 -0.139884
H38   H     H_    0.559621 0.621409 0.913257 0.119813
C60   C     C_R   0.617485 0.567220 0.844170 -0.150776
H39   H     H_    0.682828 0.622429 0.889930 0.116661
C61   C     C_R   0.602587 0.496786 0.771713 0.138352
C62   C     C_R   0.517451 0.425636 0.713438 -0.128872
H40   H     H_    0.505045 0.370333 0.657869 0.102790
C63   C     C_R   0.448146 0.425307 0.727382 -0.122582
H41   H     H_    0.382730 0.370159 0.682862 0.140311
C64   C     C_R   0.463285 0.495988 0.799117 -0.109947
C65   C     C_R   0.742436 0.496563 0.820684 -0.262733
H42   H     H_    0.738964 0.497612 0.877705 0.154355
C66   C     C_R   0.813105 0.495996 0.810370 -0.084596
C67   C     C_R   0.819417 0.495307 0.737368 -0.009295
C68   C     C_R   0.753294 0.494686 0.674953 -0.259108
H43   H     H_    0.757231 0.494505 0.618368 0.159325
C69   C     C_R   0.682768 0.495531 0.685382 -0.087090
C70   C     C_R   0.676705 0.496759 0.758680 -0.007491
C71   C     C_R   0.948439 0.564237 0.721386 -0.131082
H44   H     H_    0.938880 0.619958 0.731650 0.134752
C72   C     C_R   0.016509 0.562636 0.706062 -0.111961
H45   H     H_    0.059414 0.617072 0.704722 0.163756
C73   C     C_R   0.028797 0.490511 0.691889 -0.146891
H46   H     H_    0.081218 0.489070 0.679567 0.120777
C74   C     C_R   0.973080 0.419996 0.693116 -0.129541
H47   H     H_    0.982163 0.363855 0.681045 0.145320
C75   C     C_R   0.905444 0.421774 0.709331 -0.124376
H48   H     H_    0.862297 0.366609 0.709623 0.103285
C76   C     C_R   0.892838 0.494085 0.723653 0.124599
O9    O     O_R   0.051730 0.908360 0.460060 -0.611738
O10   O     O_R   0.948280 0.908380 0.356650 -0.625541
C77   C     C_R   0.998543 0.878003 0.380183 0.874296
O11   O     O_R   0.960110 0.908350 0.551690 -0.640706
O12   O     O_R   0.856660 0.908370 0.448270 -0.605837
C78   C     C_R   0.879794 0.877694 0.497716 0.861392
Zn3   Zn    Zn3+2 0.069070 0.999960 0.569030 0.936361
Zn4   Zn    Zn3+2 0.930930 0.999990 0.430930 0.969143
O13   O     O_R   0.051720 0.091580 0.643310 -0.630277
O14   O     O_R   0.948270 0.091600 0.539890 -0.609026
O15   O     O_R   0.143340 0.091590 0.551680 -0.613456
O16   O     O_R   0.039890 0.091610 0.448270 -0.625508
C79   C     C_R   0.998313 0.118631 0.619873 0.870639
C80   C     C_R   0.120189 0.118943 0.498862 0.874984
O17   O     O_R   0.051730 0.460050 0.908360 -0.617147
O18   O     O_R   0.948290 0.356630 0.908390 -0.622073
C81   C     C_R   0.002182 0.380201 0.881546 0.869500
O19   O     O_R   0.143340 0.551690 0.091580 -0.618365
O20   O     O_R   0.039900 0.448270 0.091610 -0.615509
C82   C     C_R   0.120009 0.498326 0.118609 0.865477
Zn5   Zn    Zn3+2 0.069070 0.569030 0.999960 0.968513
Zn6   Zn    Zn3+2 0.930930 0.430930 0.000000 0.955839
O21   O     O_R   0.051710 0.643320 0.091560 -0.612000
O22   O     O_R   0.948270 0.539900 0.091590 -0.625955
O23   O     O_R   0.960100 0.551680 0.908340 -0.609230
O24   O     O_R   0.856660 0.448270 0.908370 -0.626072
C83   C     C_R   0.998657 0.620015 0.118872 0.867744
C84   C     C_R   0.879857 0.498058 0.877993 0.866865
C85   C     C_R   0.091369 0.774827 0.551322 -0.274489
H49   H     H_    0.153418 0.814078 0.611401 0.124794
C86   C     C_R   0.087404 0.778027 0.476731 -0.154403
H50   H     H_    0.146043 0.820752 0.480546 0.149432
C87   C     C_R   0.007380 0.729027 0.398504 0.121430
C88   C     C_R   0.933289 0.670552 0.393640 -0.286816
H51   H     H_    0.872075 0.628916 0.332592 0.157399
C89   C     C_R   0.937065 0.667679 0.468378 -0.181721
H52   H     H_    0.878674 0.624589 0.464611 0.160390
C90   C     C_R   0.015077 0.722251 0.548409 0.561236
C91   C     C_R   0.997860 0.675737 0.254608 -0.251740
H53   H     H_    0.999229 0.619764 0.258864 0.158097
C92   C     C_R   0.996796 0.685681 0.183648 -0.079261
C93   C     C_R   0.997554 0.759099 0.177878 -0.004486
C94   C     C_R   0.996197 0.820230 0.243160 -0.284931
H54   H     H_    0.995286 0.876489 0.239276 0.157019
C95   C     C_R   0.998564 0.811067 0.314654 -0.090459
C96   C     C_R   0.001387 0.739378 0.322090 0.008103
C97   C     C_R   0.067989 0.853195 0.125619 -0.154248
H55   H     H_    0.117265 0.902150 0.192648 0.124018
C98   C     C_R   0.072401 0.868317 0.058571 -0.143280
H56   H     H_    0.124297 0.928613 0.073944 0.131249
C99   C     C_R   0.010334 0.805327 0.971724 -0.124852
H57   H     H_    0.014111 0.816675 0.919782 0.135552
C100  C     C_R   0.943426 0.727557 0.951928 -0.117576
H58   H     H_    0.896467 0.678499 0.884754 0.130861
C101  C     C_R   0.937761 0.712695 0.018722 -0.115069
H59   H     H_    0.884812 0.652594 0.002401 0.094333
C102  C     C_R   0.000975 0.774829 0.106167 0.131401
H60   H     H_    0.402216 0.590600 0.069049 0.116115
C103  C     C_R   0.283468 0.546125 0.954796 -0.156984
H61   H     H_    0.305981 0.607786 0.955746 0.117413
C104  C     C_R   0.200103 0.476187 0.889654 -0.088728
H62   H     H_    0.158908 0.484210 0.840086 0.131212
C105  C     C_R   0.169951 0.396461 0.888954 0.113448
C106  C     C_R   0.226311 0.386194 0.951162 -0.197461
H63   H     H_    0.205546 0.324092 0.949449 0.134379
C107  C     C_R   0.309482 0.456346 0.016432 -0.117808
H64   H     H_    0.352074 0.448543 0.065154 0.134664
C108  C     C_R   0.337847 0.536398 0.018530 -0.105084
C109  C     C_R   0.078021 0.254191 0.754958 -0.252151
H65   H     H_    0.138151 0.257844 0.757283 0.157616
C110  C     C_R   0.997146 0.183765 0.685835 -0.078382
C111  C     C_R   0.918061 0.178610 0.679926 -0.004685
C112  C     C_R   0.922409 0.244144 0.746534 -0.279709
H66   H     H_    0.862318 0.240656 0.744111 0.156951
C113  C     C_R   0.003270 0.314980 0.815385 -0.089572
C114  C     C_R   0.082282 0.321712 0.819211 -0.015287
C115  C     C_R   0.771089 0.126054 0.558409 -0.152841
H67   H     H_    0.788731 0.193004 0.575407 0.125394
C116  C     C_R   0.688862 0.058852 0.487985 -0.142240
H68   H     H_    0.643476 0.074039 0.451461 0.132215
C117  C     C_R   0.665514 0.972090 0.464287 -0.115833
H69   H     H_    0.602145 0.919974 0.409341 0.129465
C118  C     C_R   0.724077 0.952570 0.511480 -0.117008
H70   H     H_    0.706266 0.885499 0.492343 0.131140
C119  C     C_R   0.805889 0.019499 0.582732 -0.118913
H71   H     H_    0.850140 0.003328 0.619334 0.094275
C120  C     C_R   0.830621 0.106832 0.605892 0.130212
O25   O     O_3   0.015862 0.720096 0.621823 -0.636776
C121  C     C_3   0.040190 0.803794 0.684982 0.098984
H72   H     H_    0.004968 0.833315 0.655608 0.161911
H73   H     H_    0.111921 0.847889 0.717924 0.133312
C122  C     C_3   0.017157 0.796505 0.753793 -0.870120
H74   H     H_    0.054457 0.771464 0.787871 0.246963
H75   H     H_    0.033887 0.861640 0.802334 0.211331
H76   H     H_    0.946055 0.751610 0.722761 0.260616

loop_
_geom_bond_atom_site_label_1
_geom_bond_atom_site_label_2
_geom_bond_distance
_ccdc_geom_bond_type
C36   C37   1.397098 A    
C109  H65   1.085744 S    
C86   H50   1.083089 S    
C104  C105  1.404767 A    
C65   C70   1.384164 A    
C43   C44   1.404939 A    
Zn5   O21   2.014113 S    
C57   H36   1.082905 S    
Zn4   O16   2.016488 S    
C27   C28   1.396352 A    
C2    C15   1.431334 S    
C85   H49   1.081946 S    
C12   C78   1.432075 S    
C98   H56   1.082300 S    
C73   H46   1.082563 S    
C44   H28   1.082849 S    
C50   H31   1.085367 S    
C121  C122  1.519579 S    
C27   H17   1.078649 S    
C65   H42   1.085334 S    
Zn1   O7    2.018744 S    
C109  C110  1.394827 A    
C12   C13   1.411797 A    
C11   H6    1.085414 S    
C72   H45   1.082380 S    
C89   C90   1.400495 A    
C45   H29   1.081822 S    
O4    C2    1.278633 A    
C18   H9    1.081771 S    
C85   C86   1.397051 A    
C41   C42   1.398485 A    
C6    H3    1.083597 S    
C117  C118  1.396040 A    
C14   H7    1.085457 S    
C83   C92   1.430500 S    
O7    C4    1.277666 A    
C42   C43   1.404924 A    
C88   C89   1.398326 A    
C99   C100  1.395938 A    
C5    H2    1.082306 S    
C59   H38   1.082456 S    
C111  C120  1.483755 S    
C115  C120  1.406427 A    
H60   C108  1.081474 S    
C5    C10   1.396531 A    
C60   H39   1.083558 S    
C32   C33   1.394838 A    
C17   H8    1.083562 S    
C101  C102  1.404194 A    
O5    C3    1.277915 A    
C66   C67   1.406963 A    
C56   H35   1.081386 S    
O10   Zn4   2.013976 S    
C105  C114  1.481331 S    
C30   C82   1.431086 S    
O22   C83   1.278587 A    
O1    Zn1   2.018835 S    
C61   C62   1.404755 A    
Zn6   O22   2.018449 S    
H25   C46   1.082500 S    
C66   C84   1.431248 S    
C121  H72   1.115294 S    
C60   C61   1.404758 A    
C107  H64   1.082372 S    
C103  C104  1.398237 A    
C54   C55   1.397468 A    
C23   C28   1.396818 A    
C37   H22   1.082143 S    
C9    H5    1.078248 S    
C109  C114  1.381639 A    
C38   H23   1.081877 S    
C17   C18   1.398548 A    
Zn3   O15   2.016969 S    
C122  H75   1.110469 S    
C24   C25   1.406747 A    
C36   H21   1.082348 S    
C53   C58   1.404555 A    
C31   C32   1.384314 A    
C86   C87   1.402902 A    
C19   C20   1.396764 A    
O18   Zn6   2.014326 S    
C8    H4    1.082504 S    
C25   C34   1.484097 S    
C53   H32   1.083413 S    
C21   C22   1.403442 A    
O14   C79   1.276343 A    
C44   C45   1.399010 A    
C68   C69   1.396242 A    
C25   C26   1.404009 A    
O16   C80   1.278191 A    
C116  C117  1.396679 A    
C23   C24   1.398133 A    
O23   C84   1.278434 A    
C67   C76   1.479972 S    
C122  H74   1.110410 S    
C47   C48   1.396132 A    
Zn5   O23   2.016370 S    
C112  H66   1.085329 S    
C88   H51   1.082798 S    
Zn6   O24   2.016687 S    
C17   C22   1.406618 A    
C41   H26   1.082466 S    
C39   C40   1.403191 A    
C65   C66   1.396476 A    
C67   C68   1.384076 A    
C97   C98   1.398047 A    
C119  H71   1.082770 S    
C42   H27   1.083392 S    
C75   H48   1.082710 S    
C93   C102  1.484418 S    
C91   C96   1.382312 A    
C94   C95   1.394315 A    
C118  H70   1.077957 S    
C97   H55   1.083398 S    
O11   Zn3   2.016398 S    
C103  C108  1.397661 A    
C26   H16   1.082287 S    
C32   H19   1.085493 S    
C26   C27   1.397839 A    
Zn3   O13   2.014104 S    
C35   C36   1.398586 A    
C74   C75   1.399404 A    
C117  H69   1.082475 S    
C115  H67   1.083408 S    
C13   C14   1.385033 A    
C47   C52   1.384944 A    
C61   C70   1.480958 S    
C119  C120  1.404351 A    
C98   C99   1.396423 A    
C5    C6    1.397988 A    
C11   C16   1.383073 A    
C50   C51   1.396559 A    
C92   C93   1.410727 A    
C77   C95   1.432545 S    
O19   Zn5   2.016562 S    
C116  H68   1.082294 S    
Zn2   O8    2.014487 S    
C54   H33   1.082324 S    
C33   C34   1.409776 A    
C56   C57   1.399279 A    
C113  C114  1.411812 A    
C48   C80   1.430530 S    
C29   C34   1.384191 A    
C62   C63   1.399070 A    
C90   O25   1.384553 S    
C7    C8    1.403591 A    
O20   Zn6   2.016370 S    
C53   C54   1.398566 A    
C85   C90   1.408423 A    
C31   C40   1.487427 S    
C4    C51   1.431864 S    
C106  H63   1.083126 S    
C91   C92   1.397143 A    
O11   C78   1.279901 A    
C94   H54   1.085400 S    
C7    C16   1.483638 S    
C75   C76   1.403976 A    
C20   H11   1.082382 S    
C45   C46   1.397420 A    
O19   C82   1.280847 A    
O13   C79   1.278298 A    
C55   C56   1.397147 A    
C8    C9    1.397822 A    
C13   C22   1.486660 S    
O9    C77   1.274421 A    
Zn4   O14   2.018537 S    
O3    C2    1.276617 A    
C21   H12   1.076542 S    
C18   C19   1.397302 A    
C49   C50   1.383595 A    
O21   C83   1.276419 A    
C87   C88   1.402463 A    
O15   C80   1.276590 A    
C68   H43   1.085372 S    
C47   H30   1.085415 S    
C71   C72   1.398119 A    
C63   H41   1.081835 S    
C1    C33   1.431391 S    
C101  H59   1.082501 S    
C29   H18   1.085540 S    
C110  C111  1.409682 A    
C23   H14   1.082418 S    
C93   C94   1.382835 A    
C72   C73   1.397628 A    
C43   C52   1.481720 S    
C81   C113  1.432247 S    
C62   H40   1.082992 S    
C115  C116  1.398174 A    
C111  C112  1.383957 A    
H37   C64   1.082531 S    
Zn2   O6    2.018839 S    
O2    Zn2   2.014067 S    
O8    C4    1.277792 A    
C39   H24   1.077242 S    
O6    C3    1.277509 A    
C73   C74   1.397714 A    
O4    Zn2   2.018740 S    
C106  C107  1.397974 A    
O12   C78   1.276243 A    
C121  H73   1.111862 S    
C69   C70   1.407712 A    
C71   C76   1.403319 A    
C95   C96   1.411290 A    
C118  C119  1.397765 A    
C122  H76   1.109239 S    
C11   C12   1.395852 A    
C57   C58   1.404574 A    
C59   C64   1.397907 A    
C15   C16   1.409116 A    
O17   C81   1.273358 A    
O2    C1    1.278914 A    
C30   C31   1.411939 A    
C100  H58   1.078264 S    
C49   C58   1.480974 S    
C35   H20   1.083399 S    
C14   C15   1.395283 A    
C3    C69   1.431750 S    
C97   C102  1.406684 A    
C99   H57   1.081742 S    
C19   H10   1.082467 S    
C59   C60   1.398489 A    
C24   H15   1.083389 S    
C20   C21   1.398039 A    
C51   C52   1.408515 A    
O12   Zn4   2.016716 S    
C55   H34   1.082487 S    
C29   C30   1.395852 A    
C74   H47   1.081605 S    
C6    C7    1.406945 A    
C9    C10   1.396271 A    
O17   Zn5   2.018662 S    
C105  C106  1.404527 A    
O25   C121  1.414440 S    
C87   C96   1.480734 S    
C100  C101  1.398008 A    
H1    C10   1.082464 S    
C91   H53   1.085441 S    
C104  H62   1.082862 S    
Zn1   O5    2.014069 S    
O9    Zn3   2.018573 S    
C48   C49   1.407309 A    
H13   C28   1.082411 S    
O3    Zn1   2.014484 S    
C79   C110  1.429975 S    
C103  H61   1.082283 S    
C89   H52   1.082770 S    
C112  C113  1.395589 A    
C37   C38   1.396436 A    
C35   C40   1.407052 A    
O18   C81   1.283229 A    
O10   C77   1.281833 A    
C38   C39   1.398352 A    
O1    C1    1.276335 A    
O20   C82   1.274705 A    
C41   C46   1.397831 A    
C107  C108  1.397246 A    
O24   C84   1.276995 A    
C71   H44   1.081516 S    
C63   C64   1.397519 A    
