data_mof_unit_58362.cif
_audit_creation_date              2013-03-05T16:33:59-0500
_audit_creation_method            fapswitch 2.2
_symmetry_space_group_name_H-M    P1
_symmetry_Int_Tables_number       1
_space_group_crystal_system       triclinic
_cell_length_a                    18.761825
_cell_length_b                    18.761677
_cell_length_c                    18.904016
_cell_angle_alpha                 109.511859
_cell_angle_beta                  108.986136
_cell_angle_gamma                 109.022217
_cell_volume                      5178.07347773

loop_
_atom_site_label
_atom_site_type_symbol
_atom_site_description
_atom_site_fract_x
_atom_site_fract_y
_atom_site_fract_z
_atom_type_partial_charge
O1    O     O_R   0.410050 0.552190 0.462250 -0.569479
O2    O     O_R   0.410760 0.447830 0.358560 -0.545575
C1    C     C_R   0.384512 0.503221 0.382285 0.826794
O3    O     O_R   0.589820 0.642360 0.551840 -0.595978
O4    O     O_R   0.590530 0.538000 0.448150 -0.506481
C2    C     C_R   0.617283 0.618555 0.497853 0.820412
Cu1   Cu    Cu3+1 0.499580 0.561790 0.561390 1.024239
Cu2   Cu    Cu3+1 0.500420 0.438210 0.438610 1.137442
O5    O     O_R   0.589240 0.552170 0.641440 -0.600166
O6    O     O_R   0.589950 0.447810 0.537750 -0.543499
O7    O     O_R   0.409470 0.462000 0.551850 -0.594903
O8    O     O_R   0.410180 0.357640 0.448160 -0.572214
C3    C     C_R   0.618069 0.500006 0.617864 0.772863
C4    C     C_R   0.378712 0.381760 0.498294 0.788347
H1    H     H_    0.751336 0.835260 0.873291 0.197255
C5    C     C_R   0.738946 0.870249 0.774319 -0.172695
H2    H     H_    0.728167 0.922484 0.805675 0.195285
C6    C     C_R   0.737184 0.851036 0.694885 0.350178
C7    C     C_R   0.752483 0.782217 0.656372 -0.001683
C8    C     C_R   0.765771 0.733435 0.696634 -0.098937
H3    H     H_    0.775639 0.679773 0.667051 0.164703
C9    C     C_R   0.763901 0.751845 0.773708 -0.056613
H4    H     H_    0.771588 0.712531 0.803080 0.143196
C10   C     C_R   0.751803 0.820756 0.813054 -0.107385
C11   C     C_R   0.819852 0.816904 0.572083 -0.093509
H5    H     H_    0.873821 0.872544 0.632307 0.178509
C12   C     C_R   0.813892 0.810022 0.494614 -0.123640
C13   C     C_R   0.740587 0.741885 0.415512 -0.086690
C14   C     C_R   0.678682 0.673823 0.414817 0.360560
C15   C     C_R   0.683496 0.684212 0.494999 -0.185921
C16   C     C_R   0.752281 0.758885 0.573101 0.005878
C17   C     C_R   0.661385 0.764937 0.298194 -0.119723
H6    H     H_    0.621963 0.775026 0.327275 0.192624
C18   C     C_R   0.647425 0.770330 0.223304 -0.171151
H7    H     H_    0.596851 0.784199 0.195572 0.215201
C19   C     C_R   0.698419 0.758037 0.184883 0.364653
C20   C     C_R   0.764191 0.741305 0.223636 -0.161114
H8    H     H_    0.805458 0.733019 0.196489 0.189387
C21   C     C_R   0.778272 0.736505 0.298763 -0.078346
H9    H     H_    0.831636 0.727937 0.330069 0.160168
C22   C     C_R   0.725669 0.746008 0.335275 0.158133
H10   H     H_    0.555674 0.912676 0.562401 0.238987
C23   C     C_R   0.455501 0.794161 0.534188 -0.175482
H11   H     H_    0.459972 0.823534 0.596550 0.223007
C24   C     C_R   0.393337 0.707503 0.472795 0.344075
C25   C     C_R   0.389278 0.670607 0.391356 -0.162410
C26   C     C_R   0.444360 0.724383 0.371811 0.294754
C27   C     C_R   0.504268 0.811081 0.434768 -0.139146
H12   H     H_    0.546821 0.852892 0.421388 0.209013
C28   C     C_R   0.509744 0.845410 0.515021 -0.150372
C29   C     C_R   0.252624 0.576949 0.256305 -0.059649
H13   H     H_    0.253088 0.636152 0.260094 0.162123
C30   C     C_R   0.186251 0.497221 0.185751 -0.063185
C31   C     C_R   0.183702 0.419436 0.180356 0.081053
C32   C     C_R   0.251584 0.424540 0.244803 -0.103134
H14   H     H_    0.251470 0.365245 0.239921 0.177350
C33   C     C_R   0.318172 0.504505 0.316284 -0.035299
C34   C     C_R   0.318901 0.582110 0.322069 0.128872
C35   C     C_R   0.062406 0.267426 0.120609 0.280791
C36   C     C_R   0.005492 0.181648 0.049812 0.379648
C37   C     C_R   0.993524 0.165186 0.967755 -0.235506
H15   H     H_    0.948735 0.101071 0.912697 0.199951
C38   C     C_R   0.039039 0.230292 0.955140 -0.139169
H16   H     H_    0.027927 0.216048 0.891099 0.199573
C39   C     C_R   0.100164 0.312423 0.024601 -0.145003
H17   H     H_    0.137980 0.360804 0.013566 0.149436
C40   C     C_R   0.113075 0.332216 0.107685 -0.063084
H18   H     H_    0.186488 0.598186 0.578547 0.201671
C41   C     C_R   0.272224 0.550234 0.618694 -0.119450
H19   H     H_    0.317367 0.609670 0.679230 0.188321
C42   C     C_R   0.288092 0.480409 0.598899 -0.138904
H20   H     H_    0.344688 0.486624 0.646072 0.152230
C43   C     C_R   0.230235 0.402719 0.520629 0.019976
C44   C     C_R   0.154130 0.395561 0.464200 -0.153327
H21   H     H_    0.106803 0.334436 0.406121 0.235135
C45   C     C_R   0.137541 0.465743 0.483853 0.375049
C46   C     C_R   0.197753 0.543334 0.561436 -0.076402
C47   C     C_R   0.176197 0.255263 0.500172 -0.196676
H22   H     H_    0.121186 0.259938 0.503763 0.152855
C48   C     C_R   0.185020 0.183455 0.497297 -0.052225
C49   C     C_R   0.258503 0.178325 0.497694 0.041041
C50   C     C_R   0.319526 0.243870 0.496340 -0.208053
H23   H     H_    0.374895 0.239022 0.494066 0.161326
C51   C     C_R   0.311406 0.316405 0.499887 -0.061390
C52   C     C_R   0.240223 0.324189 0.505430 0.041929
C53   C     C_R   0.351213 0.122331 0.561717 -0.215586
H24   H     H_    0.399884 0.188490 0.610531 0.160466
C54   C     C_R   0.366022 0.053913 0.562356 0.462836
C55   C     C_R   0.303714 0.968634 0.498616 -0.188747
H25   H     H_    0.314754 0.915236 0.497681 0.185096
C56   C     C_R   0.226427 0.951793 0.435781 -0.122305
H26   H     H_    0.178455 0.885858 0.386952 0.188437
C57   C     C_R   0.210721 0.019618 0.436065 -0.016435
H27   H     H_    0.150121 0.005214 0.387045 0.143695
C58   C     C_R   0.273275 0.105567 0.498632 0.027861
C59   C     C_2   0.739725 0.452877 0.781811 -0.332779
C60   C     C_2   0.822091 0.478078 0.798612 0.239060
H28   H     H_    0.721022 0.444818 0.828489 0.160750
C61   C     C_2   0.672711 0.440214 0.704396 -0.068874
C62   C     C_2   0.686851 0.503795 0.684981 -0.181423
H29   H     H_    0.608899 0.383970 0.669918 0.142473
H30   H     H_    0.746909 0.564674 0.726679 0.162917
O9    O     O_R   0.052450 0.909800 0.462220 -0.593427
O10   O     O_R   0.948740 0.909840 0.358530 -0.587166
C63   C     C_R   0.998434 0.878062 0.382433 0.752130
O11   O     O_R   0.961680 0.909780 0.551820 -0.586957
O12   O     O_R   0.857970 0.909820 0.448140 -0.561175
C64   C     C_R   0.881328 0.879636 0.498300 0.837138
Cu3   Cu    Cu3+1 0.061410 0.999960 0.561370 1.062905
Cu4   Cu    Cu3+1 0.938590 0.000000 0.438590 1.059935
O13   O     O_R   0.051260 0.090120 0.641420 -0.558222
O14   O     O_R   0.947550 0.090150 0.537740 -0.549438
O15   O     O_R   0.142030 0.090140 0.551820 -0.575852
O16   O     O_R   0.038320 0.090170 0.448130 -0.573343
C65   C     C_R   0.000396 0.119867 0.617796 0.848220
C66   C     C_R   0.118657 0.117741 0.498867 0.757038
O17   O     O_R   0.056040 0.462030 0.913600 -0.576474
O18   O     O_R   0.951650 0.357670 0.913630 -0.603037
C67   C     C_R   0.002106 0.381234 0.883070 0.806271
O19   O     O_R   0.145040 0.552210 0.092780 -0.573206
O20   O     O_R   0.040660 0.447850 0.092810 -0.545376
C68   C     C_R   0.120774 0.498316 0.119778 0.791400
Cu5   Cu    Cu3+1 0.065060 0.561820 0.003180 1.065738
Cu6   Cu    Cu3+1 0.941450 0.438250 0.003210 1.041432
O21   O     O_R   0.054850 0.642400 0.092760 -0.559114
O22   O     O_R   0.950470 0.538040 0.092790 -0.533790
O23   O     O_R   0.965850 0.552220 0.913580 -0.561759
O24   O     O_R   0.861470 0.447860 0.913610 -0.609303
C69   C     C_R   0.003708 0.618509 0.122294 0.828900
C70   C     C_R   0.885751 0.495397 0.880630 0.729968
H31   H     H_    0.062337 0.721360 0.617439 0.210287
C71   C     C_R   0.117306 0.787305 0.558791 0.389530
C72   C     C_R   0.102687 0.790895 0.483088 -0.141378
H32   H     H_    0.154553 0.837497 0.482840 0.170362
C73   C     C_R   0.022072 0.735301 0.407977 -0.063168
C74   C     C_R   0.957112 0.669637 0.407899 0.418598
C75   C     C_R   0.972730 0.666912 0.484565 -0.176593
H33   H     H_    0.923807 0.617745 0.485909 0.216077
C76   C     C_R   0.051785 0.725528 0.559491 -0.250816
C77   C     C_R   0.017609 0.682294 0.266480 0.352032
C78   C     C_R   0.004580 0.685060 0.189990 -0.156952
C79   C     C_R   0.996043 0.753462 0.180003 0.045755
C80   C     C_R   0.992184 0.814116 0.243212 -0.181655
H34   H     H_    0.985517 0.866666 0.235310 0.182369
C81   C     C_R   0.999189 0.809249 0.317311 -0.166934
C82   C     C_R   0.012086 0.742629 0.329600 -0.015137
C83   C     C_R   0.066661 0.820520 0.107681 0.436316
C84   C     C_R   0.059793 0.827340 0.034549 -0.226317
H35   H     H_    0.116023 0.872063 0.037606 0.234016
C85   C     C_R   0.982213 0.775204 0.956715 0.349709
C86   C     C_R   0.910020 0.716044 0.952817 -0.201986
H36   H     H_    0.849743 0.673666 0.893149 0.157855
C87   C     C_R   0.914919 0.711179 0.026307 -0.249419
H37   H     H_    0.858261 0.665532 0.022016 0.182558
C88   C     C_R   0.992669 0.763436 0.104442 -0.013241
H38   H     H_    0.372924 0.322912 0.736813 0.157452
C89   C     C_R   0.286759 0.259031 0.774673 -0.148005
H39   H     H_    0.325203 0.230990 0.796941 0.195476
C90   C     C_R   0.211333 0.244283 0.781351 0.387292
C91   C     C_R   0.161452 0.280826 0.749996 -0.016296
C92   C     C_R   0.190838 0.334075 0.717083 -0.215254
H40   H     H_    0.154077 0.362955 0.693425 0.167432
C93   C     C_R   0.267246 0.349842 0.713625 -0.126430
H41   H     H_    0.289577 0.391204 0.688826 0.145111
C94   C     C_R   0.314423 0.311466 0.741035 -0.158727
C95   C     C_R   0.075573 0.327721 0.810121 -0.175881
H42   H     H_    0.135118 0.387526 0.858563 0.172564
C96   C     C_R   0.998739 0.314099 0.812489 -0.123573
C97   C     C_R   0.921213 0.235291 0.750428 -0.108242
C98   C     C_R   0.921734 0.171528 0.685648 0.289485
C99   C     C_R   0.999954 0.186091 0.684728 -0.168001
C100  C     C_R   0.077684 0.263428 0.748594 0.023039
C101  C     C_R   0.820806 0.166110 0.796108 -0.027627
H43   H     H_    0.858759 0.136280 0.814380 0.136465
C102  C     C_R   0.752584 0.156739 0.813687 -0.095463
H44   H     H_    0.737783 0.119455 0.844939 0.168109
C103  C     C_R   0.704243 0.196413 0.791947 -0.020325
H45   H     H_    0.652590 0.190292 0.807171 0.205434
C104  C     C_R   0.722800 0.243981 0.750901 -0.055427
H46   H     H_    0.684501 0.273751 0.733240 0.168741
C105  C     C_R   0.791607 0.254154 0.733926 -0.083507
H47   H     H_    0.807091 0.292872 0.704206 0.195132
C106  C     C_R   0.841618 0.216081 0.757522 0.145668
N1    N     N_R   0.684272 0.763549 0.107786 0.132845
O25   O     O_R   0.732276 0.753382 0.072966 -0.361415
O26   O     O_R   0.623256 0.778787 0.071641 -0.315891
N2    N     N_R   0.333333 0.660241 0.493624 0.147242
O27   O     O_R   0.254948 0.600065 0.434467 -0.293736
O28   O     O_R   0.353886 0.684592 0.573703 -0.356294
N3    N     N_R   0.436987 0.694601 0.287400 0.117880
O29   O     O_R   0.409339 0.613492 0.236747 -0.333470
O30   O     O_R   0.459457 0.749653 0.260912 -0.363852
S1    S     S_3+6 0.068330 0.295227 0.223023 0.056936
O31   O     O_2   0.132594 0.275735 0.273032 -0.265832
O32   O     O_2   0.097088 0.389915 0.272668 -0.245178
O33   O     O_3   0.972158 0.238623 0.213329 -0.410687
H48   H     H_    0.934651 0.258678 0.185254 0.380008
S2    S     S_3+6 0.949246 0.091476 0.058864 0.060223
O34   O     O_2   0.866495 0.087737 0.054172 -0.263595
O35   O     O_2   0.927933 0.009227 0.985876 -0.292049
O36   O     O_3   0.009211 0.098853 0.151915 -0.424467
H49   H     H_    0.971456 0.048061 0.152460 0.382978
N4    N     N_R   0.058956 0.457606 0.426731 0.172855
O37   O     O_R   0.050257 0.525817 0.436792 -0.277142
O38   O     O_R   0.994326 0.381731 0.365949 -0.266425
N5    N     N_R   0.717252 0.899924 0.654047 0.134182
O39   O     O_R   0.717359 0.970476 0.696953 -0.377395
O40   O     O_R   0.689721 0.870312 0.572150 -0.342058
S3    S     S_3+6 0.463144 0.075097 0.641822 0.009033
O41   O     O_2   0.497825 0.157770 0.722044 -0.290765
O42   O     O_2   0.448703 0.002083 0.661728 -0.232865
O43   O     O_3   0.534954 0.085762 0.605947 -0.523682
H50   H     H_    0.508023 0.029547 0.553366 0.346803
S4    S     S_3+6 0.852785 0.470770 0.717675 0.032468
O44   O     O_2   0.779612 0.396575 0.631530 -0.226400
O45   O     O_2   0.876195 0.552821 0.712770 -0.244031
O46   O     O_3   0.938241 0.453748 0.740093 -0.531861
H51   H     H_    0.989706 0.512031 0.773127 0.376612
S5    S     S_3+6 0.218669 0.859189 0.651832 0.070234
O47   O     O_2   0.279373 0.824203 0.646351 -0.186540
O48   O     O_2   0.254287 0.946609 0.657865 -0.263981
O49   O     O_3   0.210351 0.868966 0.740130 -0.462613
H52   H     H_    0.172904 0.895741 0.741978 0.363847
S6    S     S_3+6 0.858016 0.585496 0.314968 0.041437
O50   O     O_2   0.859374 0.501439 0.293461 -0.153604
O51   O     O_2   0.786259 0.580019 0.335641 -0.271101
O52   O     O_3   0.838898 0.600271 0.229097 -0.576214
H53   H     H_    0.779504 0.553310 0.184573 0.396221
N6    N     N_R   0.044017 0.623278 0.283562 0.116360
O53   O     O_R   0.121404 0.653067 0.344063 -0.321136
O54   O     O_R   0.989640 0.540877 0.243131 -0.230057
S7    S     S_3+6 0.169738 0.882758 0.199891 0.005273
O55   O     O_2   0.176329 0.965293 0.257043 -0.309477
O56   O     O_2   0.183415 0.833892 0.247141 -0.313573
O57   O     O_3   0.246687 0.907158 0.171273 -0.498058
H54   H     H_    0.301768 0.944883 0.226215 0.392812
N7    N     N_R   0.977821 0.781666 0.881939 0.145233
O58   O     O_R   0.037024 0.848282 0.889243 -0.301210
O59   O     O_R   0.916803 0.719313 0.805617 -0.358221
N8    N     N_R   0.186620 0.192042 0.819086 0.136723
O60   O     O_R   0.146599 0.206951 0.862128 -0.369067
O61   O     O_R   0.211483 0.134661 0.817777 -0.307879
N9    N     N_R   0.843910 0.090329 0.623597 0.141940
O62   O     O_R   0.772643 0.088691 0.581021 -0.298252
O63   O     O_R   0.843462 0.017766 0.611714 -0.341155
S8    S     S_3+6 0.597141 0.576196 0.314906 0.075698
O64   O     O_2   0.614545 0.503265 0.313990 -0.165967
O65   O     O_2   0.510420 0.554769 0.309315 -0.302767
O66   O     O_3   0.592880 0.580094 0.226016 -0.492981
H55   H     H_    0.537766 0.579006 0.196891 0.389287

loop_
_geom_bond_atom_site_label_1
_geom_bond_atom_site_label_2
_geom_bond_distance
_ccdc_geom_bond_type
C11   C16   1.386646 A    
N4    O37   1.301664 A    
C38   C39   1.389386 A    
C95   C100  1.390442 A    
C89   H39   1.082582 S    
C48   C49   1.410791 A    
C97   C98   1.402733 A    
C31   C32   1.395863 A    
C41   C46   1.394635 A    
C7    C8    1.403458 A    
C4    C51   1.462560 S    
C32   H14   1.084370 S    
C7    C16   1.484691 S    
S6    O50   1.502556 D    
C49   C50   1.395000 A    
C45   N4    1.438873 S    
Cu5   Cu6   2.692618 S    
C21   C22   1.399280 A    
Cu2   O6    1.973652 S    
C101  H43   1.080956 S    
C35   S1    1.783321 S    
C71   C76   1.395266 A    
Cu1   O7    1.977050 S    
N4    O38   1.301016 A    
O66   H55   0.990495 S    
C57   H27   1.082270 S    
C44   C45   1.408646 A    
C12   C64   1.454691 S    
C13   C14   1.411316 A    
C93   C94   1.391609 A    
C84   C85   1.399030 A    
C60   C70   1.463424 S    
C6    C7    1.424490 A    
C30   C68   1.449705 S    
O17   C67   1.300215 A    
C90   C91   1.423379 A    
C15   C16   1.417031 A    
C49   C58   1.483288 S    
O7    C4    1.288314 A    
N5    O40   1.300131 A    
C80   H34   1.084733 S    
Cu5   O21   1.969677 S    
C69   C78   1.450052 S    
C98   C99   1.409634 A    
N9    O62   1.301170 A    
C59   C61   1.467911 S    
C80   C81   1.400443 A    
C13   C22   1.483658 S    
S3    O43   1.680637 S    
N1    O25   1.301798 A    
C37   C38   1.387542 A    
C18   H7    1.082242 S    
O36   H49   0.990580 S    
C41   C42   1.394306 A    
O5    C3    1.288239 A    
O18   C67   1.295752 A    
C97   C106  1.479767 S    
O20   Cu6   1.972887 S    
C83   C84   1.399014 A    
C35   C40   1.427328 A    
C25   C26   1.428364 A    
H1    C10   1.082525 S    
C79   C80   1.389119 A    
C48   C66   1.455681 S    
C5    H2    1.082519 S    
C103  C104  1.398425 A    
C59   H28   1.086572 S    
O57   H54   0.990642 S    
S2    O34   1.502825 D    
C19   N1    1.439499 S    
O13   C65   1.287622 A    
C79   C88   1.485534 S    
C55   C56   1.394019 A    
C14   C15   1.430294 A    
C83   C88   1.417622 A    
Cu4   O16   1.977058 S    
S1    O31   1.502633 D    
O19   Cu5   1.969706 S    
C36   S2    1.775415 S    
Cu6   O24   1.969706 S    
O15   C66   1.292741 A    
C73   C82   1.490462 S    
C27   C28   1.389137 A    
O9    Cu3   1.973430 S    
C104  C105  1.398488 A    
C86   H36   1.080824 S    
C77   N6    1.438088 S    
C5    C10   1.393522 A    
N7    O58   1.301879 A    
C25   C34   1.486146 S    
C95   C96   1.398150 A    
C41   H19   1.082425 S    
O3    Cu1   1.974068 S    
C67   C96   1.463353 S    
S7    O56   1.501801 D    
O10   C63   1.302723 A    
C92   C93   1.394395 A    
N6    O53   1.300790 A    
O19   C68   1.298460 A    
C81   C82   1.424539 A    
C105  C106  1.402530 A    
C43   C44   1.408183 A    
C77   C78   1.407719 A    
C20   C21   1.397010 A    
S8    O65   1.501133 D    
N2    O28   1.300914 A    
C44   H21   1.081585 S    
C53   C54   1.402045 A    
C29   H13   1.085866 S    
C26   C27   1.403640 A    
C98   N9    1.438944 S    
C73   C74   1.421970 A    
C51   C52   1.422644 A    
C102  C103  1.395512 A    
Cu1   Cu2   2.686258 S    
S4    O45   1.500795 D    
C77   C82   1.403776 A    
C56   H26   1.078543 S    
C42   C43   1.405355 A    
N5    O39   1.300006 A    
C24   N2    1.442089 S    
Cu3   O13   1.968539 S    
C31   C40   1.490381 S    
O22   C69   1.296180 A    
S1    O32   1.503269 D    
C11   H5    1.085413 S    
C105  H47   1.081189 S    
S4    O46   1.683538 S    
S7    O57   1.682074 S    
C104  H46   1.081570 S    
O24   C70   1.297314 A    
C36   C37   1.400056 A    
O1    C1    1.293356 A    
C17   C18   1.398150 A    
C89   C90   1.406916 A    
C23   H11   1.082628 S    
N3    O29   1.300214 A    
C20   H8    1.081993 S    
O21   C69   1.291777 A    
C56   C57   1.395367 A    
C72   H32   1.078198 S    
C75   C76   1.394543 A    
C83   S7    1.765450 S    
Cu5   O23   1.972888 S    
O52   H53   0.990344 S    
C74   S6    1.773107 S    
C90   N8    1.438917 S    
S1    O33   1.680141 S    
C63   C81   1.464283 S    
C59   C60   1.347778 D    
C8    H3    1.083245 S    
S2    O36   1.681458 S    
N8    O61   1.301641 A    
S3    O41   1.502597 D    
C91   C100  1.486616 S    
C47   C48   1.395605 A    
O9    C63   1.291766 A    
C29   C34   1.391543 A    
O18   Cu6   1.969562 S    
C45   C46   1.403589 A    
C23   C24   1.404727 A    
C99   C100  1.412269 A    
C43   C52   1.490194 S    
O20   C68   1.291081 A    
C101  C102  1.395971 A    
H10   C28   1.082259 S    
C1    C33   1.461376 S    
C47   C52   1.396066 A    
O3    C2    1.301621 A    
C96   C97   1.416761 A    
C61   H29   1.086726 S    
C8    C9    1.395841 A    
C39   H17   1.083426 S    
C50   C51   1.400188 A    
C54   S3    1.755841 S    
C32   C33   1.401091 A    
C95   H42   1.084646 S    
O12   Cu4   1.973978 S    
C9    C10   1.391062 A    
C65   C99   1.451957 S    
C87   C88   1.403277 A    
O12   C64   1.289180 A    
C89   C94   1.393314 A    
S6    O52   1.681423 S    
S5    O47   1.502450 D    
C53   H24   1.083426 S    
Cu6   O22   1.972474 S    
C62   H30   1.085023 S    
H18   C46   1.082727 S    
Cu1   O5    1.968835 S    
S8    O64   1.502755 D    
C19   C20   1.405690 A    
N3    O30   1.301634 A    
C2    C15   1.467671 S    
O1    Cu1   1.973652 S    
C17   C22   1.402702 A    
C5    C6    1.408629 A    
O2    Cu2   1.968834 S    
O8    C4    1.305113 A    
O33   H48   0.990673 S    
O6    C3    1.297527 A    
S6    O51   1.501592 D    
O4    Cu2   1.977051 S    
O16   C66   1.295770 A    
N8    O60   1.298666 A    
C23   C28   1.387906 A    
C30   C31   1.412218 A    
Cu3   O15   1.973975 S    
C11   C12   1.389814 A    
C75   H33   1.083047 S    
C39   C40   1.402717 A    
C61   C62   1.333261 D    
C6    N5    1.444261 S    
C60   S4    1.782168 S    
C71   S5    1.759590 S    
C17   H6    1.082330 S    
C26   N3    1.445008 S    
N7    O59   1.298275 A    
O2    C1    1.299868 A    
O46   H51   0.990583 S    
O23   C70   1.298430 A    
N2    O27   1.300845 A    
N6    O54   1.300082 A    
C102  H44   1.082427 S    
C92   H40   1.083528 S    
C78   C79   1.408691 A    
C91   C92   1.403049 A    
S5    O49   1.681612 S    
O10   Cu4   1.968637 S    
C47   H22   1.085421 S    
C33   C34   1.418367 A    
O4    C2    1.291886 A    
O11   C64   1.298348 A    
H38   C94   1.082584 S    
C3    C62   1.447339 S    
C14   S8    1.801378 S    
C27   H12   1.082789 S    
S4    O44   1.503222 D    
S7    O55   1.500347 D    
S3    O42   1.503412 D    
N1    O26   1.301528 A    
C71   C72   1.396002 A    
C18   C19   1.407165 A    
S5    O48   1.503534 D    
C86   C87   1.397823 A    
O17   Cu5   1.972475 S    
C37   H15   1.082616 S    
O49   H52   0.990715 S    
Cu4   O14   1.973331 S    
C85   N7    1.436950 S    
C93   H41   1.075363 S    
H31   C76   1.082367 S    
C53   C58   1.405088 A    
C103  H45   1.079900 S    
C38   H16   1.078820 S    
C21   H9    1.077684 S    
C24   C25   1.425681 A    
C35   C36   1.425657 A    
C42   H20   1.081675 S    
C54   C55   1.398133 A    
C101  C106  1.402497 A    
C57   C58   1.402027 A    
C50   H23   1.085034 S    
C12   C13   1.414419 A    
C72   C73   1.405904 A    
C9    H4    1.078884 S    
C74   C75   1.404231 A    
S2    O35   1.503779 D    
N9    O63   1.300374 A    
C29   C30   1.392638 A    
C55   H25   1.082913 S    
Cu3   Cu4   2.686880 S    
C84   H35   1.082263 S    
O11   Cu3   1.977060 S    
O14   C65   1.297643 A    
Cu2   O8    1.974067 S    
O43   H50   0.990553 S    
C85   C86   1.404435 A    
C87   H37   1.083527 S    
S8    O66   1.683424 S    
