data_mof_unit_61250.cif
_audit_creation_date              2012-12-10T18:33:22-0500
_audit_creation_method            fapswitch 2.2
_symmetry_space_group_name_H-M    P1
_symmetry_Int_Tables_number       1
_space_group_crystal_system       triclinic
_cell_length_a                    21.707153
_cell_length_b                    21.714291
_cell_length_c                    24.715452
_cell_angle_alpha                 115.761366
_cell_angle_beta                  116.044125
_cell_angle_gamma                 90.099101
_cell_volume                      9155.72357666

loop_
_atom_site_label
_atom_site_type_symbol
_atom_type_description
_atom_site_fract_x
_atom_site_fract_y
_atom_site_fract_z
_atom_type_partial_charge
C1    C     C_R   0.066641 0.566111 0.632571 0.784518
C2    C     C_R   0.409710 0.237205 0.597086 -0.126395
C3    C     C_R   0.436608 0.696225 0.453250 -0.007135
C4    C     C_R   0.689282 0.857410 0.601670 -0.175310
C5    C     C_R   0.037042 0.344337 0.261284 -0.122422
C6    C     C_R   0.750795 0.909910 0.654983 0.044011
C7    C     C_R   0.748668 0.966245 0.710100 -0.145919
C8    C     C_R   0.685253 0.970121 0.711790 -0.141887
C9    C     C_R   0.623522 0.918579 0.657987 -0.151168
C10   C     C_R   0.625242 0.861824 0.602675 0.108076
C11   C     C_R   0.509802 0.227903 0.288383 -0.124830
C12   C     C_R   0.492169 0.221958 0.334241 -0.139691
C13   C     C_R   0.399613 0.235614 0.648635 -0.136121
C14   C     C_R   0.535770 0.264395 0.405555 0.122449
C15   C     C_R   0.597770 0.311926 0.430356 -0.129127
C16   C     C_R   0.615469 0.317317 0.384298 -0.130790
C17   C     C_1   0.216625 0.563347 0.849602 0.245011
C18   C     C_2   0.483877 0.495592 0.251817 0.812969
C19   C     C_1   0.504051 0.653230 0.322135 0.293195
C20   C     C_1   0.865816 0.436063 0.149939 0.248603
C21   C     C_1   0.816253 0.905460 0.653533 0.205724
C22   C     C_R   0.456458 0.236793 0.705742 -0.100650
C23   C     C_R   0.254270 0.450848 0.443711 -0.223579
C24   C     C_R   0.523417 0.239386 0.711283 -0.118861
C25   C     C_R   0.533491 0.239701 0.659275 -0.149164
C26   C     C_R   0.476660 0.238845 0.601993 0.117241
C27   C     C_R   0.313537 0.504855 0.499798 -0.081140
C28   C     C_R   0.307331 0.558876 0.554662 0.008206
C29   C     C_R   0.242366 0.555084 0.553101 -0.240195
C30   C     C_R   0.012693 0.285282 0.262100 -0.098112
C31   C     C_R   0.184370 0.499702 0.498211 -0.062327
C32   C     C_R   0.189624 0.447735 0.442432 -0.008664
C33   C     C_R   0.386097 0.639815 0.681057 -0.146224
C34   C     C_R   0.440486 0.699135 0.735474 -0.131155
C35   C     C_R   0.474884 0.740564 0.722011 -0.120309
C36   C     C_R   0.118100 0.499518 0.498879 0.804847
C37   C     C_R   0.454858 0.722849 0.654103 -0.117366
C38   C     C_R   0.400457 0.663682 0.599629 -0.097332
C39   C     C_R   0.365905 0.621251 0.612538 0.122089
C40   C     C_R   0.104088 0.673149 0.745985 -0.186968
C41   C     C_R   0.571345 0.275620 0.313395 -0.097060
C42   C     C_R   0.139815 0.707543 0.817851 -0.165777
C43   C     C_R   0.178743 0.673294 0.853821 0.011844
C44   C     C_R   0.180420 0.602817 0.816101 -0.009990
C45   C     C_R   0.143864 0.568529 0.744049 -0.242418
C46   C     C_R   0.105552 0.603288 0.708502 -0.050071
C47   C     C_R   0.286087 0.783889 0.069858 0.405816
C48   C     C_R   0.933876 0.433861 0.367408 0.799448
C49   C     C_R   0.216602 0.712093 0.929997 0.403472
C50   C     C_R   0.288055 0.855647 0.182294 -0.152916
C51   C     C_R   0.323612 0.891332 0.254238 -0.183004
C52   C     C_R   0.516178 0.194460 0.455547 -0.235013
C53   C     C_R   0.395794 0.895263 0.291337 -0.033392
C54   C     C_R   0.431594 0.862387 0.255109 -0.166185
C55   C     C_R   0.395874 0.825984 0.183231 -0.144536
C56   C     C_R   0.323769 0.822402 0.146019 0.053949
C57   C     C_R   0.889181 0.365659 0.621584 -0.135275
C58   C     C_R   0.840026 0.386579 0.577201 -0.144332
C59   C     C_R   0.854422 0.455291 0.588060 0.126597
C60   C     C_R   0.881675 0.500602 0.501221 0.791713
C61   C     C_R   0.918082 0.503032 0.644392 -0.113414
C62   C     C_R   0.966745 0.482068 0.689023 -0.116511
C63   C     C_R   0.501498 0.186663 0.502264 -0.070238
C64   C     C_R   0.952489 0.413371 0.677454 -0.110931
C65   C     C_R   0.736552 0.478720 0.540487 -0.254513
C66   C     C_R   0.685753 0.502385 0.500320 -0.073261
C67   C     C_R   0.699949 0.527651 0.462324 0.007008
C68   C     C_R   0.764994 0.527387 0.464190 -0.223132
C69   C     C_R   0.815424 0.501818 0.502938 -0.085134
C70   C     C_R   0.801516 0.477969 0.542223 0.002561
C71   C     C_R   0.593878 0.515635 0.357591 -0.154015
C72   C     C_R   0.045650 0.279525 0.322066 -0.138110
C73   C     C_R   0.543584 0.544366 0.321964 -0.022304
C74   C     C_R   0.488040 0.243089 0.548912 -0.001112
C75   C     C_R   0.551711 0.618514 0.354666 -0.024360
C76   C     C_R   0.608331 0.661112 0.420973 -0.190702
C77   C     C_R   0.656696 0.631565 0.455764 -0.174456
C78   C     C_R   0.649651 0.558764 0.424321 0.074100
C79   C     C_R   0.898145 0.431488 0.255661 -0.220841
C80   C     C_R   0.863585 0.396568 0.183598 -0.014401
C81   C     C_R   0.825858 0.325346 0.146044 0.010223
C82   C     C_R   0.823847 0.290996 0.182280 -0.184809
C83   C     C_R   0.859231 0.325982 0.254150 -0.183373
C84   C     C_R   0.103331 0.332597 0.381204 -0.100873
C85   C     C_R   0.488910 0.306465 0.547460 -0.229133
C86   C     C_R   0.896557 0.396538 0.291443 -0.024586
C87   C     C_R   0.717333 0.214111 0.929879 0.405534
C88   C     C_R   0.787851 0.286005 0.069802 0.404473
C89   C     C_R   0.711183 0.178500 0.816347 -0.175285
C90   C     C_R   0.674679 0.142675 0.744486 -0.206146
C91   C     C_R   0.604556 0.104000 0.708420 -0.031397
C92   C     C_R   0.571631 0.101530 0.745492 -0.212966
C93   C     C_R   0.608370 0.136848 0.817432 -0.178290
C94   C     C_R   0.678523 0.175877 0.853664 0.051053
C95   C     C_R   0.498426 0.618827 0.499677 0.798507
C96   C     C_R   0.503009 0.314206 0.500396 -0.076443
C97   C     C_R   0.127855 0.392074 0.380702 0.085207
C98   C     C_R   0.380867 0.502150 0.500010 0.791443
C99   C     C_R   0.501357 0.381062 0.500085 0.793717
C100  C     C_R   0.618895 0.501328 0.500037 0.806337
C101  C     C_R   0.500595 0.119200 0.501153 0.795033
C102  C     C_R   0.433685 0.933468 0.367374 0.786203
C103  C     C_R   0.500615 0.881717 0.501309 0.803306
C104  C     C_R   0.566315 0.066100 0.632546 0.790791
C105  C     C_R   0.294848 0.533999 0.300156 -0.115798
C106  C     C_R   0.358074 0.585891 0.343508 -0.057310
C107  C     C_R   0.517206 0.257895 0.454075 0.003170
C108  C     C_R   0.368893 0.642409 0.405802 0.085187
C109  C     C_R   0.094493 0.397654 0.320394 -0.171268
C110  C     C_R   0.314465 0.648001 0.422605 -0.183273
C111  C     C_R   0.251435 0.595828 0.379348 -0.122210
C112  C     C_R   0.241756 0.538690 0.318305 -0.111482
C113  C     C_R   0.438888 0.761559 0.455796 -0.211272
C114  C     C_R   0.500673 0.815342 0.502262 -0.079194
C115  C     C_R   0.561043 0.804767 0.548364 -0.003752
C116  C     C_R   0.558765 0.739587 0.546052 -0.242240
C117  C     C_R   0.497465 0.685363 0.498899 -0.077668
Cu1   Cu    Cu3+1 0.000000 0.438230 0.500020 0.952138
Cu2   Cu    Cu3+1 0.000000 0.561770 0.499980 0.956283
Cu3   Cu    Cu3+1 0.465780 0.465820 0.431560 0.974601
Cu4   Cu    Cu3+1 0.534220 0.534230 0.568440 0.964844
Cu5   Cu    Cu3+1 0.561810 0.999860 0.500000 0.959964
Cu6   Cu    Cu3+1 0.438190 0.999810 0.500000 0.954739
H1    H     H_    0.968141 0.244112 0.216336 0.133515
H2    H     H_    0.487175 0.864272 0.282304 0.156976
H3    H     H_    0.026670 0.233807 0.322633 0.125275
H4    H     H_    0.424960 0.801085 0.156844 0.155465
H5    H     H_    0.990318 0.397239 0.712003 0.131951
H6    H     H_    0.878039 0.312566 0.612865 0.131964
H7    H     H_    0.790921 0.349307 0.534316 0.122759
H8    H     H_    0.929588 0.556530 0.654104 0.107990
H9    H     H_    0.015282 0.519189 0.732862 0.143121
H10   H     H_    0.725475 0.460846 0.570737 0.147298
H11   H     H_    0.776064 0.546652 0.434819 0.162045
H12   H     H_    0.517018 0.786393 0.764189 0.129792
H13   H     H_    0.589167 0.459274 0.334223 0.170214
H14   H     H_    0.128969 0.327323 0.427200 0.130144
H15   H     H_    0.614818 0.717645 0.446011 0.146846
H16   H     H_    0.699501 0.665439 0.507407 0.140746
H17   H     H_    0.926875 0.486047 0.283921 0.154304
H18   H     H_    0.795540 0.236464 0.154871 0.152813
H19   H     H_    0.857082 0.297869 0.280536 0.150853
H20   H     H_    0.765183 0.207915 0.842614 0.158265
H21   H     H_    0.701237 0.145571 0.717123 0.157207
H22   H     H_    0.517654 0.071862 0.718872 0.156014
H23   H     H_    0.481501 0.754878 0.643615 0.134397
H24   H     H_    0.113012 0.443199 0.319252 0.126609
H25   H     H_    0.581589 0.133976 0.844607 0.157546
H26   H     H_    0.193000 0.498284 0.284903 0.123364
H27   H     H_    0.287161 0.489997 0.252655 0.136980
H28   H     H_    0.399019 0.581370 0.329247 0.155396
H29   H     H_    0.321157 0.692344 0.469484 0.130728
H30   H     H_    0.210119 0.599678 0.393148 0.136772
H31   H     H_    0.392400 0.770380 0.420971 0.158698
H32   H     H_    0.605009 0.731198 0.581569 0.157083
H33   H     H_    0.691241 0.813261 0.559653 0.118538
H34   H     H_    0.385781 0.650443 0.547442 0.099096
H35   H     H_    0.011284 0.348851 0.214898 0.142296
H36   H     H_    0.796048 0.006786 0.751945 0.134781
H37   H     H_    0.684084 0.012883 0.755128 0.160672
H38   H     H_    0.574760 0.922108 0.660065 0.116216
H39   H     H_    0.585006 0.280068 0.277851 0.136300
H40   H     H_    0.475813 0.195426 0.233448 0.136652
H41   H     H_    0.444366 0.184773 0.314271 0.127429
H42   H     H_    0.632415 0.344308 0.485203 0.099460
H43   H     H_    0.663436 0.353634 0.403444 0.139060
H44   H     H_    0.527032 0.150910 0.420171 0.148880
H45   H     H_    0.074585 0.700967 0.719739 0.157074
H46   H     H_    0.478438 0.350007 0.583207 0.155263
H47   H     H_    0.258439 0.410125 0.401024 0.163854
H48   H     H_    0.365526 0.237066 0.553408 0.123496
H49   H     H_    0.347853 0.233996 0.644567 0.129647
H50   H     H_    0.448728 0.236123 0.745884 0.130964
H51   H     H_    0.567584 0.241473 0.756046 0.155138
H52   H     H_    0.585618 0.241695 0.664093 0.119793
H53   H     H_    0.236534 0.596021 0.594524 0.141982
H54   H     H_    0.360087 0.608107 0.692309 0.129169
H55   H     H_    0.455989 0.712969 0.788110 0.136895
H56   H     H_    0.137718 0.761507 0.845492 0.155474
H57   H     H_    0.390292 0.481063 0.171480 0.341664
H58   H     H_    0.145134 0.514379 0.715605 0.157603
H59   H     H_    0.232435 0.853600 0.155131 0.153059
H60   H     H_    0.294691 0.916337 0.280790 0.153069
N1    N     N_R   0.281126 0.703715 0.966470 -0.214651
N2    N     N_1   0.465998 0.681421 0.296422 -0.257185
N3    N     N_1   0.867661 0.467830 0.123078 -0.258443
N4    N     N_1   0.868870 0.901858 0.652350 -0.279377
N5    N     N_R   0.315191 0.738919 0.034988 -0.228839
N6    N     N_R   0.221707 0.792613 0.033325 -0.240494
N7    N     N_R   0.187775 0.757648 0.964758 -0.234802
N8    N     N_R   0.725839 0.237773 0.035022 -0.231887
N9    N     N_R   0.691156 0.202732 0.966452 -0.242050
N10   N     N_R   0.779811 0.261700 0.964762 -0.235602
N11   N     N_R   0.814335 0.296913 0.033283 -0.223628
N12   N     N_1   0.245563 0.531607 0.876348 -0.256599
O1    O     O_R   0.049920 0.497760 0.599870 -0.581679
O2    O     O_R   0.447770 0.089950 0.499980 -0.575312
O3    O     O_R   0.502270 0.949920 0.400150 -0.587263
O4    O     O_R   0.049920 0.602100 0.599840 -0.585520
O5    O     O_R   0.397880 0.949890 0.400140 -0.587185
O6    O     O_R   0.552230 0.909720 0.500030 -0.571851
O7    O     O_R   0.447840 0.909680 0.500020 -0.590962
O8    O     O_R   0.602120 0.049780 0.599860 -0.582131
O9    O     O_R   0.497730 0.049740 0.599850 -0.582216
O10   O     O_R   0.090180 0.447830 0.500020 -0.589281
O11   O     O_R   0.090180 0.552170 0.499990 -0.583619
O12   O     O_R   0.528910 0.619050 0.557800 -0.589017
O13   O     O_R   0.950080 0.397900 0.400160 -0.584961
O14   O     O_R   0.950080 0.502240 0.400130 -0.588330
O15   O     O_R   0.909820 0.447830 0.500010 -0.574866
O16   O     O_R   0.909820 0.552170 0.499980 -0.584815
O17   O     O_R   0.471120 0.561280 0.442210 -0.586620
O18   O     O_2   0.483826 0.433306 0.223131 -0.599834
O19   O     O_R   0.427266 0.519752 0.218391 -0.768420
O20   O     O_R   0.380930 0.471140 0.442200 -0.585744
O21   O     O_R   0.438710 0.528900 0.557790 -0.576528
O22   O     O_R   0.471090 0.380990 0.442200 -0.572832
O23   O     O_R   0.528880 0.438760 0.557790 -0.588260
O24   O     O_R   0.561290 0.471140 0.442210 -0.577979
O25   O     O_R   0.619070 0.528910 0.557800 -0.586591
O26   O     O_R   0.552160 0.089990 0.499980 -0.588469

loop_
_geom_bond_atom_site_label_1
_geom_bond_atom_site_label_2
_ccdc_geom_bond_type
Cu3   O17   S    
C88   N8    A    
C98   O20   A    
C87   C94   S    
C27   C98   S    
C93   C94   A    
Cu4   O23   S    
C54   C55   A    
C111  C112  A    
C91   C104  S    
C63   C101  S    
C24   H51   S    
C114  C115  A    
C90   C91   A    
C45   H58   S    
C7    C8    A    
C50   H59   S    
C77   C78   A    
C95   C117  S    
Cu3   O20   S    
C40   C46   A    
C105  H27   S    
C33   C39   A    
C5    C109  A    
Cu6   O9    S    
Cu2   O4    S    
C84   C97   A    
C104  O9    A    
Cu5   O6    S    
C57   H6    S    
C28   C29   A    
C35   C37   A    
C113  C114  A    
C51   H60   S    
C69   C70   A    
C102  O3    A    
C52   H44   S    
C38   C39   A    
C79   C86   A    
C85   C96   A    
C101  O2    A    
C1    C46   S    
C7    H36   S    
C15   C16   A    
C96   C99   S    
C109  H24   S    
C32   C97   S    
C93   H25   S    
C34   C35   A    
C66   C100  S    
C89   C94   A    
C2    C13   A    
C110  C111  A    
C116  H32   S    
C62   C64   A    
C3    C117  A    
C17   C44   S    
Cu1   Cu2   S    
C96   C107  A    
C13   H49   S    
C99   O22   A    
C100  O24   A    
C16   H43   S    
C68   C69   A    
C64   H5    S    
Cu5   O26   S    
C13   C22   A    
C11   C41   A    
C23   C27   A    
C37   H23   S    
Cu1   O1    S    
C9    C10   A    
C53   C102  S    
C31   C36   S    
C2    H48   S    
C40   C42   A    
C66   C67   A    
C19   C75   S    
C41   H39   S    
C73   C75   A    
C48   O13   A    
C1    O4    A    
C67   C78   S    
C82   H18   S    
C85   H46   S    
C21   N4    T    
C95   O12   A    
C54   H2    S    
C59   C61   A    
Cu2   O14   S    
C20   C80   S    
C33   H54   S    
N8    N9    A    
C104  O8    A    
C62   H9    S    
Cu6   O5    S    
Cu1   O10   S    
C24   C25   A    
C52   C107  A    
C4    C6    A    
C3    C113  A    
C35   H12   S    
C71   H13   S    
C71   C73   A    
Cu3   O22   S    
C49   N7    A    
C28   C39   S    
C50   C51   A    
C25   C26   A    
C53   C54   A    
C6    C21   S    
C82   C83   A    
C81   C82   A    
N1    N5    A    
C72   H3    S    
C51   C53   A    
Cu5   O8    S    
C47   N6    A    
Cu1   O13   S    
C67   C68   A    
C103  O6    A    
C37   C38   A    
C102  O5    A    
C12   H41   S    
C49   N1    A    
C97   C109  A    
C25   H52   S    
C31   C32   A    
C99   O23   A    
C42   H56   S    
C1    O1    A    
C55   C56   A    
C11   H40   S    
C33   C34   A    
C8    C9    A    
C2    C26   A    
Cu2   O11   S    
C36   O11   A    
C76   C77   A    
C9    H38   S    
C111  H30   S    
C88   N11   A    
C87   N10   A    
C72   C84   A    
C65   H10   S    
C14   C107  S    
C4    H33   S    
C105  C112  A    
C30   H1    S    
C84   H14   S    
C5    H35   S    
C18   C73   S    
C43   C44   A    
Cu4   O25   S    
C22   C24   A    
C17   N12   T    
C18   O18   D    
C42   C43   A    
C95   O17   A    
C29   H53   S    
C4    C10   A    
C8    H37   S    
C91   C92   A    
C22   H50   S    
Cu3   Cu4   S    
C57   C64   A    
C5    C30   A    
C103  C114  S    
C101  O26   A    
N6    N7    A    
C98   O21   A    
C18   O19   S    
C75   C76   A    
C106  H28   S    
Cu6   O7    S    
C92   H22   S    
C112  H26   S    
Cu2   O16   S    
Cu6   O2    S    
C113  H31   S    
C43   C49   S    
C44   C45   A    
C77   H16   S    
C38   H34   S    
C12   C14   A    
C80   C81   A    
C52   C63   A    
C55   H4    S    
C83   H19   S    
C30   C72   A    
C11   C12   A    
C6    C7    A    
C63   C74   A    
C76   H15   S    
C3    C108  S    
C105  C106  A    
C110  H29   S    
C65   C70   A    
Cu1   O15   S    
C23   C32   A    
C87   N9    A    
C68   H11   S    
C58   C59   A    
C103  O7    A    
C29   C31   A    
C89   H20   S    
C19   N2    T    
Cu5   O3    S    
C57   C58   A    
C23   H47   S    
C106  C108  A    
C60   C69   S    
C58   H7    S    
Cu3   O24   S    
H57   O19   S    
C92   C93   A    
C26   C74   S    
C108  C110  A    
C116  C117  A    
C79   H17   S    
C48   C86   S    
C36   O10   A    
C65   C66   A    
C74   C85   A    
C61   C62   A    
C60   O16   A    
C50   C56   A    
C40   H45   S    
C81   C88   S    
C34   H55   S    
Cu4   O21   S    
C61   H8    S    
C59   C70   S    
C20   N3    T    
C79   C80   A    
C45   C46   A    
C83   C86   A    
C48   O14   A    
C100  O25   A    
N10   N11   A    
C27   C28   A    
C47   N5    A    
Cu4   O12   S    
C14   C15   A    
C15   H42   S    
Cu5   Cu6   S    
C89   C90   A    
C60   O15   A    
C16   C41   A    
C71   C78   A    
C90   H21   S    
C10   C115  S    
C115  C116  A    
C47   C56   S    
