data_mof_unit_27593.cif
_audit_creation_date              2012-12-10T20:28:00-0500
_audit_creation_method            fapswitch 2.2
_symmetry_space_group_name_H-M    P1
_symmetry_Int_Tables_number       1
_space_group_crystal_system       triclinic
_cell_length_a                    12.776348
_cell_length_b                    10.740768
_cell_length_c                    9.883419
_cell_angle_alpha                 88.801546
_cell_angle_beta                  97.335022
_cell_angle_gamma                 91.247362
_cell_volume                      1344.63701596

loop_
_atom_site_label
_atom_site_type_symbol
_atom_type_description
_atom_site_fract_x
_atom_site_fract_y
_atom_site_fract_z
_atom_type_partial_charge
C1    C     C_R   0.501962 0.259570 0.501184 0.906090
C2    C     C_R   0.507622 0.937609 0.374289 -0.170675
C3    C     C_R   0.520584 0.870826 0.498005 -0.092310
C4    C     C_R   0.300017 0.519466 0.472555 0.966152
C5    C     C_R   0.550533 0.932926 0.619383 0.126897
C6    C     C_3   0.511262 0.916591 0.754352 -0.427744
C7    C     C_3   0.505683 0.056756 0.755835 -0.488539
C8    C     C_R   0.422423 0.437809 0.060124 0.152995
C9    C     C_R   0.568116 0.574888 0.079627 0.204552
C10   C     C_R   0.568974 0.572636 0.936486 -0.151964
C11   C     C_R   0.420622 0.440793 0.917243 0.188155
C12   C     C_R   0.031327 0.554822 0.560245 0.083292
C13   C     C_3   0.393225 0.306376 0.907150 -0.076137
C14   C     C_3   0.400347 0.301212 0.062335 -0.060309
C15   C     C_R   0.503885 0.739716 0.499256 0.886131
C16   C     C_R   0.702451 0.498654 0.527120 0.885183
C17   C     C_R   0.816079 0.505999 0.543790 -0.075121
C18   C     C_R   0.189207 0.552616 0.452962 -0.242080
C19   C     C_R   0.021409 0.526972 0.312316 0.137789
C20   C     C_R   0.129997 0.550132 0.322328 0.153581
C21   C     C_R   0.139289 0.578289 0.567438 0.101444
C22   C     C_R   0.973304 0.522533 0.433084 0.032620
C23   C     C_R   0.866841 0.494167 0.428377 -0.161757
C24   C     C_R   0.872877 0.536159 0.669301 -0.180421
C25   C     C_R   0.980347 0.559406 0.677860 -0.089806
C26   C     C_R   0.547524 0.060420 0.621472 0.127785
C27   C     C_R   0.515389 0.127430 0.501455 -0.103862
C28   C     C_R   0.505192 0.065824 0.376224 -0.185566
H1    H     H_    0.821340 0.466716 0.333816 0.198349
H2    H     H_    0.625575 0.629469 0.889062 0.170359
H3    H     H_    0.834101 0.544488 0.759925 0.185626
H4    H     H_    0.022212 0.580167 0.777080 0.202822
H5    H     H_    0.572305 0.877905 0.833423 0.213766
H6    H     H_    0.422885 0.088382 0.747053 0.235648
H7    H     H_    0.562571 0.098037 0.838074 0.206961
H8    H     H_    0.458604 0.258026 0.870283 0.121367
H9    H     H_    0.471256 0.250498 0.108060 0.107952
H10   H     H_    0.487814 0.114832 0.280120 0.178161
H11   H     H_    0.490771 0.891628 0.277163 0.196797
H12   H     H_    0.432378 0.869704 0.748036 0.241450
I1    I     I_    0.675060 0.703563 0.184887 -0.330591
I2    I     I_    0.241919 0.276931 0.787901 -0.227810
I3    I     I_    0.261572 0.250870 0.155048 -0.208026
I4    I     I_    0.933285 0.497088 0.114689 -0.305969
I5    I     I_    0.197999 0.610767 0.143770 -0.208966
I6    I     I_    0.222795 0.674518 0.739102 -0.289225
N1    N     N_R   0.499290 0.499140 0.142710 -0.144206
N2    N     N_R   0.499290 0.499180 0.857070 -0.137479
O1    O     O_R   0.500010 0.316790 0.614690 -0.616431
O2    O     O_R   0.500000 0.316760 0.385350 -0.621837
O3    O     O_R   0.346360 0.499990 0.595720 -0.573503
O4    O     O_R   0.346350 0.499960 0.366370 -0.580873
O5    O     O_R   0.500000 0.683240 0.614650 -0.624044
O6    O     O_R   0.499990 0.683210 0.385310 -0.602159
O7    O     O_R   0.653650 0.500040 0.633630 -0.628435
O8    O     O_R   0.653640 0.500010 0.404280 -0.602124
Zn1   Zn    Zn3+2 0.500010 0.500020 0.653130 0.984530
Zn2   Zn    Zn3+2 0.499990 0.499980 0.346870 1.011514

loop_
_geom_bond_atom_site_label_1
_geom_bond_atom_site_label_2
_ccdc_geom_bond_type
C2    C28   A    
C16   O8    A    
C6    C7    S    
O3    Zn1   S    
C1    O2    A    
C12   C22   A    
C18   C21   A    
C9    C10   A    
C10   H2    S    
C9    I1    S    
C20   I5    S    
C6    H5    S    
C28   H10   S    
C12   C25   A    
C3    C5    A    
C4    C18   S    
C25   H4    S    
C2    C3    A    
C11   N2    A    
C8    N1    A    
O1    Zn1   S    
N2    Zn1   S    
C13   C14   S    
C24   C25   A    
C14   H9    S    
C11   C13   S    
C26   C27   A    
C17   C23   A    
C7    C26   S    
O4    Zn2   S    
C4    O4    A    
C8    C11   A    
C12   C21   A    
C15   O5    A    
C13   I2    S    
O8    Zn2   S    
C9    N1    A    
C18   C20   A    
O7    Zn1   S    
C10   N2    A    
C5    C6    S    
C7    H6    S    
C6    H12   S    
C16   O7    A    
C17   C24   A    
C4    O3    A    
C5    C26   A    
O2    Zn2   S    
C15   O6    A    
C23   H1    S    
C19   C22   A    
C3    C15   S    
C19   I4    S    
C13   H8    S    
C21   I6    S    
O6    Zn2   S    
C27   C28   A    
C1    C27   S    
O5    Zn1   S    
C22   C23   A    
C16   C17   S    
C8    C14   S    
C24   H3    S    
C7    H7    S    
C2    H11   S    
C19   C20   A    
C14   I3    S    
N1    Zn2   S    
C1    O1    A    
