data_mof_unit_28401.cif
_audit_creation_date              2012-10-26T18:33:58-0400
_audit_creation_method            fapswitch 2.2
_symmetry_space_group_name_H-M    P1
_symmetry_Int_Tables_number       1
_space_group_crystal_system       triclinic
_cell_length_a                    11.056647
_cell_length_b                    10.802404
_cell_length_c                    9.520108
_cell_angle_alpha                 89.802593
_cell_angle_beta                  102.671582
_cell_angle_gamma                 89.888841
_cell_volume                      1109.36034911

loop_
_atom_site_label
_atom_site_type_symbol
_atom_type_description
_atom_site_fract_x
_atom_site_fract_y
_atom_site_fract_z
_atom_type_partial_charge
C1    C     C_R   0.495916 0.262311 0.499388 0.546695
C2    C     C_2   0.872147 0.500003 0.591188 -0.138374
C3    C     C_2   0.067290 0.500438 0.515647 -0.170235
C4    C     C_2   0.932712 0.500462 0.484279 -0.169142
C5    C     C_R   0.573856 0.067736 0.426976 -0.134890
C6    C     C_R   0.425329 0.931761 0.572977 -0.135693
C7    C     C_R   0.581719 0.939227 0.427325 -0.004182
C8    C     C_R   0.417165 0.060310 0.572644 -0.002828
C9    C     C_R   0.505470 0.871372 0.500644 0.014473
C10   C     C_R   0.493945 0.128336 0.499610 0.018412
C11   C     C_3   0.676436 0.879553 0.355299 -0.262817
C12   C     C_R   0.503777 0.737589 0.500651 0.543267
C13   C     C_3   0.628881 0.874285 0.192306 -0.414716
C14   C     C_3   0.321741 0.119792 0.644198 -0.269563
C15   C     C_3   0.211835 0.170484 0.532693 -0.419822
C16   C     C_R   0.262736 0.500834 0.441727 0.549554
C17   C     C_R   0.737271 0.499972 0.558257 0.552140
C18   C     C_R   0.420672 0.574654 0.053919 0.003305
C19   C     C_R   0.579288 0.425294 0.946070 0.006741
C20   C     C_R   0.420733 0.574732 0.905123 0.007834
C21   C     C_R   0.579302 0.425300 0.094892 0.010097
C22   C     C_2   0.127860 0.501063 0.408756 -0.141115
Cu1   Cu    Cu3+1 0.500000 0.500020 0.640660 0.920795
Cu2   Cu    Cu3+1 0.500000 0.499980 0.359340 0.920275
H1    H     H_    0.882883 0.500891 0.372229 0.153924
H2    H     H_    0.365921 0.877647 0.626335 0.113452
H3    H     H_    0.698494 0.827332 0.142663 0.136642
H4    H     H_    0.613102 0.969275 0.146814 0.138428
H5    H     H_    0.540698 0.821805 0.164639 0.173342
H6    H     H_    0.763813 0.933870 0.379860 0.124420
H7    H     H_    0.702152 0.785084 0.397706 0.167488
H8    H     H_    0.163680 0.093819 0.465565 0.143041
H9    H     H_    0.242584 0.239442 0.461550 0.165086
H10   H     H_    0.145246 0.215928 0.588167 0.139809
H11   H     H_    0.285072 0.050948 0.711272 0.123162
H12   H     H_    0.117122 0.499754 0.627694 0.154311
H13   H     H_    0.363707 0.193557 0.719765 0.177850
H14   H     H_    0.357278 0.634622 0.093628 0.106452
H15   H     H_    0.642678 0.365314 0.906360 0.108366
H16   H     H_    0.922190 0.499657 0.703075 0.096769
H17   H     H_    0.077839 0.501508 0.296866 0.097606
H18   H     H_    0.357320 0.634727 0.832683 0.104447
H19   H     H_    0.642750 0.365341 0.167350 0.104124
H20   H     H_    0.633162 0.121212 0.372797 0.116643
N1    N     N_R   0.500030 0.500030 0.852080 -0.224343
N2    N     N_R   0.499970 0.499970 0.147920 -0.222750
O1    O     O_R   0.499990 0.319660 0.618740 -0.508402
O2    O     O_R   0.500010 0.680340 0.381260 -0.504568
O3    O     O_R   0.499990 0.319630 0.381170 -0.504830
O4    O     O_R   0.500010 0.680370 0.618830 -0.504788
O5    O     O_R   0.320690 0.500020 0.575130 -0.503148
O6    O     O_R   0.679310 0.499980 0.424870 -0.506764
O7    O     O_R   0.320680 0.499990 0.337560 -0.498566
O8    O     O_R   0.679320 0.500010 0.662440 -0.497414

loop_
_geom_bond_atom_site_label_1
_geom_bond_atom_site_label_2
_ccdc_geom_bond_type
Cu2   O6    S    
C2    C4    D    
Cu1   Cu2   S    
C19   N1    A    
C13   H4    S    
Cu1   N1    S    
C5    C7    A    
Cu2   O3    S    
C3    C22   D    
C15   H10   S    
C20   H18   S    
C20   N1    A    
C16   O5    A    
C12   O2    A    
Cu2   N2    S    
C6    C9    A    
C4    H1    S    
C18   H14   S    
C11   H7    S    
C15   H8    S    
C16   O7    A    
C2    C17   S    
C7    C11   S    
C11   C13   S    
C6    H2    S    
C19   H15   S    
C3    H12   S    
C6    C8    A    
C18   N2    A    
C17   O6    A    
C13   H5    S    
C19   C21   A    
C5    H20   S    
C18   C20   A    
C9    C12   S    
C22   H17   S    
Cu1   O1    S    
C3    C4    S    
Cu2   O2    S    
C2    H16   S    
C5    C10   A    
Cu1   O8    S    
C8    C10   A    
C21   N2    A    
C14   H11   S    
C7    C9    A    
C14   C15   S    
C13   H3    S    
Cu1   O4    S    
C8    C14   S    
Cu2   O7    S    
C21   H19   S    
Cu1   O5    S    
C17   O8    A    
C15   H9    S    
C1    O1    A    
C1    C10   S    
C11   H6    S    
C16   C22   S    
C12   O4    A    
C14   H13   S    
C1    O3    A    
