data_mof_unit_40895.cif
_audit_creation_date              2013-03-05T16:15:20-0500
_audit_creation_method            fapswitch 2.2
_symmetry_space_group_name_H-M    P1
_symmetry_Int_Tables_number       1
_space_group_crystal_system       triclinic
_cell_length_a                    27.817129
_cell_length_b                    10.617212
_cell_length_c                    9.548909
_cell_angle_alpha                 89.678514
_cell_angle_beta                  90.871242
_cell_angle_gamma                 90.144718
_cell_volume                      2819.79935363

loop_
_atom_site_label
_atom_site_type_symbol
_atom_site_description
_atom_site_fract_x
_atom_site_fract_y
_atom_site_fract_z
_atom_type_partial_charge
O1    O     O_R   0.500020 0.316850 0.620870 -0.563685
O2    O     O_R   0.499980 0.683150 0.379130 -0.546482
O3    O     O_R   0.500000 0.316860 0.379090 -0.554264
O4    O     O_R   0.500000 0.683140 0.620910 -0.569409
C1    C     C_R   0.499776 0.260172 0.500148 0.901191
C2    C     C_R   0.500147 0.739950 0.499812 0.875079
O5    O     O_R   0.430270 0.500020 0.620880 -0.597418
O6    O     O_R   0.569730 0.499980 0.379120 -0.558825
O7    O     O_R   0.430250 0.500030 0.379090 -0.512019
O8    O     O_R   0.569750 0.499970 0.620910 -0.555776
C3    C     C_R   0.407660 0.503236 0.499612 0.895937
C4    C     C_R   0.592198 0.497572 0.501164 0.895146
Cu1   Cu    Cu3+1 0.500010 0.499990 0.643150 1.058543
Cu2   Cu    Cu3+1 0.499990 0.500010 0.356850 1.097137
C5    C     C_R   0.177772 0.395030 0.554706 0.634898
C6    C     C_R   0.822217 0.612989 0.506846 0.633231
O9    O     O_2   0.202841 0.286721 0.550970 -0.505669
O10   O     O_2   0.797129 0.713773 0.460685 -0.504104
N1    N     N_R   0.201524 0.506514 0.532889 -0.433368
N2    N     N_R   0.798297 0.501803 0.529118 -0.434359
C7    C     C_R   0.176849 0.617084 0.517418 0.586029
C8    C     C_R   0.822933 0.392837 0.556423 0.585921
C9    C     C_R   0.275509 0.557767 0.406813 -0.169831
C10   C     C_R   0.722497 0.416254 0.432867 -0.161297
C11   C     C_R   0.325736 0.566174 0.398063 0.350874
C12   C     C_R   0.672200 0.407866 0.429083 0.313446
C13   C     C_R   0.331980 0.455182 0.621130 -0.237471
C14   C     C_R   0.669024 0.581054 0.593626 -0.184306
C15   C     C_R   0.282133 0.459566 0.636679 0.381401
C16   C     C_R   0.719085 0.580273 0.609207 0.384781
C17   C     C_R   0.253347 0.507271 0.525606 0.160253
C18   C     C_R   0.746369 0.499782 0.523897 0.155548
C19   C     C_R   0.101661 0.506266 0.554981 -0.083406
C20   C     C_R   0.898368 0.508042 0.550967 -0.083128
C21   C     C_R   0.127590 0.393592 0.578680 -0.128703
C22   C     C_R   0.872557 0.621340 0.530310 -0.125021
C23   C     C_R   0.102738 0.285811 0.629160 0.209894
C24   C     C_R   0.897684 0.737833 0.538911 0.212623
C25   C     C_R   0.126592 0.617750 0.520661 0.007861
C26   C     C_R   0.873240 0.392892 0.559982 0.001039
C27   C     C_R   0.354474 0.507298 0.503139 -0.204526
C28   C     C_R   0.645140 0.495378 0.505874 -0.198052
H1    H     H_    0.353531 0.414770 0.705114 0.258617
H2    H     H_    0.648417 0.647252 0.653044 0.258539
C29   C     C_R   0.974766 0.394115 0.580137 0.087458
C30   C     C_R   0.025281 0.621853 0.538832 0.092373
C31   C     C_R   0.974458 0.624362 0.552890 -0.051087
C32   C     C_R   0.025724 0.396020 0.596635 -0.052229
C33   C     C_R   0.949298 0.508972 0.561160 0.018212
C34   C     C_R   0.050794 0.507877 0.563508 0.018096
C35   C     C_R   0.948525 0.280265 0.575560 -0.167124
C36   C     C_R   0.051225 0.728514 0.493558 -0.167784
C37   C     C_R   0.898698 0.279901 0.570842 -0.162468
C38   C     C_R   0.100984 0.727407 0.488335 -0.171937
O11   O     O_2   0.798827 0.284584 0.580766 -0.507912
O12   O     O_2   0.200904 0.726453 0.499468 -0.515083
C39   C     C_R   0.052498 0.290900 0.647520 0.211188
C40   C     C_R   0.947942 0.738260 0.561388 0.209640
H3    H     H_    0.743475 0.352874 0.369854 0.213620
H4    H     H_    0.253093 0.597177 0.323971 0.217138
H5    H     H_    0.880209 0.190064 0.572245 0.187517
H6    H     H_    0.119279 0.812296 0.454864 0.181614
H7    H     H_    0.965869 0.189620 0.571054 0.167788
H8    H     H_    0.033585 0.813031 0.456443 0.165645
C41   C     C_3   0.534611 0.042282 0.589452 -0.200904
C42   C     C_3   0.465310 0.958250 0.410258 -0.226387
C43   C     C_3   0.542067 0.960547 0.459404 0.378148
C44   C     C_3   0.457831 0.040015 0.540242 0.352946
H9    H     H_    0.563375 0.078484 0.660482 0.203263
H10   H     H_    0.436613 0.923379 0.338382 0.231199
C45   C     C_3   0.499911 0.876738 0.499868 -0.176715
C46   C     C_3   0.500005 0.123616 0.499893 -0.159564
C47   C     C_3   0.491333 0.957472 0.631168 -0.189785
C48   C     C_3   0.508558 0.043052 0.368625 -0.159565
H11   H     H_    0.483604 0.921458 0.737881 0.230990
H12   H     H_    0.516290 0.079232 0.261984 0.231989
C49   C     C_3   0.515455 0.605252 0.049188 0.273879
C50   C     C_3   0.484490 0.394866 0.950647 0.271632
C51   C     C_3   0.472854 0.588247 0.947969 0.119166
C52   C     C_3   0.527091 0.411845 0.051244 0.094970
N3    N     N_3   0.500040 0.499970 0.858290 -0.306926
N4    N     N_3   0.499960 0.500030 0.141710 -0.307311
C53   C     C_3   0.542603 0.517346 0.952871 0.262094
C54   C     C_3   0.457322 0.482716 0.046579 0.253942
N5    N     N_2   0.444248 0.688713 0.886203 -0.408787
H13   H     H_    0.424046 0.662617 0.800067 0.288858
C55   C     C_3   0.418165 0.768176 0.981146 -0.415340
H14   H     H_    0.418314 0.866288 0.940505 0.252702
H15   H     H_    0.434422 0.767529 0.087988 0.251671
H16   H     H_    0.380314 0.736233 0.987232 0.271266
N6    N     N_2   0.556013 0.311545 0.110958 -0.384853
H17   H     H_    0.577578 0.340758 0.192411 0.323102
C56   C     C_3   0.580378 0.229602 0.014221 -0.387617
H18   H     H_    0.577522 0.130883 0.051994 0.262070
H19   H     H_    0.619059 0.254497 0.009352 0.262268
H20   H     H_    0.564791 0.235669 0.906613 0.210238
N7    N     N_R   0.536901 0.719829 0.106166 0.172856
O13   O     O_R   0.522099 0.829812 0.063663 -0.337244
O14   O     O_R   0.576282 0.711901 0.180707 -0.250352
N8    N     N_R   0.463274 0.279629 0.894528 0.171638
O15   O     O_R   0.477393 0.170237 0.940812 -0.336774
O16   O     O_R   0.424220 0.286680 0.818593 -0.268858
N9    N     N_R   0.589640 0.551384 0.899763 0.166683
O17   O     O_R   0.626430 0.478262 0.921042 -0.338966
O18   O     O_R   0.596442 0.665273 0.853291 -0.287233
N10   N     N_R   0.409624 0.449259 0.095495 0.177316
O19   O     O_R   0.372264 0.494980 0.029879 -0.290395
O20   O     O_R   0.404493 0.346759 0.169081 -0.261093
N11   N     N_R   0.261553 0.419038 0.766860 0.156202
O21   O     O_R   0.282836 0.333096 0.843009 -0.243906
O22   O     O_R   0.224970 0.478269 0.818233 -0.339024
N12   N     N_R   0.741434 0.658618 0.714213 0.159389
O23   O     O_R   0.721315 0.763710 0.750833 -0.254354
O24   O     O_R   0.778453 0.618084 0.786048 -0.336790
N13   N     N_2   0.127715 0.176584 0.678066 -0.417611
H21   H     H_    0.159033 0.191893 0.734493 0.320181
C57   C     C_3   0.129211 0.073096 0.580057 -0.576209
H22   H     H_    0.150350 0.099298 0.486629 0.270407
H23   H     H_    0.092334 0.046159 0.545252 0.190530
H24   H     H_    0.146217 0.990126 0.631648 0.251996
N14   N     N_2   0.873058 0.855371 0.542046 -0.422167
H25   H     H_    0.841932 0.857828 0.599090 0.322628
C58   C     C_3   0.871152 0.922707 0.409788 -0.580024
H26   H     H_    0.850811 0.867741 0.329839 0.274025
H27   H     H_    0.908030 0.940692 0.371049 0.193136
H28   H     H_    0.852983 0.014670 0.423908 0.240517
N15   N     N_R   0.649804 0.303796 0.357903 0.122326
O25   O     O_R   0.670790 0.252284 0.251732 -0.312620
O26   O     O_R   0.614009 0.244802 0.415273 -0.389747
N16   N     N_R   0.346034 0.644950 0.290902 0.159814
O27   O     O_R   0.320553 0.672684 0.179570 -0.301513
O28   O     O_R   0.383754 0.713392 0.319106 -0.407614
N17   N     N_2   0.030099 0.198445 0.734285 -0.449293
H29   H     H_    0.045316 0.110225 0.734334 0.277691
C59   C     C_3   0.019261 0.241103 0.873897 -0.638717
H30   H     H_    0.999742 0.165769 0.930926 0.221719
H31   H     H_    0.995993 0.325951 0.869494 0.242760
H32   H     H_    0.053063 0.263359 0.932288 0.237789
N18   N     N_2   0.970520 0.849416 0.614867 -0.449771
H33   H     H_    0.956379 0.933786 0.580227 0.270299
C60   C     C_3   0.978837 0.846895 0.764802 -0.638874
H34   H     H_    0.997983 0.933738 0.797652 0.221144
H35   H     H_    0.001435 0.764784 0.795324 0.240342
H36   H     H_    0.944033 0.841867 0.820251 0.239922
N19   N     N_R   0.588863 0.915276 0.416264 0.177177
O29   O     O_R   0.607078 0.953824 0.298911 -0.227875
O30   O     O_R   0.614182 0.843894 0.500029 -0.329694
N20   N     N_R   0.411067 0.086224 0.582703 0.164084
O31   O     O_R   0.392221 0.046576 0.698732 -0.272597
O32   O     O_R   0.386664 0.161099 0.500327 -0.307431

loop_
_geom_bond_atom_site_label_1
_geom_bond_atom_site_label_2
_geom_bond_distance
_ccdc_geom_bond_type
C40   N18   1.428742 S    
C59   H32   1.111409 S    
C42   C44   1.535705 S    
C55   H14   1.109598 S    
C56   H18   1.109577 S    
C30   C36   1.410677 A    
C13   C15   1.397676 A    
N1    C17   1.444299 S    
N12   O24   1.301382 A    
N7    O13   1.299938 A    
C32   C39   1.422517 A    
C31   C33   1.411836 A    
N5    H13   1.027990 S    
C5    N1    1.370560 A    
C19   C25   1.409891 A    
C53   N9    1.454487 S    
O1    C1    1.303282 A    
C15   N11   1.439635 S    
N1    C7    1.367538 A    
N20   O32   1.300383 A    
C1    C46   1.449889 S    
C57   H23   1.110749 S    
N19   O29   1.300389 A    
C51   C54   1.525379 S    
C50   C52   1.525044 S    
C58   H27   1.111478 S    
C25   C38   1.397020 A    
N10   O19   1.299087 A    
C29   C35   1.411044 A    
N13   H21   1.030377 S    
C42   C48   1.555976 S    
Cu1   N3    2.054340 S    
C41   C47   1.556880 S    
C59   H31   1.110817 S    
C14   C28   1.399848 A    
O4    Cu1   1.954920 S    
C4    C28   1.472920 S    
N11   O22   1.301377 A    
N7    O14   1.299958 A    
C24   C40   1.411178 A    
C37   H5    1.082615 S    
C41   C43   1.535914 S    
C43   N19   1.454963 S    
C54   N10   1.455828 S    
C49   N7    1.457950 S    
C59   H30   1.110410 S    
C43   C45   1.523453 S    
C44   N20   1.455595 S    
O6    C4    1.314160 A    
N5    C55   1.446313 S    
C56   H19   1.108941 S    
Cu1   Cu2   2.733842 S    
C47   H11   1.110240 S    
C39   N17   1.428878 S    
O2    C2    1.303574 A    
N15   O26   1.301338 A    
C52   C53   1.523602 S    
C11   N16   1.439094 S    
C5    C21   1.418030 A    
N12   O23   1.301505 A    
N3    C53   1.489887 S    
C36   C38   1.385888 A    
O5    C3    1.309642 A    
C49   C51   1.528776 S    
C9    H4    1.082704 S    
N19   O30   1.299597 A    
C58   H26   1.110740 S    
C35   H7    1.079017 S    
N20   O31   1.300345 A    
C46   C48   1.543229 S    
C36   H8    1.079336 S    
C60   H36   1.111533 S    
C11   C27   1.416901 A    
N6    H17   1.024005 S    
C51   N3    1.488600 S    
C58   H28   1.110409 S    
C38   H6    1.082979 S    
N13   C57   1.448388 S    
C19   C34   1.418705 A    
C14   H2    1.077453 S    
C49   C53   1.523670 S    
C16   N12   1.439293 S    
C44   C46   1.522256 S    
C35   C37   1.386082 A    
C9    C17   1.402493 A    
N16   O28   1.300493 A    
O7    Cu2   1.954764 S    
C10   C18   1.403957 A    
C50   C54   1.521334 S    
N6    C56   1.449344 S    
C13   C27   1.407055 A    
C42   C45   1.542205 S    
C7    C25   1.398858 A    
C29   C33   1.421201 A    
C6    N2    1.370767 A    
C8    C26   1.399285 A    
N8    O16   1.299011 A    
N9    O18   1.300083 A    
C43   C48   1.535784 S    
O7    C3    1.320245 A    
N14   H25   1.030364 S    
O3    Cu2   1.954919 S    
O8    C4    1.311550 A    
C52   N4    1.491609 S    
N2    C8    1.367940 A    
C56   H20   1.110790 S    
N4    C54   1.494561 S    
C55   H15   1.109643 S    
C50   N8    1.458247 S    
N17   H29   1.028829 S    
C20   C26   1.409604 A    
C57   H24   1.110238 S    
O4    C2    1.301261 A    
O1    Cu1   1.957229 S    
C48   H12   1.110230 S    
C22   C24   1.421290 A    
C51   N5    1.449764 S    
C12   C28   1.412645 A    
C45   C47   1.544609 S    
N2    C18   1.444725 S    
C29   C32   1.423931 A    
C5    O9    1.347295 S    
C30   C31   1.422479 A    
C20   C33   1.418602 A    
O6    Cu2   1.948371 S    
C21   C23   1.421169 A    
C10   C12   1.401650 A    
C2    C45   1.452341 S    
O3    C1    1.300368 A    
O8    Cu1   1.954764 S    
C7    O12   1.350112 S    
N18   H33   1.030073 S    
C8    O11   1.350002 S    
C23   N13   1.426125 S    
C41   C46   1.540973 S    
C30   C34   1.421129 A    
C57   H22   1.109693 S    
C52   N6    1.445686 S    
C60   H35   1.111067 S    
N16   O27   1.301505 A    
C44   C47   1.536667 S    
C14   C16   1.398273 A    
C15   C17   1.411678 A    
C60   H34   1.108097 S    
C6    C22   1.417399 A    
C31   C40   1.421423 A    
C16   C18   1.414144 A    
N18   C60   1.446919 S    
C50   N3    1.486018 S    
C42   H10   1.109077 S    
N10   O20   1.300811 A    
C49   N4    1.487433 S    
C10   H3    1.082862 S    
C41   H9    1.110319 S    
C32   C34   1.412490 A    
N8    O15   1.299922 A    
C19   C21   1.413814 A    
C3    C27   1.481128 S    
C20   C22   1.413791 A    
C12   N15   1.436340 S    
C9    C11   1.403541 A    
O2    Cu2   1.957228 S    
N14   C58   1.448069 S    
C24   N14   1.425778 S    
C13   H1    1.081413 S    
O5    Cu1   1.948371 S    
C6    O10   1.347382 S    
C26   C37   1.397169 A    
C55   H16   1.107649 S    
N9    O17   1.298944 A    
N17   C59   1.446717 S    
Cu2   N4    2.054340 S    
N11   O21   1.301551 A    
C23   C39   1.412336 A    
N15   O25   1.301364 A    
