data_mof_unit_48833.cif
_audit_creation_date              2012-12-10T18:53:39-0500
_audit_creation_method            fapswitch 2.2
_symmetry_space_group_name_H-M    P1
_symmetry_Int_Tables_number       1
_space_group_crystal_system       triclinic
_cell_length_a                    10.700462
_cell_length_b                    9.831095
_cell_length_c                    19.245105
_cell_angle_alpha                 89.215138
_cell_angle_beta                  90.165214
_cell_angle_gamma                 90.068107
_cell_volume                      2024.33258637

loop_
_atom_site_label
_atom_site_type_symbol
_atom_type_description
_atom_site_fract_x
_atom_site_fract_y
_atom_site_fract_z
_atom_type_partial_charge
C1    C     C_R   0.259856 0.499967 0.499755 0.873797
C2    C     C_R   0.740114 0.500037 0.499709 0.857282
C3    C     C_R   0.514139 0.471301 0.929095 0.293841
C4    C     C_R   0.519420 0.475572 0.068506 0.292903
C5    C     C_R   0.508512 0.501443 0.365075 0.887734
C6    C     C_R   0.500468 0.498980 0.634046 0.922060
C7    C     C_R   0.063828 0.378494 0.513587 -0.214071
C8    C     C_R   0.936039 0.621484 0.485759 -0.210135
C9    C     C_R   0.935913 0.378557 0.513632 -0.205573
C10   C     C_R   0.063975 0.621472 0.485848 -0.199085
C11   C     C_R   0.872497 0.500003 0.499576 -0.008318
C12   C     C_R   0.127409 0.499939 0.499663 -0.008938
C13   C     C_R   0.592213 0.071210 0.533324 -0.083493
C14   C     C_R   0.407827 0.928786 0.466656 -0.085773
C15   C     C_R   0.407521 0.072685 0.466922 -0.091159
C16   C     C_R   0.592176 0.927257 0.533352 -0.081424
C17   C     C_R   0.512456 0.625161 0.247410 0.103358
C18   C     C_R   0.613310 0.444517 0.742659 0.104141
C19   C     C_R   0.397875 0.536924 0.746928 0.095950
C20   C     C_R   0.568459 0.382145 0.255857 0.105575
C21   C     C_R   0.504677 0.614325 0.174201 0.121476
C22   C     C_R   0.612272 0.426048 0.815477 0.124581
C23   C     C_R   0.403790 0.536302 0.820223 0.129435
C24   C     C_R   0.551756 0.368783 0.183688 0.125755
C25   C     C_R   0.520322 0.485162 0.143766 -0.063083
C26   C     C_R   0.508961 0.475878 0.853528 -0.075409
C27   C     C_R   0.529381 0.503802 0.288472 -0.219919
C28   C     C_R   0.504345 0.495175 0.709358 -0.157620
H1    H     H_    0.112549 0.284218 0.525035 0.157581
H2    H     H_    0.887286 0.715840 0.474512 0.153694
H3    H     H_    0.887088 0.284316 0.525142 0.150281
H4    H     H_    0.112801 0.715853 0.474662 0.148491
H5    H     H_    0.665820 0.125154 0.560044 0.117760
H6    H     H_    0.334373 0.874880 0.439806 0.117539
H7    H     H_    0.333806 0.127811 0.440279 0.126684
H8    H     H_    0.665753 0.872072 0.560101 0.126941
N1    N     N_R   0.500000 0.857200 0.500000 -0.076856
N2    N     N_R   0.500000 0.142800 0.500000 -0.075605
N3    N     N_R   0.611089 0.536804 0.031312 -0.177911
N4    N     N_R   0.423575 0.407515 0.966314 -0.177548
N5    N     N_R   0.607884 0.535751 0.962538 -0.176290
N6    N     N_R   0.425646 0.410491 0.035240 -0.182572
O1    O     O_R   0.316770 0.614620 0.500000 -0.629819
O2    O     O_R   0.683230 0.385380 0.500000 -0.637333
O3    O     O_R   0.683230 0.614620 0.500000 -0.633810
O4    O     O_R   0.316770 0.385380 0.500000 -0.630774
O5    O     O_R   0.499990 0.614700 0.398140 -0.608473
O6    O     O_R   0.500010 0.385300 0.601860 -0.623641
O7    O     O_R   0.500010 0.614700 0.601860 -0.622362
O8    O     O_R   0.499990 0.385300 0.398140 -0.599935
Zn1   Zn    Zn3+2 0.500000 0.653120 0.500000 0.927581
Zn2   Zn    Zn3+2 0.500000 0.346880 0.500000 0.929235
C29   C     C_3   0.512974 0.765591 0.280970 -0.346147
C30   C     C_3   0.641568 0.797701 0.312584 -0.798097
H9    H     H_    0.630905 0.871698 0.355047 0.243698
H10   H     H_    0.688398 0.706147 0.334676 0.257060
H11   H     H_    0.704199 0.841699 0.272245 0.229762
H12   H     H_    0.490906 0.850679 0.245329 0.189660
H13   H     H_    0.436483 0.773998 0.319298 0.204648
C31   C     C_3   0.730789 0.416097 0.699846 -0.402012
C32   C     C_3   0.798584 0.548450 0.681026 -0.873205
H14   H     H_    0.886677 0.525074 0.653395 0.249668
H15   H     H_    0.740048 0.613668 0.646611 0.264786
H16   H     H_    0.821747 0.606032 0.728583 0.263408
H17   H     H_    0.798090 0.348198 0.726433 0.208302
H18   H     H_    0.708008 0.360421 0.651803 0.209968
C33   C     C_3   0.278031 0.576481 0.707901 -0.398687
C34   C     C_3   0.206801 0.450300 0.684304 -0.872628
H19   H     H_    0.117451 0.481584 0.659465 0.248746
H20   H     H_    0.261778 0.392295 0.646066 0.266434
H21   H     H_    0.185704 0.382307 0.729271 0.263042
H22   H     H_    0.213447 0.638542 0.738784 0.209922
H23   H     H_    0.298967 0.642484 0.662254 0.217197
C35   C     C_3   0.649017 0.278929 0.295568 -0.347665
C36   C     C_3   0.577031 0.151472 0.318184 -0.799118
H24   H     H_    0.619609 0.109319 0.366480 0.244292
H25   H     H_    0.477115 0.173821 0.328126 0.265363
H26   H     H_    0.582351 0.072716 0.277855 0.237447
H27   H     H_    0.731379 0.249978 0.264091 0.169710
H28   H     H_    0.692610 0.326267 0.341795 0.203434
C37   C     C_3   0.475080 0.738191 0.127740 -0.387456
C38   C     C_3   0.592433 0.821908 0.110989 -0.841838
H29   H     H_    0.621742 0.884171 0.155674 0.247803
H30   H     H_    0.671605 0.755235 0.096793 0.275432
H31   H     H_    0.573096 0.891713 0.066428 0.242291
H32   H     H_    0.431613 0.707724 0.077921 0.207406
H33   H     H_    0.401161 0.802416 0.150641 0.177336
C39   C     C_3   0.717332 0.348115 0.852794 -0.374303
C40   C     C_3   0.833153 0.436149 0.865789 -0.837837
H34   H     H_    0.889290 0.449928 0.818006 0.252009
H35   H     H_    0.806818 0.537910 0.885137 0.273345
H36   H     H_    0.893733 0.385474 0.905274 0.244875
H37   H     H_    0.685383 0.306086 0.903512 0.204407
H38   H     H_    0.742830 0.255402 0.823855 0.180483
C41   C     C_3   0.302870 0.606635 0.863096 -0.374362
C42   C     C_3   0.188013 0.516496 0.875233 -0.839427
H39   H     H_    0.129884 0.509829 0.827764 0.253981
H40   H     H_    0.215784 0.412246 0.891747 0.272489
H41   H     H_    0.129275 0.560936 0.916610 0.245096
H42   H     H_    0.339412 0.638216 0.914398 0.205408
H43   H     H_    0.275352 0.705103 0.838797 0.181337
C43   C     C_3   0.562077 0.229960 0.149221 -0.367742
C44   C     C_3   0.435747 0.157064 0.150749 -0.862003
H44   H     H_    0.406797 0.134142 0.204917 0.253696
H45   H     H_    0.362297 0.220671 0.125802 0.272466
H46   H     H_    0.441881 0.060356 0.122153 0.250365
H47   H     H_    0.593901 0.239149 0.094565 0.202365
H48   H     H_    0.633942 0.164090 0.173489 0.196643

loop_
_geom_bond_atom_site_label_1
_geom_bond_atom_site_label_2
_ccdc_geom_bond_type
C8    C10   A    
C7    H1    S    
C41   C42   S    
C4    C25   S    
C29   H13   S    
N3    N5    A    
C29   C30   S    
C5    O5    A    
C6    O6    A    
C8    C11   A    
N1    Zn1   S    
C1    O4    A    
N2    Zn2   S    
O3    Zn1   S    
C42   H41   S    
O4    Zn2   S    
C33   H22   S    
C23   C26   A    
C32   H15   S    
C39   H37   S    
C1    O1    A    
C6    C28   S    
C20   C24   A    
C2    O2    A    
C34   H19   S    
O7    Zn1   S    
C42   H40   S    
O8    Zn2   S    
C43   H48   S    
C33   H23   S    
C22   C39   S    
C40   H35   S    
C37   H32   S    
C5    C27   S    
C16   N1    A    
O2    Zn2   S    
N4    N6    A    
C31   H18   S    
C35   H28   S    
C43   C44   S    
C1    C12   S    
C2    C11   S    
C15   H7    S    
C37   C38   S    
C30   H10   S    
C2    O3    A    
C7    C12   A    
C39   H38   S    
C35   C36   S    
C33   C34   S    
C17   C27   A    
C18   C28   A    
C24   C25   A    
C41   H42   S    
O5    Zn1   S    
C17   C21   A    
C31   C32   S    
C32   H16   S    
C19   C23   A    
C36   H24   S    
C15   N2    A    
C13   H5    S    
C9    C11   A    
C31   H17   S    
C4    N3    A    
C42   H39   S    
C20   C35   S    
C43   H47   S    
C44   H45   S    
C40   H36   S    
C19   C33   S    
C19   C28   A    
C36   H25   S    
C13   N2    A    
C37   H33   S    
C10   C12   A    
C18   C31   S    
C21   C37   S    
C3    N4    A    
C38   H30   S    
C35   H27   S    
C5    O8    A    
C17   C29   S    
C7    C9    A    
C21   C25   A    
C30   H9    S    
C3    N5    A    
C18   C22   A    
C3    C26   S    
C14   H6    S    
C29   H12   S    
C20   C27   A    
C38   H31   S    
C8    H2    S    
C16   H8    S    
C14   N1    A    
O1    Zn1   S    
C4    N6    A    
C34   H21   S    
C23   C41   S    
C44   H46   S    
C24   C43   S    
C6    O7    A    
C32   H14   S    
C36   H26   S    
C9    H3    S    
C10   H4    S    
O6    Zn2   S    
C39   C40   S    
C34   H20   S    
C38   H29   S    
C22   C26   A    
C13   C16   A    
C44   H44   S    
C14   C15   A    
C40   H34   S    
C41   H43   S    
C30   H11   S    
