data_mof_unit_20274.cif
_audit_creation_date              2012-12-11T15:55:38-0500
_audit_creation_method            fapswitch 2.2
_symmetry_space_group_name_H-M    P1
_symmetry_Int_Tables_number       1
_space_group_crystal_system       triclinic
_cell_length_a                    8.19105
_cell_length_b                    18.780728
_cell_length_c                    19.009034
_cell_angle_alpha                 98.544298
_cell_angle_beta                  94.274905
_cell_angle_gamma                 91.256589
_cell_volume                      2882.11745841

loop_
_atom_site_label
_atom_site_type_symbol
_atom_type_description
_atom_site_fract_x
_atom_site_fract_y
_atom_site_fract_z
_atom_type_partial_charge
Ba1   Ba    Ba6+2 0.152460 0.535140 0.468980 1.629917
Ba2   Ba    Ba6+2 0.657710 0.464850 0.530960 1.625998
C1    C     C_3   0.350579 0.716544 0.213960 -0.365499
C2    C     C_R   0.084579 0.903166 0.574917 -0.091686
C3    C     C_R   0.220236 0.047015 0.564230 -0.103698
C4    C     C_3   0.896261 0.733325 0.327134 0.356513
C5    C     C_R   0.061716 0.023002 0.534453 0.017517
C6    C     C_R   0.277044 0.117423 0.564933 -0.092307
C7    C     C_R   0.179205 0.167581 0.535780 -0.033312
C8    C     C_R   0.023635 0.144368 0.501264 -0.001551
C9    C     C_R   0.964947 0.071686 0.500092 0.022976
C10   C     C_R   0.232408 0.240340 0.539996 -0.007503
C11   C     C_R   0.128272 0.289560 0.513096 -0.297658
C12   C     C_3   0.373722 0.693109 0.287087 0.358302
C13   C     C_R   0.979583 0.267426 0.474602 0.042328
C14   C     C_R   0.927702 0.193570 0.467220 -0.038636
C15   C     C_R   0.844203 0.928513 0.501251 0.023305
C16   C     C_3   0.907982 0.808888 0.307848 -0.368585
C17   C     C_R   0.785124 0.855924 0.500323 -0.001749
C18   C     C_R   0.881543 0.806569 0.533895 -0.037850
C19   C     C_R   0.026354 0.832853 0.574055 -0.026492
C20   C     C_R   0.783643 0.167079 0.426589 -0.025875
C21   C     C_R   0.725406 0.096757 0.425784 -0.090040
C22   C     C_R   0.810084 0.048415 0.464618 0.012533
C23   C     C_3   0.512038 0.683662 0.644308 0.309605
C24   C     C_R   0.747417 0.977227 0.466950 0.017340
C25   C     C_R   0.588423 0.953436 0.437655 -0.103471
C26   C     C_R   0.628814 0.832928 0.466456 -0.035235
C27   C     C_R   0.530999 0.883186 0.437424 -0.092391
C28   C     C_3   0.791414 0.379990 0.311331 0.312656
C29   C     C_R   0.574824 0.760317 0.462852 -0.002946
C30   C     C_R   0.678186 0.711119 0.490218 -0.299327
C31   C     C_R   0.829114 0.732818 0.526769 0.040542
C32   C     C_R   0.608144 0.532008 0.301397 -0.289406
C33   C     C_R   0.462607 0.493781 0.276280 0.066783
C34   C     C_3   0.528567 0.764713 0.667480 -0.403046
C35   C     C_R   0.409075 0.486828 0.203740 -0.124314
C36   C     C_R   0.502835 0.517146 0.155657 -0.015074
C37   C     C_R   0.653804 0.552770 0.181615 -0.139914
C38   C     C_R   0.706866 0.559007 0.254114 0.014203
C39   C     C_R   0.468712 0.567883 0.040678 -0.094443
C40   C     C_3   0.772984 0.362001 0.230373 -0.396671
C41   C     C_R   0.414723 0.562991 0.968123 0.009011
C42   C     C_R   0.337439 0.497816 0.931379 0.041477
C43   C     C_R   0.313854 0.440543 0.969995 -0.089147
C44   C     C_R   0.366685 0.446672 0.042396 -0.077855
C45   C     C_3   0.908438 0.266648 0.672596 0.359893
C46   C     C_R   0.445424 0.510294 0.078550 0.055680
C47   C     C_R   0.136738 0.451794 0.825093 -0.141360
C48   C     C_R   0.091329 0.443396 0.751409 0.019627
C49   C     C_R   0.340223 0.506945 0.733071 0.037704
C50   C     C_R   0.391161 0.511876 0.805245 -0.112052
C51   C     C_R   0.287902 0.486758 0.852960 -0.013573
C52   C     C_3   0.999189 0.619411 0.691768 0.305719
C53   C     C_R   0.194732 0.470172 0.705960 -0.286968
C54   C     C_3   0.937706 0.629471 0.766117 -0.375741
C55   C     C_3   0.297487 0.318240 0.369038 0.315025
C56   C     C_3   0.897750 0.190917 0.691539 -0.368782
C57   C     C_3   0.293463 0.236973 0.346415 -0.395982
C58   C     C_R   0.440705 0.627517 0.933362 0.031697
C59   C     C_R   0.307756 0.660718 0.901996 -0.075680
C60   C     C_R   0.334765 0.720862 0.868345 -0.042278
C61   C     C_R   0.493957 0.748020 0.865619 -0.010267
C62   C     C_R   0.626679 0.715460 0.896906 -0.067984
C63   C     C_R   0.600371 0.655748 0.931091 -0.083342
C64   C     C_3   0.428699 0.308146 0.713849 0.360943
C65   C     C_3   0.451663 0.286109 0.787605 -0.367004
C66   C     C_R   0.999368 0.951697 0.536505 0.012785
H1    H     H_    0.302113 0.641960 0.285648 0.093751
H2    H     H_    0.173983 0.335204 0.382294 0.007828
H3    H     H_    0.385621 0.331876 0.416648 0.071525
H4    H     H_    0.219449 0.726576 0.200987 0.150127
H5    H     H_    0.201921 0.221503 0.300247 0.123107
H6    H     H_    0.259783 0.208977 0.390874 0.059769
H7    H     H_    0.416108 0.219345 0.331047 0.118419
H8    H     H_    0.505776 0.683858 0.298359 -0.060885
H9    H     H_    0.390726 0.673579 0.172967 0.070276
H10   H     H_    0.633112 0.663644 0.629688 0.017073
H11   H     H_    0.422015 0.672888 0.597031 0.065372
H12   H     H_    0.677985 0.318434 0.213730 0.123189
H13   H     H_    0.623546 0.777345 0.712744 0.119854
H14   H     H_    0.564951 0.791554 0.622573 0.060808
H15   H     H_    0.409701 0.785934 0.684258 0.117625
H16   H     H_    0.424685 0.766616 0.213157 0.107009
H17   H     H_    0.867538 0.848502 0.351855 0.076536
H18   H     H_    0.828247 0.268263 0.623201 0.097271
H19   H     H_    0.037056 0.278609 0.662576 -0.062264
H20   H     H_    0.769717 0.176989 0.701251 0.146170
H21   H     H_    0.936891 0.151483 0.647102 0.075981
H22   H     H_    0.978973 0.187483 0.740301 0.109430
H23   H     H_    0.736285 0.409978 0.206366 0.066377
H24   H     H_    0.295958 0.314698 0.701320 -0.065628
H25   H     H_    0.494922 0.360561 0.715200 0.092406
H26   H     H_    0.403963 0.328184 0.827529 0.069664
H27   H     H_    0.583693 0.279633 0.802241 0.150445
H28   H     H_    0.975254 0.731985 0.376956 0.093882
H29   H     H_    0.383892 0.234379 0.788259 0.107171
H30   H     H_    0.168071 0.345542 0.518503 0.073407
H31   H     H_    0.399027 0.131843 0.589214 0.110533
H32   H     H_    0.098006 0.799500 0.605345 0.096697
H33   H     H_    0.712452 0.200323 0.395025 0.095427
H34   H     H_    0.891389 0.343988 0.210173 0.125430
H35   H     H_    0.408361 0.869035 0.413818 0.112170
H36   H     H_    0.637262 0.655362 0.485808 0.076858
H37   H     H_    0.305770 0.012281 0.586819 0.070954
H38   H     H_    0.196693 0.918073 0.607573 0.056896
H39   H     H_    0.613826 0.081615 0.392796 0.057881
H40   H     H_    0.767036 0.721588 0.336599 -0.064075
H41   H     H_    0.502868 0.988344 0.415320 0.071666
H42   H     H_    0.509377 0.537152 0.823967 0.085902
H43   H     H_    0.526425 0.617847 0.068102 0.063453
H44   H     H_    0.294863 0.457639 0.185070 0.084491
H45   H     H_    0.132995 0.613418 0.696555 0.000795
H46   H     H_    0.257859 0.389862 0.943593 0.066623
H47   H     H_    0.349186 0.400740 0.069670 0.061327
H48   H     H_    0.053356 0.432810 0.860369 0.075712
H49   H     H_    0.732226 0.573617 0.145484 0.075553
H50   H     H_    0.157261 0.466240 0.649667 0.066066
H51   H     H_    0.036506 0.822727 0.298842 0.145523
H52   H     H_    0.650137 0.536454 0.357254 0.073081
H53   H     H_    0.828284 0.812091 0.258603 0.109985
H54   H     H_    0.671799 0.395349 0.330856 0.009071
H55   H     H_    0.881853 0.425542 0.326503 0.068554
H56   H     H_    0.939031 0.569517 0.661514 0.069934
H57   H     H_    0.183889 0.640048 0.903704 0.059448
H58   H     H_    0.232626 0.746717 0.844451 0.056446
H59   H     H_    0.514369 0.794429 0.839411 0.052708
H60   H     H_    0.749992 0.736452 0.894633 0.056958
H61   H     H_    0.704502 0.630705 0.954704 0.064531
H62   H     H_    0.992966 0.679376 0.798291 0.102123
H63   H     H_    0.970336 0.582994 0.793492 0.067247
H64   H     H_    0.802570 0.634023 0.762538 0.139963
O1    O     O_2   0.118870 0.674530 0.547560 -0.464689
O2    O     O_2   0.751468 0.446097 0.745580 -0.491642
O3    O     O_3   0.856565 0.315564 0.729171 -0.598866
O4    O     O_3   0.870460 0.585330 0.542110 -0.490615
O5    O     O_3   0.436130 0.464210 0.414140 -0.489074
O6    O     O_2   0.629420 0.533310 0.672080 -0.463076
O7    O     O_3   0.459078 0.651236 0.700877 -0.641451
O8    O     O_2   0.572485 0.241809 0.532131 -0.495199
O9    O     O_3   0.491994 0.255252 0.663825 -0.605575
O10   O     O_3   0.354280 0.631750 0.418430 -0.484875
O11   O     O_2   0.234848 0.757539 0.468971 -0.492467
O12   O     O_3   0.344360 0.351316 0.312144 -0.636260
O13   O     O_3   0.966366 0.681506 0.661103 -0.643583
O14   O     O_3   0.317717 0.746911 0.338246 -0.608101
O15   O     O_2   0.180880 0.466650 0.327890 -0.464060
O16   O     O_3   0.939000 0.596010 0.380670 -0.488533
O17   O     O_2   0.045576 0.551376 0.252832 -0.490219
O18   O     O_3   0.949475 0.684015 0.271127 -0.600024
O19   O     O_2   0.691430 0.325420 0.452420 -0.469376
O20   O     O_3   0.939830 0.414660 0.457830 -0.491701
O21   O     O_3   0.456020 0.368240 0.581510 -0.478771
O22   O     O_3   0.843689 0.318821 0.339094 -0.641008
O23   O     O_3   0.374170 0.535780 0.585810 -0.475281
O24   O     O_3   0.871300 0.403980 0.619270 -0.486978
P1    P     P_3+3 0.947550 0.663200 0.567530 0.974393
P2    P     P_3+3 0.354660 0.445020 0.336980 0.982908
P3    P     P_3+3 0.910631 0.596637 0.288721 0.944207
P4    P     P_3+3 0.862750 0.336790 0.432410 0.973545
P5    P     P_3+3 0.892432 0.403283 0.711862 0.947082
P6    P     P_3+3 0.370591 0.725021 0.423170 0.935614
P7    P     P_3+3 0.448324 0.557737 0.675042 0.944631
P8    P     P_3+3 0.438104 0.275290 0.578264 0.934026

loop_
_geom_bond_atom_site_label_1
_geom_bond_atom_site_label_2
_ccdc_geom_bond_type
O20   P4    S    
C40   H12   S    
Ba2   O23   S    
C25   C27   A    
C39   C41   A    
C38   P3    S    
C17   C18   A    
C64   O9    S    
C3    H37   S    
C43   C44   A    
C42   C43   A    
C5    C9    A    
C10   C11   A    
O14   P6    S    
C24   C25   A    
C60   C61   A    
C20   H33   S    
C44   H47   S    
C32   C38   A    
C15   C24   A    
C26   C27   A    
C23   O7    S    
C6    H31   S    
C22   C24   A    
C32   C33   A    
C36   C37   A    
O19   P4    D    
C55   C57   S    
O10   P6    S    
C34   H15   S    
C13   C14   A    
C52   H45   S    
C9    C22   A    
C27   H35   S    
Ba1   O20   S    
Ba1   Ba2   S    
C60   H58   S    
C11   H30   S    
Ba1   O23   S    
C35   H44   S    
Ba1   O10   S    
C5    C66   A    
C43   H46   S    
C28   H54   S    
C34   H14   S    
C6    C7    A    
C62   H60   S    
C65   H26   S    
Ba2   O24   S    
C21   C22   A    
C30   H36   S    
C49   P7    S    
O6    P7    D    
C55   H2    S    
Ba1   O4    S    
C7    C8    A    
C57   H5    S    
O11   P6    D    
C36   C46   S    
C45   O3    S    
C64   C65   S    
C29   P6    S    
C48   P5    S    
C65   H27   S    
O3    P5    S    
Ba1   O1    S    
C40   H34   S    
C56   H21   S    
C31   P1    S    
C44   C46   A    
Ba2   O20   S    
C4    C16   S    
C52   C54   S    
C16   H17   S    
O18   P3    S    
O21   P8    S    
C49   C50   A    
Ba2   O6    S    
C45   H18   S    
C37   C38   A    
C3    C5    A    
C19   H32   S    
C64   H24   S    
C16   H53   S    
O23   P7    S    
C37   H49   S    
C2    H38   S    
Ba2   O4    S    
C23   H10   S    
C58   C59   A    
O16   P3    S    
C12   H8    S    
C41   C42   A    
O22   P4    S    
C35   C36   A    
C10   P8    S    
O13   P1    S    
C29   C30   A    
C50   H42   S    
C34   H13   S    
C21   H39   S    
C42   C51   S    
Ba1   P1    S    
C55   H3    S    
C17   C26   A    
O17   P3    D    
C57   H6    S    
C54   H64   S    
C1    C12   S    
C41   C58   S    
C56   H22   S    
C64   H25   S    
C18   C31   A    
O5    P2    S    
O1    P1    D    
C58   C63   A    
Ba2   O21   S    
C4    H28   S    
C52   O13   S    
C12   H1    S    
Ba1   O15   S    
O4    P1    S    
O12   P2    S    
C1    H9    S    
C57   H7    S    
Ba1   O5    S    
C50   C51   A    
C2    C66   A    
Ba2   O19   S    
C52   H56   S    
Ba1   P2    S    
C15   C66   A    
C14   C20   A    
C55   O12   S    
C33   C35   A    
C23   H11   S    
Ba2   O5    S    
C26   C29   A    
C56   H20   S    
O24   P5    S    
C3    C6    A    
C63   H61   S    
O8    P8    D    
C12   O14   S    
C48   C53   A    
O2    P5    D    
C30   C31   A    
C11   C13   A    
C1    H4    S    
C33   P2    S    
C13   P4    S    
C8    C14   A    
C62   C63   A    
C45   C56   S    
C2    C19   A    
C32   H52   S    
C47   C51   A    
O7    P7    S    
C15   C17   A    
C39   C46   A    
C49   C53   A    
C59   C60   A    
C7    C10   A    
C54   H62   S    
C54   H63   S    
C8    C9    A    
C65   H29   S    
C23   C34   S    
C61   C62   A    
C4    O18   S    
C28   O22   S    
C47   H48   S    
C18   C19   A    
C25   H41   S    
O9    P8    S    
Ba2   P4    S    
C47   C48   A    
C39   H43   S    
C1    H16   S    
C28   H55   S    
C4    H40   S    
C20   C21   A    
C28   C40   S    
Ba1   O16   S    
C59   H57   S    
O15   P2    D    
C16   H51   S    
C61   H59   S    
C40   H23   S    
C45   H19   S    
C53   H50   S    
