data_mof_unit_20031.cif
_audit_creation_date              2012-12-10T16:56:33-0500
_audit_creation_method            fapswitch 2.2
_symmetry_space_group_name_H-M    P1
_symmetry_Int_Tables_number       1
_space_group_crystal_system       triclinic
_cell_length_a                    10.796272
_cell_length_b                    10.966904
_cell_length_c                    9.750805
_cell_angle_alpha                 88.549716
_cell_angle_beta                  90.714169
_cell_angle_gamma                 87.483993
_cell_volume                      1152.92272549

loop_
_atom_site_label
_atom_site_type_symbol
_atom_type_description
_atom_site_fract_x
_atom_site_fract_y
_atom_site_fract_z
_atom_type_partial_charge
C1    C     C_R   0.503314 0.265849 0.501535 0.914119
C2    C     C_3   0.878767 0.502284 0.502836 -0.127699
C3    C     C_3   0.931153 0.531189 0.649137 0.326318
C4    C     C_3   0.921720 0.602779 0.400578 -0.428071
C5    C     C_2   0.545023 0.936920 0.405247 0.151120
C6    C     C_2   0.477990 0.866438 0.492127 -0.001505
C7    C     C_2   0.519436 0.068922 0.394279 -0.211418
C8    C     C_2   0.523173 0.134934 0.506950 -0.253505
C9    C     C_2   0.506934 0.406468 0.932820 0.475493
C10   C     C_2   0.456035 0.417608 0.073001 0.163879
C11   C     C_R   0.260089 0.503635 0.499317 0.754295
C12   C     C_R   0.499466 0.734457 0.498206 0.861046
C13   C     C_R   0.740238 0.500355 0.500843 0.866245
C14   C     C_3   0.080294 0.383142 0.441401 -0.416504
C15   C     C_3   0.937739 0.376994 0.451524 0.243054
C16   C     C_3   0.073640 0.515907 0.648174 -0.386313
C17   C     C_3   0.064380 0.609909 0.407101 -0.377565
C18   C     C_3   0.122383 0.504100 0.498993 0.022666
Cu1   Cu    Cu3+1 0.500030 0.500020 0.638630 1.060732
Cu2   Cu    Cu3+1 0.499970 0.499980 0.361370 0.961754
H1    H     H_    0.129811 0.305583 0.497737 0.208504
H2    H     H_    0.877149 0.693176 0.422720 0.228485
H3    H     H_    0.117050 0.593208 0.699208 0.215555
H4    H     H_    0.508369 0.111759 0.293017 0.191142
H5    H     H_    0.543910 0.090723 0.606050 0.218532
H6    H     H_    0.449952 0.574308 0.882272 0.163685
H7    H     H_    0.107624 0.376055 0.332034 0.159698
H8    H     H_    0.564559 0.553062 0.110921 0.190468
H9    H     H_    0.900768 0.362621 0.346295 0.129017
H10   H     H_    0.103283 0.432767 0.710010 0.190830
H11   H     H_    0.896040 0.464551 0.725109 0.190518
H12   H     H_    0.088006 0.698823 0.448525 0.212783
H13   H     H_    0.101861 0.605878 0.301427 0.188745
H14   H     H_    0.893128 0.581608 0.294022 0.189958
N1    N     N_2   0.498630 0.498660 0.846910 -0.338245
N2    N     N_2   0.498590 0.498630 0.153040 -0.312673
O1    O     O_R   0.500020 0.321960 0.617040 -0.503791
O2    O     O_R   0.499980 0.321920 0.382900 -0.592616
O3    O     O_R   0.317710 0.500000 0.617070 -0.606962
O4    O     O_R   0.317670 0.499960 0.382930 -0.596853
O5    O     O_R   0.500020 0.678080 0.617100 -0.550167
O6    O     O_R   0.499980 0.678040 0.382960 -0.608893
O7    O     O_R   0.682330 0.500040 0.617070 -0.493194
O8    O     O_R   0.682290 0.500000 0.382930 -0.595528
S1    S     S_3+6 0.885491 0.680988 0.713487 -0.026826
O9    O     O_2   0.969344 0.776455 0.659761 -0.327370
O10   O     O_2   0.754367 0.719374 0.674558 -0.300395
O11   O     O_3   0.898295 0.673427 0.885563 -0.538500
H15   H     H_    0.874403 0.756667 0.915749 0.374991
C19   C     C_3   0.651997 0.888237 0.318138 -0.453390
C20   C     C_3   0.772138 0.950997 0.350498 -0.646940
H16   H     H_    0.763254 0.049693 0.321916 0.287015
H17   H     H_    0.795423 0.939894 0.461566 0.306803
H18   H     H_    0.849216 0.909128 0.290860 0.219313
H19   H     H_    0.673398 0.789357 0.333264 0.213367
H20   H     H_    0.627589 0.904671 0.207970 0.213833
C21   C     C_3   0.370441 0.915892 0.579137 -0.446973
C22   C     C_3   0.250825 0.851914 0.550855 -0.772815
H21   H     H_    0.229398 0.855950 0.439060 0.243380
H22   H     H_    0.258951 0.755624 0.588459 0.239895
H23   H     H_    0.173329 0.898505 0.605524 0.296779
H24   H     H_    0.395847 0.903323 0.689537 0.238667
H25   H     H_    0.345743 0.013616 0.560403 0.230277
S2    S     S_3+6 0.596432 0.272105 0.902385 0.023813
O12   O     O_2   0.514248 0.176731 0.848325 -0.341668
O13   O     O_2   0.697037 0.297844 0.802641 -0.210043
O14   O     O_3   0.661327 0.219925 0.051560 -0.563550
H26   H     H_    0.700392 0.139169 0.030734 0.369373
C23   C     C_3   0.359281 0.329682 0.117392 -0.331249
C24   C     C_3   0.242953 0.345608 0.026775 -0.865358
H27   H     H_    0.203724 0.440791 0.031268 0.256869
H28   H     H_    0.264499 0.324289 0.918638 0.271232
H29   H     H_    0.172109 0.282544 0.063650 0.261069
H30   H     H_    0.397626 0.234499 0.110478 0.226295
H31   H     H_    0.330370 0.342887 0.223799 0.245670
S3    S     S_3+6 0.902498 0.241596 0.549307 -0.023193
O15   O     O_2   0.765596 0.226780 0.548391 -0.288550
O16   O     O_2   0.963855 0.133210 0.482271 -0.312409
O17   O     O_3   0.955579 0.246176 0.711829 -0.545975
H32   H     H_    0.936694 0.166027 0.753775 0.399427

loop_
_geom_bond_atom_site_label_1
_geom_bond_atom_site_label_2
_ccdc_geom_bond_type
C11   C18   S    
C9    S2    S    
C14   C18   S    
Cu1   Cu2   S    
S3    O17   S    
C7    C8    D    
S1    O9    D    
C14   H1    S    
S3    O16   D    
C6    C12   S    
C5    C6    D    
C11   O3    A    
C22   H22   S    
C7    H4    S    
C1    C8    S    
C4    H2    S    
C2    C13   S    
C12   O6    A    
Cu1   O1    S    
C15   H9    S    
C24   H27   S    
C14   H7    S    
C9    C10   S    
C1    O1    A    
C22   H23   S    
C15   S3    S    
C8    H5    S    
C6    C21   S    
C23   C24   S    
C17   H13   S    
Cu2   O8    S    
Cu1   O7    S    
C21   H25   S    
S1    O10   D    
C4    H14   S    
C24   H28   S    
C20   H16   S    
S2    O14   S    
C21   H24   S    
S3    O15   D    
C5    C7    S    
C19   C20   S    
C22   H21   S    
C3    S1    S    
C19   H20   S    
O14   H26   S    
C20   H17   S    
S2    O13   D    
C2    C4    S    
C12   O5    A    
Cu2   O2    S    
C24   H29   S    
C17   C18   S    
C23   H30   S    
C3    H11   S    
C2    C15   S    
Cu1   O3    S    
C1    O2    A    
C4    C17   S    
O11   H15   S    
C16   H3    S    
C5    C19   S    
C13   O7    A    
S1    O11   S    
Cu2   O6    S    
C19   H19   S    
C20   H18   S    
S2    O12   D    
C2    C3    S    
Cu1   N1    S    
C21   C22   S    
Cu2   O4    S    
C23   H31   S    
C11   O4    A    
O17   H32   S    
Cu2   N2    S    
C10   C23   S    
H6    N1    S    
H8    N2    S    
C16   C18   S    
C9    N1    D    
C17   H12   S    
C14   C15   S    
C10   N2    D    
C16   H10   S    
C13   O8    A    
C3    C16   S    
Cu1   O5    S    
