data_mof_unit_66328.cif
_audit_creation_date              2012-12-11T18:22:02-0500
_audit_creation_method            fapswitch 2.2
_symmetry_space_group_name_H-M    P1
_symmetry_Int_Tables_number       1
_space_group_crystal_system       triclinic
_cell_length_a                    8.198685
_cell_length_b                    14.424303
_cell_length_c                    14.897923
_cell_angle_alpha                 95.482145
_cell_angle_beta                  97.547923
_cell_angle_gamma                 91.434971
_cell_volume                      1737.3166929

loop_
_atom_site_label
_atom_site_type_symbol
_atom_type_description
_atom_site_fract_x
_atom_site_fract_y
_atom_site_fract_z
_atom_type_partial_charge
Ba1   Ba    Ba6+2 0.833400 0.543310 0.453520 1.652040
Ba2   Ba    Ba6+2 0.356420 0.456770 0.546480 1.681250
Br1   Br    Br    0.286276 0.947980 0.646185 -0.719295
Br2   Br    Br    0.269121 0.297102 0.900056 -0.520084
Br3   Br    Br    0.954357 0.170676 0.953518 -0.593023
Br4   Br    Br    0.367861 0.089386 0.328609 -0.649388
C1    C     C_3   0.578031 0.883251 0.206816 -0.327079
C2    C     C_R   0.907782 0.445783 0.924488 -0.021950
C3    C     C_R   0.045404 0.461928 0.111646 -0.035201
C4    C     C_3   0.025379 0.735265 0.195960 0.355021
C5    C     C_R   0.898605 0.409698 0.080383 0.019076
C6    C     C_R   0.829080 0.403954 0.989485 -0.037671
C7    C     C_R   0.112529 0.473044 0.205511 0.031544
C8    C     C_R   0.261381 0.523683 0.231503 -0.306928
C9    C     C_R   0.077212 0.525095 0.793601 0.078053
C10   C     C_R   0.142542 0.537718 0.887772 -0.002894
C11   C     C_R   0.059448 0.495871 0.952868 0.049081
C12   C     C_3   0.556356 0.788111 0.240429 0.318534
C13   C     C_R   0.289237 0.590115 0.919120 -0.037359
C14   C     C_R   0.358622 0.595929 0.010020 -0.093865
C15   C     C_R   0.280394 0.553712 0.074942 -0.024103
C16   C     C_3   0.997404 0.761331 0.098727 -0.355051
C17   C     C_R   0.127799 0.504460 0.046706 0.028153
C18   C     C_R   0.349207 0.560215 0.167528 -0.002166
C19   C     C_R   0.929300 0.473437 0.767488 -0.277524
C20   C     C_R   0.702340 0.937363 0.544591 -0.016705
C21   C     C_R   0.507251 0.799893 0.499460 0.057034
C22   C     C_R   0.352711 0.765760 0.456031 -0.278834
C23   C     C_3   0.454601 0.327696 0.274430 0.312840
C24   C     C_R   0.240479 0.825561 0.416461 0.023771
C25   C     C_R   0.284987 0.917462 0.413031 -0.053591
C26   C     C_R   0.444277 0.952834 0.448361 0.027533
C27   C     C_R   0.553579 0.895994 0.498118 -0.021026
C28   C     C_3   0.246424 0.752524 0.667810 0.292082
C29   C     C_R   0.638470 0.088059 0.485799 -0.028896
C30   C     C_R   0.744612 0.031974 0.539825 -0.025846
C31   C     C_R   0.683994 0.185043 0.489008 0.035536
C32   C     C_R   0.829664 0.221364 0.541349 -0.289909
C33   C     C_R   0.940204 0.164262 0.585341 -0.008717
C34   C     C_3   0.427606 0.305632 0.171401 -0.296836
C35   C     C_R   0.895702 0.070238 0.587085 -0.132758
C36   C     C_R   0.492218 0.044093 0.434456 0.244718
C37   C     C_3   0.317161 0.845039 0.719137 -0.032400
C38   C     C_3   0.978683 0.255473 0.354041 0.322595
C39   C     C_3   0.932756 0.152247 0.329419 -0.347400
C40   C     C_3   0.731886 0.667635 0.721648 0.301302
C41   C     C_3   0.765449 0.695264 0.823775 -0.396551
C42   C     C_3   0.129325 0.218658 0.806079 0.598613
C43   C     C_3   0.063212 0.134690 0.847625 0.086373
C44   C     C_3   0.627702 0.208185 0.746107 0.424973
C45   C     C_3   0.601258 0.109266 0.770567 -0.289395
C46   C     C_R   0.840714 0.437560 0.831610 -0.020452
H1    H     H_    0.636772 0.787071 0.306314 0.091810
H2    H     H_    0.639077 0.609016 0.709022 0.066443
H3    H     H_    0.704660 0.893209 0.189760 0.159365
H4    H     H_    0.864321 0.750752 0.838990 0.137578
H5    H     H_    0.804703 0.634437 0.860185 0.045767
H6    H     H_    0.651825 0.721430 0.849015 0.114978
H7    H     H_    0.425696 0.777930 0.250837 -0.051314
H8    H     H_    0.557975 0.938314 0.260809 0.115928
H9    H     H_    0.333607 0.336010 0.298983 0.017126
H10   H     H_    0.530543 0.393401 0.291421 0.048355
H11   H     H_    0.347617 0.241609 0.152472 0.184372
H12   H     H_    0.450053 0.840014 0.743411 0.106679
H13   H     H_    0.367877 0.363690 0.138107 0.071058
H14   H     H_    0.547623 0.294502 0.145834 0.132778
H15   H     H_    0.488061 0.889717 0.145359 0.127146
H16   H     H_    0.031418 0.703082 0.051367 0.057124
H17   H     H_    0.025810 0.261400 0.780137 -0.079123
H18   H     H_    0.166376 0.089763 0.869199 0.123259
H19   H     H_    0.974829 0.092822 0.795651 0.012147
H20   H     H_    0.755997 0.216841 0.731523 -0.114144
H21   H     H_    0.541159 0.216779 0.683895 0.090005
H22   H     H_    0.620766 0.058526 0.712554 0.089391
H23   H     H_    0.254057 0.863079 0.779783 0.128414
H24   H     H_    0.474907 0.098267 0.787075 0.192807
H25   H     H_    0.688059 0.095335 0.830492 0.153045
H26   H     H_    0.834159 0.372618 0.125404 0.111709
H27   H     H_    0.714191 0.364273 0.970870 0.138460
H28   H     H_    0.474049 0.634982 0.028399 0.105827
H29   H     H_    0.354539 0.626725 0.874124 0.091593
H30   H     H_    0.314264 0.530347 0.302372 0.073210
H31   H     H_    0.877653 0.465564 0.696422 0.061679
H32   H     H_    0.316273 0.693295 0.457093 0.069702
H33   H     H_    0.190649 0.960981 0.383981 0.127975
H34   H     H_    0.878871 0.289742 0.385954 -0.010685
H35   H     H_    0.978605 0.026844 0.625093 0.135239
H36   H     H_    0.157635 0.720873 0.212991 -0.067180
H37   H     H_    0.862391 0.294839 0.543864 0.051102
H38   H     H_    0.785705 0.897204 0.586425 0.113204
H39   H     H_    0.865708 0.775760 0.079348 0.145421
H40   H     H_    0.074341 0.824268 0.092497 0.132077
H41   H     H_    0.346265 0.713622 0.640251 0.001673
H42   H     H_    0.150147 0.765093 0.610957 0.071212
H43   H     H_    0.949283 0.671221 0.199469 0.089386
H44   H     H_    0.093899 0.262574 0.402442 0.080098
H45   H     H_    0.803822 0.143395 0.295234 0.141151
H46   H     H_    0.945465 0.114685 0.391351 0.070884
H47   H     H_    0.014814 0.120479 0.282447 0.188940
H48   H     H_    0.847102 0.645169 0.696735 0.022232
O1    O     O_2   0.841230 0.444160 0.280430 -0.467457
O2    O     O_2   0.271331 0.169109 0.571264 -0.436305
O3    O     O_3   0.227634 0.185869 0.739769 -0.597697
O4    O     O_3   0.112860 0.447350 0.393710 -0.504151
O5    O     O_3   0.560610 0.613730 0.540770 -0.496725
O6    O     O_2   0.387460 0.270290 0.467210 -0.441471
O7    O     O_3   0.535468 0.253409 0.312169 -0.589066
O8    O     O_2   0.499439 0.445047 0.829018 -0.442249
O9    O     O_3   0.597757 0.272612 0.818564 -0.540195
O10   O     O_3   0.597940 0.615700 0.327690 -0.490887
O11   O     O_2   0.688940 0.547203 0.171596 -0.494235
O12   O     O_3   0.674330 0.745052 0.678888 -0.638464
O13   O     O_3   0.001290 0.295207 0.274592 -0.616996
O14   O     O_3   0.601502 0.719622 0.175803 -0.608239
O15   O     O_2   0.802240 0.729740 0.532850 -0.460408
O16   O     O_3   0.017180 0.664790 0.371080 -0.491468
O17   O     O_2   0.902450 0.829580 0.420503 -0.485460
O18   O     O_3   0.978901 0.808973 0.254883 -0.599302
O19   O     O_2   0.348480 0.555870 0.719620 -0.479970
O20   O     O_3   0.076830 0.552730 0.606300 -0.490790
O21   O     O_3   0.591760 0.384380 0.672320 -0.497480
O22   O     O_3   0.173840 0.704146 0.729897 -0.669332
O23   O     O_3   0.629090 0.386350 0.459240 -0.486930
O24   O     O_3   0.172520 0.335290 0.628920 -0.467054
P1    P     P_3+3 0.018600 0.416790 0.295970 0.980765
P2    P     P_3+3 0.635660 0.716530 0.560900 0.975581
P3    P     P_3+3 0.033772 0.783761 0.367296 0.965994
P4    P     P_3+3 0.171090 0.583290 0.704030 0.973242
P5    P     P_3+3 0.148360 0.213912 0.631122 0.994847
P6    P     P_3+3 0.558573 0.609714 0.209591 0.933951
P7    P     P_3+3 0.559808 0.271276 0.431273 1.002059
P8    P     P_3+3 0.632871 0.385847 0.789542 1.002763

loop_
_geom_bond_atom_site_label_1
_geom_bond_atom_site_label_2
_ccdc_geom_bond_type
C25   H33   S    
C40   O12   S    
C22   H32   S    
C13   C14   A    
O2    P5    D    
C1    H3    S    
C42   H17   S    
C12   O14   S    
C45   H25   S    
C33   C35   A    
Ba2   O23   S    
C21   C27   A    
C32   H37   S    
Br1   C37   S    
C11   C17   A    
C34   H11   S    
O5    P2    S    
C38   H44   S    
C29   C31   A    
Ba1   P1    S    
O15   P2    D    
C39   H46   S    
C32   C33   A    
C21   P2    S    
C9    C19   A    
O13   P1    S    
C9    C10   A    
C6    H27   S    
Ba1   Ba2   S    
C40   C41   S    
C8    C18   A    
C29   C36   A    
C3    C7    A    
C44   H20   S    
O11   P6    D    
C12   H1    S    
C23   H10   S    
O4    P1    S    
C29   C30   A    
C10   C11   A    
O16   P3    S    
O1    P1    D    
C16   H39   S    
C28   H41   S    
Ba1   O16   S    
C2    C46   A    
O12   P2    S    
C7    P1    S    
O19   P4    D    
C28   O22   S    
C34   H14   S    
C7    C8    A    
O14   P6    S    
Br3   C43   S    
C30   C35   A    
C38   H34   S    
C37   H12   S    
C37   H23   S    
O6    P7    D    
C35   H35   S    
C23   H9    S    
C14   H28   S    
C46   P8    S    
Ba1   P2    S    
O7    P7    S    
C39   H47   S    
C44   H21   S    
Ba2   O20   S    
C3    C17   A    
C33   P5    S    
C42   O3    S    
Ba2   O6    S    
C44   O9    S    
C4    C16   S    
C31   P7    S    
C45   H22   S    
Ba1   O20   S    
Ba1   O23   S    
C31   C32   A    
C4    O18   S    
C5    H26   S    
Ba1   O10   S    
C41   H5    S    
O3    P5    S    
C20   C27   A    
C25   C26   A    
Ba2   O4    S    
C2    C6    A    
C1    C12   S    
C4    H36   S    
C40   H2    S    
O9    P8    S    
C44   C45   S    
C45   H24   S    
O17   P3    D    
Ba1   O4    S    
C16   H16   S    
C20   C30   A    
C42   C43   S    
C38   O13   S    
C34   H13   S    
C3    C5    A    
C43   H19   S    
O18   P3    S    
C8    H30   S    
O21   P8    S    
Ba1   O1    S    
C1    H8    S    
C38   C39   S    
Br2   C42   S    
Ba2   O21   S    
C40   H48   S    
C24   P3    S    
C26   C36   A    
O23   P7    S    
C28   C37   S    
C28   H42   S    
Ba2   O19   S    
O20   P4    S    
Ba2   O24   S    
C20   H38   S    
Ba2   O5    S    
C2    C11   A    
C43   H18   S    
C26   C27   A    
C15   C17   A    
C19   C46   A    
C39   H45   S    
C41   H6    S    
C9    P4    S    
C24   C25   A    
C4    H43   S    
C10   C13   A    
C23   C34   S    
C22   C24   A    
O24   P5    S    
O10   P6    S    
O22   P4    S    
O8    P8    D    
C1    H15   S    
C18   P6    S    
C12   H7    S    
C14   C15   A    
Br4   C36   S    
C15   C18   A    
C21   C22   A    
C19   H31   S    
C16   H40   S    
C23   O7    S    
Ba1   O15   S    
C13   H29   S    
C5    C6    A    
Ba1   O5    S    
C41   H4    S    
Ba2   P4    S    
