data_mof_unit_55805.cif
_audit_creation_date              2012-10-26T20:43:02-0400
_audit_creation_method            fapswitch 2.2
_symmetry_space_group_name_H-M    P1
_symmetry_Int_Tables_number       1
_space_group_crystal_system       triclinic
_cell_length_a                    10.833818
_cell_length_b                    9.514845
_cell_length_c                    15.066302
_cell_angle_alpha                 89.968579
_cell_angle_beta                  90.143703
_cell_angle_gamma                 89.99055
_cell_volume                      1553.06089495

loop_
_atom_site_label
_atom_site_type_symbol
_atom_type_description
_atom_site_fract_x
_atom_site_fract_y
_atom_site_fract_z
_atom_type_partial_charge
C1    C     C_R   0.262048 0.500006 0.499915 0.550617
C2    C     C_R   0.128210 0.500006 0.499882 0.020042
C3    C     C_R   0.424629 0.074501 0.443821 0.009036
C4    C     C_R   0.575344 0.925501 0.556198 0.009467
C5    C     C_R   0.575348 0.074364 0.556192 0.008609
C6    C     C_R   0.424619 0.925638 0.443832 0.008863
C7    C     C_R   0.499942 0.499989 0.328646 0.549657
C8    C     C_R   0.500378 0.499960 0.671352 0.550133
C9    C     C_R   0.548572 0.616095 0.814058 -0.136900
C10   C     C_R   0.457263 0.381866 0.185881 -0.136515
C11   C     C_R   0.502181 0.499704 0.768052 -0.011885
C12   C     C_R   0.737952 0.499993 0.500063 0.550443
C13   C     C_R   0.500970 0.499513 0.231941 -0.012892
C14   C     C_R   0.458168 0.382727 0.814228 -0.141978
C15   C     C_R   0.546709 0.615732 0.185838 -0.138978
C16   C     C_R   0.458209 0.381991 0.906569 -0.020838
C17   C     C_R   0.549709 0.615067 0.093469 -0.021109
C18   C     C_R   0.505746 0.498470 0.953412 0.025302
C19   C     C_R   0.504823 0.497227 0.046602 0.024415
C20   C     C_R   0.553534 0.616173 0.907014 0.023377
C21   C     C_R   0.458675 0.378620 0.092958 0.026187
C22   C     C_R   0.411622 0.265856 0.952350 -0.108167
C23   C     C_R   0.413198 0.261564 0.044914 0.135263
C24   C     C_R   0.598438 0.730154 0.047680 -0.089888
C25   C     C_3   0.239926 0.131486 0.102710 -0.309411
C26   C     C_3   0.583679 0.969290 0.901548 -0.312486
C27   C     C_R   0.602849 0.731232 0.955057 0.143889
C28   C     C_R   0.063870 0.372280 0.499633 -0.141492
C29   C     C_R   0.936131 0.627716 0.500282 -0.141034
C30   C     C_R   0.936171 0.372273 0.499746 -0.139972
C31   C     C_R   0.063829 0.627723 0.500171 -0.139690
C32   C     C_R   0.871790 0.499991 0.500054 0.020133
Cu1   Cu    Cu3+1 0.500000 0.640660 0.500000 0.933140
Cu2   Cu    Cu3+1 0.500000 0.359340 0.500000 0.932334
H1    H     H_    0.580400 0.705822 0.776459 0.123267
H2    H     H_    0.111842 0.727581 0.500339 0.127404
H3    H     H_    0.364259 0.130686 0.398824 0.102074
H4    H     H_    0.635692 0.869317 0.601210 0.102386
H5    H     H_    0.635719 0.130441 0.601182 0.106985
H6    H     H_    0.364216 0.869560 0.398866 0.107324
H7    H     H_    0.423632 0.103969 0.140914 0.242804
H8    H     H_    0.212054 0.215270 0.149957 0.140100
H9    H     H_    0.214985 0.027756 0.131298 0.142045
H10   H     H_    0.188936 0.144895 0.039170 0.161390
H11   H     H_    0.713267 0.823034 0.857348 0.244272
H12   H     H_    0.419694 0.294981 0.223404 0.123524
H13   H     H_    0.638334 0.056541 0.872450 0.143381
H14   H     H_    0.548029 0.004073 0.966969 0.182321
H15   H     H_    0.505111 0.945017 0.856531 0.139022
H16   H     H_    0.421931 0.293015 0.778197 0.122375
H17   H     H_    0.581575 0.706032 0.221968 0.123613
H18   H     H_    0.375373 0.176526 0.916012 0.116999
H19   H     H_    0.635381 0.819123 0.084040 0.123936
H20   H     H_    0.111915 0.272425 0.499360 0.126526
H21   H     H_    0.888086 0.727571 0.500551 0.126641
H22   H     H_    0.888157 0.272415 0.499577 0.127441
N1    N     N_R   0.500000 0.852070 0.500000 -0.224248
N2    N     N_R   0.500000 0.147930 0.500000 -0.224199
N3    N     N_2   0.371488 0.136774 0.087481 -0.537307
N4    N     N_2   0.661263 0.847010 0.912465 -0.528714
O1    O     O_R   0.319640 0.618740 0.499990 -0.507177
O2    O     O_R   0.680360 0.381260 0.500010 -0.507268
O3    O     O_R   0.680360 0.618740 0.500010 -0.510261
O4    O     O_R   0.319640 0.381260 0.499990 -0.510111
O5    O     O_R   0.499970 0.618800 0.370260 -0.505846
O6    O     O_R   0.500030 0.381200 0.629740 -0.506466
O7    O     O_R   0.500030 0.618800 0.629740 -0.505708
O8    O     O_R   0.499970 0.381200 0.370260 -0.506197

loop_
_geom_bond_atom_site_label_1
_geom_bond_atom_site_label_2
_ccdc_geom_bond_type
C4    N1    A    
C25   H8    S    
C23   N3    S    
C1    O4    A    
H11   N4    S    
C8    O6    A    
C25   N3    S    
C20   C27   A    
C15   H17   S    
C7    O5    A    
C2    C28   A    
C9    C20   A    
C24   C27   A    
C26   H14   S    
Cu1   O3    S    
C3    C6    A    
Cu2   O6    S    
C28   C30   A    
Cu1   Cu2   S    
C7    O8    A    
Cu1   O5    S    
C29   C32   A    
C29   C31   A    
Cu2   O2    S    
C12   C32   S    
C30   C32   A    
C9    C11   A    
C6    N1    A    
C25   H9    S    
C22   C23   A    
C14   H16   S    
C26   N4    S    
C26   H13   S    
C8    C11   S    
C5    N2    A    
C25   H10   S    
Cu1   O1    S    
C17   C19   A    
C4    H4    S    
Cu2   O4    S    
C18   C19   A    
C22   H18   S    
C18   C20   A    
C27   N4    S    
C13   C15   A    
C21   C23   A    
C11   C14   A    
C14   C16   A    
C17   C24   A    
H7    N3    S    
C9    H1    S    
C3    N2    A    
C5    H5    S    
C10   H12   S    
C7    C13   S    
C6    H6    S    
C12   O2    A    
Cu1   O7    S    
C8    O7    A    
C16   C18   A    
C1    C2    S    
C26   H15   S    
Cu2   O8    S    
Cu2   N2    S    
C12   O3    A    
C28   H20   S    
C31   H2    S    
C2    C31   A    
Cu1   N1    S    
C29   H21   S    
C19   C21   A    
C24   H19   S    
C15   C17   A    
C30   H22   S    
C10   C21   A    
C3    H3    S    
C16   C22   A    
C4    C5    A    
C10   C13   A    
C1    O1    A    
