data_mof_unit_50621.cif
_audit_creation_date              2012-10-26T20:03:17-0400
_audit_creation_method            fapswitch 2.2
_symmetry_space_group_name_H-M    P1
_symmetry_Int_Tables_number       1
_space_group_crystal_system       triclinic
_cell_length_a                    10.604619
_cell_length_b                    12.333414
_cell_length_c                    13.132462
_cell_angle_alpha                 116.563922
_cell_angle_beta                  77.711261
_cell_angle_gamma                 100.963701
_cell_volume                      1492.19544305

loop_
_atom_site_label
_atom_site_type_symbol
_atom_type_description
_atom_site_fract_x
_atom_site_fract_y
_atom_site_fract_z
_atom_type_partial_charge
C1    C     C_R   0.516375 0.854765 0.285723 0.552782
C2    C     C_R   0.508276 0.565103 0.007871 0.022370
C3    C     C_R   0.467215 0.652040 0.120547 -0.012486
C4    C     C_R   0.740344 0.999099 0.499610 0.555182
C5    C     C_R   0.459408 0.440392 0.975073 0.040107
C6    C     C_R   0.360421 0.405928 0.049855 0.051497
C7    C     C_R   0.310028 0.494827 0.154559 -0.133636
C8    C     C_R   0.361283 0.616124 0.188837 -0.118875
C9    C     C_R   0.506866 0.348461 0.870036 -0.129713
C10   C     C_R   0.354951 0.194350 0.909857 -0.128699
C11   C     C_R   0.532422 0.772581 0.161247 0.003555
C12   C     C_3   0.018097 0.013180 0.602832 -0.121174
C13   C     C_R   0.713170 0.350361 0.334558 -0.138293
C14   C     C_R   0.323038 0.759072 0.644422 0.055195
C15   C     C_R   0.283795 0.662071 0.675130 -0.156576
C16   C     C_R   0.479988 0.144961 0.713561 0.541040
C17   C     C_R   0.349994 0.558626 0.620384 -0.136154
C18   C     C_R   0.457194 0.551048 0.533833 -0.003672
C19   C     C_R   0.494032 0.653116 0.505457 0.181751
C20   C     C_R   0.529685 0.446997 0.475089 -0.012636
C21   C     C_R   0.638206 0.448584 0.391203 0.032731
C22   C     C_R   0.672050 0.548399 0.364597 -0.174091
C23   C     C_3   0.933663 0.905974 0.521188 -0.113980
C24   C     C_R   0.601310 0.647919 0.419952 -0.097494
C25   C     C_R   0.500205 0.340785 0.495701 0.037931
C26   C     C_R   0.680411 0.250107 0.360318 0.073445
C27   C     C_R   0.259699 0.000511 0.499841 0.542951
C28   C     C_3   0.981916 0.985746 0.395898 -0.123068
C29   C     C_3   0.040825 0.893777 0.417556 -0.127034
C30   C     C_3   0.122925 0.000958 0.499228 0.044735
C31   C     C_3   0.066365 0.092957 0.477532 -0.113853
C32   C     C_3   0.959271 0.105157 0.581178 -0.122713
C33   C     C_3   0.877134 0.998050 0.499556 0.044060
C34   C     C_R   0.310672 0.282974 0.017540 -0.125575
C35   C     C_R   0.451061 0.227974 0.834890 -0.000181
C36   C     C_R   0.623858 0.808387 0.082840 0.230468
C37   C     C_R   0.650048 0.726259 0.968619 -0.094875
C38   C     C_R   0.595157 0.606282 0.931504 -0.168012
Cl1   Cl    Cl    0.715462 0.952441 0.121752 -0.657265
Cu1   Cu    Cu3+1 0.529830 0.098270 0.475420 0.965828
Cu2   Cu    Cu3+1 0.470170 0.901730 0.524580 0.916921
H1    H     H_    0.077583 0.807474 0.350596 0.106443
H2    H     H_    0.271023 0.838938 0.687359 0.126114
H3    H     H_    0.963646 0.974332 0.311307 0.140652
H4    H     H_    0.315688 0.486496 0.647861 0.099579
H5    H     H_    0.201780 0.667099 0.741646 0.107859
H6    H     H_    0.635045 0.719160 0.392874 0.184169
H7    H     H_    0.123358 0.169561 0.459729 0.123488
H8    H     H_    0.922580 0.191464 0.648165 0.113032
H9    H     H_    0.036274 0.024588 0.687447 0.113598
H10   H     H_    0.876585 0.829318 0.538868 0.125723
H11   H     H_    0.310150 0.101129 0.883285 0.124785
H12   H     H_    0.586407 0.367827 0.812109 0.116342
H13   H     H_    0.230631 0.470541 0.210459 0.105999
H14   H     H_    0.234595 0.256078 0.074019 0.114884
H15   H     H_    0.621154 0.548775 0.841589 0.109210
H16   H     H_    0.717811 0.754436 0.908279 0.153426
H17   H     H_    0.314280 0.681351 0.268434 0.144460
H18   H     H_    0.739671 0.175432 0.318879 0.182404
H19   H     H_    0.754585 0.549815 0.300052 0.110975
H20   H     H_    0.797242 0.351548 0.271350 0.104613
H21   H     H_    0.418925 0.331262 0.557236 0.117839
N1    N     N_R   0.575030 0.246270 0.438190 -0.237290
N2    N     N_R   0.425760 0.754330 0.561190 -0.235690
O1    O     O_R   0.537510 0.972500 0.318130 -0.431620
O2    O     O_R   0.487140 0.806530 0.359650 -0.538935
O3    O     O_R   0.708330 0.082950 0.479220 -0.499608
O4    O     O_R   0.657960 0.916980 0.520740 -0.523682
O5    O     O_R   0.512860 0.193470 0.640350 -0.513770
O6    O     O_R   0.462490 0.027500 0.681870 -0.500873
O7    O     O_R   0.342040 0.083020 0.479260 -0.509640
O8    O     O_R   0.291670 0.917050 0.520780 -0.516978

loop_
_geom_bond_atom_site_label_1
_geom_bond_atom_site_label_2
_ccdc_geom_bond_type
Cu1   O7    S    
C29   H1    S    
C1    C11   S    
C10   H11   S    
C7    C8    A    
C12   C23   S    
C37   C38   A    
Cu1   N1    S    
C23   C29   S    
C36   C37   A    
C17   H4    S    
C16   C35   S    
C22   H19   S    
C5    C6    A    
C20   C25   A    
C18   C19   A    
C25   N1    A    
C8    H17   S    
C23   C33   S    
Cu1   O3    S    
C1    O1    A    
C10   C35   A    
C15   H5    S    
C26   H18   S    
C34   H14   S    
C21   C22   A    
C12   C32   S    
C27   C30   S    
C13   H20   S    
C17   C18   A    
Cu2   O4    S    
C28   C31   S    
Cu1   O5    S    
C16   O6    A    
C3    C8    A    
C4    O4    A    
C28   H3    S    
C6    C34   A    
C11   C36   A    
C26   N1    A    
C5    C9    A    
C29   C30   S    
C2    C38   A    
C23   H10   S    
C31   C32   S    
C19   N2    A    
C14   N2    A    
C1    O2    A    
C13   C21   A    
C10   C34   A    
C6    C7    A    
Cu2   O8    S    
Cu1   Cu2   S    
C28   C33   S    
Cu1   O1    S    
C22   C24   A    
C13   C26   A    
C2    C5    A    
C9    H12   S    
C27   O7    A    
C15   C17   A    
C4    C33   S    
C28   C29   S    
C12   C30   S    
C24   H6    S    
C36   Cl1   S    
C16   O5    A    
C4    O3    A    
C12   H9    S    
Cu2   O2    S    
Cu2   N2    S    
C31   H7    S    
C32   C33   S    
C19   C24   A    
C30   C31   S    
C2    C3    A    
C18   C20   A    
C25   H21   S    
C32   H8    S    
C3    C11   A    
C38   H15   S    
C20   C21   A    
C9    C35   A    
C14   C15   A    
Cu2   O6    S    
C7    H13   S    
C37   H16   S    
C27   O8    A    
C14   H2    S    
