data_mof_unit_5647.cif
_audit_creation_date              2012-12-10T18:12:34-0500
_audit_creation_method            fapswitch 2.2
_symmetry_space_group_name_H-M    P1
_symmetry_Int_Tables_number       1
_space_group_crystal_system       triclinic
_cell_length_a                    9.605962
_cell_length_b                    10.872586
_cell_length_c                    17.102009
_cell_angle_alpha                 90.87494
_cell_angle_beta                  85.474226
_cell_angle_gamma                 91.36315
_cell_volume                      1779.927983

loop_
_atom_site_label
_atom_site_type_symbol
_atom_type_description
_atom_site_fract_x
_atom_site_fract_y
_atom_site_fract_z
_atom_type_partial_charge
C1    C     C_R   0.500074 0.739357 0.501509 0.843573
C2    C     C_R   0.350823 0.540937 0.781712 -0.153192
C3    C     C_R   0.415001 0.640194 0.166959 0.465474
C4    C     C_R   0.449324 0.625027 0.243711 -0.319918
C5    C     C_R   0.570537 0.435819 0.207657 0.325218
C6    C     C_R   0.543634 0.453601 0.129039 0.338125
C7    C     C_R   0.460571 0.553162 0.109294 -0.077815
C8    C     C_2   0.483555 0.637421 0.977203 0.367262
C9    C     C_2   0.417740 0.560496 0.028972 -0.160055
C10   C     C_R   0.521881 0.522190 0.265438 -0.288418
C11   C     C_3   0.341634 0.923899 0.511647 0.698830
C12   C     C_R   0.481822 0.506149 0.650164 0.781580
C13   C     C_3   0.345103 0.066679 0.507999 0.127808
C14   C     C_3   0.576391 0.929094 0.572364 -0.489333
C15   C     C_3   0.569355 0.927971 0.426283 -0.433843
C16   C     C_3   0.496466 0.876991 0.503420 -0.038838
C17   C     C_3   0.497141 0.120811 0.504463 -0.150494
C18   C     C_3   0.570722 0.071025 0.574978 -0.326659
C19   C     C_3   0.576224 0.070190 0.427782 0.205462
C20   C     C_3   0.913744 0.372098 0.511580 0.220456
C21   C     C_3   0.078240 0.369250 0.497326 0.273558
C22   C     C_3   0.934971 0.554176 0.423160 0.711792
C23   C     C_R   0.498521 0.260022 0.502744 0.901261
C24   C     C_3   0.908559 0.573437 0.564405 -0.334673
C25   C     C_3   0.100617 0.554351 0.427056 -0.311889
C26   C     C_3   0.074154 0.574289 0.564004 0.312777
C27   C     C_R   0.518266 0.501244 0.350002 0.968853
C28   C     C_R   0.477261 0.533239 0.735005 -0.026930
C29   C     C_R   0.603194 0.562507 0.768632 -0.137135
C30   C     C_R   0.603036 0.600468 0.846321 -0.165919
C31   C     C_R   0.477331 0.609491 0.892702 0.024990
C32   C     C_R   0.350802 0.578794 0.860259 -0.172925
Cu1   Cu    Cu3+1 0.357600 0.500140 0.499960 1.042704
Cu2   Cu    Cu3+1 0.642400 0.499860 0.500040 1.046250
H1    H     H_    0.703020 0.557698 0.734909 0.166296
H2    H     H_    0.308275 0.089912 0.451006 0.228282
H3    H     H_    0.534442 0.890244 0.629365 0.163359
H4    H     H_    0.521103 0.103384 0.632161 0.164114
H5    H     H_    0.676816 0.894659 0.418891 0.303040
H6    H     H_    0.514942 0.894097 0.374772 0.199229
H7    H     H_    0.524968 0.103899 0.376201 0.178612
H8    H     H_    0.411964 0.690516 0.288562 0.212733
H9    H     H_    0.687404 0.901209 0.564646 0.262501
H10   H     H_    0.679136 0.105396 0.570958 0.315458
H11   H     H_    0.867736 0.306899 0.470181 0.194225
H12   H     H_    0.122114 0.319627 0.545494 0.235457
H13   H     H_    0.148847 0.508875 0.373551 0.259539
H14   H     H_    0.869010 0.667471 0.565980 0.186317
H15   H     H_    0.861005 0.539708 0.621176 0.238016
H16   H     H_    0.111473 0.671684 0.556007 0.172933
H17   H     H_    0.148431 0.648300 0.423533 0.212183
H18   H     H_    0.353507 0.484695 0.008619 0.141766
H19   H     H_    0.252571 0.583584 0.895783 0.149127
H20   H     H_    0.252588 0.517784 0.757936 0.197075
H21   H     H_    0.702047 0.619841 0.870758 0.158379
N1    N     N_3   0.856560 0.499750 0.498270 -0.314266
N2    N     N_3   0.143860 0.496700 0.498910 -0.272125
O1    O     O_R   0.379740 0.682430 0.499960 -0.555477
O2    O     O_R   0.620260 0.682190 0.500020 -0.544558
O3    O     O_R   0.365800 0.500150 0.613560 -0.531466
O4    O     O_R   0.606310 0.499910 0.613620 -0.568723
O5    O     O_R   0.379740 0.317810 0.499980 -0.540664
O6    O     O_R   0.620260 0.317570 0.500040 -0.524000
O7    O     O_R   0.393690 0.500090 0.386380 -0.575266
O8    O     O_R   0.634200 0.499850 0.386440 -0.537619
O9    O     O_3   0.596938 0.369368 0.073554 -0.627478
H22   H     H_    0.593858 0.401910 0.020083 0.332843
O10   O     O_3   0.269090 0.880723 0.581558 -0.706102
H23   H     H_    0.309491 0.920323 0.627345 0.314942
O11   O     O_3   0.270714 0.877847 0.447752 -0.711326
H24   H     H_    0.170382 0.896970 0.458572 0.406488
O12   O     O_3   0.252511 0.120022 0.566376 -0.646446
H25   H     H_    0.299488 0.128467 0.615647 0.323558
O13   O     O_3   0.716870 0.111011 0.422851 -0.630404
H26   H     H_    0.758566 0.086771 0.370036 0.395081
S1    S     S_3+6 0.869974 0.297122 0.606993 0.001499
O14   O     O_2   0.718765 0.300015 0.635370 -0.317526
O15   O     O_2   0.911325 0.165048 0.596229 -0.256928
O16   O     O_3   0.960787 0.355280 0.679425 -0.521263
H27   H     H_    0.941176 0.298244 0.723759 0.381179
S2    S     S_3+6 0.120164 0.269522 0.409370 0.006428
O17   O     O_2   0.270472 0.275116 0.378447 -0.287082
O18   O     O_2   0.080451 0.140650 0.434307 -0.247974
O19   O     O_3   0.030831 0.293488 0.331050 -0.511665
H28   H     H_    0.046909 0.220312 0.296580 0.417935
O20   O     O_3   0.904522 0.486904 0.355814 -0.679410
H29   H     H_    0.844960 0.415016 0.370453 0.382875
S3    S     S_3+6 0.660214 0.301427 0.229641 0.084749
O21   O     O_2   0.662185 0.283014 0.315934 -0.344492
O22   O     O_2   0.589398 0.191330 0.194581 -0.159788
O23   O     O_3   0.825242 0.311914 0.189156 -0.432805
H30   H     H_    0.860537 0.393609 0.206069 0.373666
O24   O     O_3   0.112556 0.537973 0.637031 -0.652145
H31   H     H_    0.083992 0.604220 0.675219 0.310839
S4    S     S_3+6 0.893368 0.710888 0.397399 0.044085
O25   O     O_2   0.886279 0.800173 0.465257 -0.328833
O26   O     O_2   0.005983 0.758036 0.338533 -0.225364
O27   O     O_3   0.744192 0.711797 0.352369 -0.533948
H32   H     H_    0.770907 0.691777 0.296571 0.382801
S5    S     S_3+6 0.307744 0.764577 0.146564 0.089952
O28   O     O_2   0.239385 0.817520 0.221275 -0.189910
O29   O     O_2   0.396353 0.863800 0.105804 -0.220402
O30   O     O_3   0.182437 0.716165 0.088991 -0.504124
H33   H     H_    0.201177 0.760891 0.039100 0.362549
O31   O     O_3   0.577005 0.724973 0.002902 -0.658673
H34   H     H_    0.608660 0.777869 0.957944 0.340205

loop_
_geom_bond_atom_site_label_1
_geom_bond_atom_site_label_2
_ccdc_geom_bond_type
C10   C27   S    
Cu2   N1    S    
Cu1   O1    S    
C22   S4    S    
C14   C18   S    
S4    O25   D    
S1    O16   S    
C20   N1    S    
C8    O31   S    
S2    O17   D    
C11   O11   S    
C15   C19   S    
O24   H31   S    
C12   C28   S    
C28   C29   A    
C24   C26   S    
Cu1   O5    S    
C3    C7    A    
C26   H16   S    
C5    C6    A    
C15   C16   S    
C20   S1    S    
C2    C32   A    
S5    O28   D    
C5    S3    S    
C3    S5    S    
C23   O5    A    
C8    C9    D    
C22   C25   S    
O11   H24   S    
C25   H13   S    
C20   H11   S    
C26   O24   S    
C23   O6    A    
O9    H22   S    
C9    H18   S    
C25   N2    S    
Cu2   O8    S    
S2    O18   D    
Cu1   Cu2   S    
S4    O27   S    
O13   H26   S    
C24   H14   S    
S1    O14   D    
C13   H2    S    
C2    H20   S    
O23   H30   S    
O20   H29   S    
O10   H23   S    
C22   N1    S    
S5    O30   S    
C25   H17   S    
C21   N2    S    
C29   C30   A    
C27   O8    A    
C18   H10   S    
C11   C16   S    
C31   C32   A    
S3    O23   S    
C20   C21   S    
S5    O29   D    
C17   C18   S    
C21   S2    S    
C1    C16   S    
C17   C23   S    
O19   H28   S    
C15   H5    S    
S3    O22   D    
Cu1   O3    S    
Cu2   O2    S    
C14   C16   S    
C4    C10   A    
C3    C4    A    
C32   H19   S    
S2    O19   S    
C11   O10   S    
C21   H12   S    
O31   H34   S    
C24   H15   S    
C7    C9    S    
Cu1   N2    S    
C8    C31   S    
C19   O13   S    
S1    O15   D    
O12   H25   S    
S4    O26   D    
C6    C7    A    
C13   O12   S    
C24   N1    S    
C30   H21   S    
C29   H1    S    
C13   C17   S    
C1    O2    A    
C18   H4    S    
C5    C10   A    
C1    O1    A    
C14   H3    S    
C12   O4    A    
C11   C13   S    
C30   C31   A    
C4    H8    S    
Cu1   O7    S    
Cu2   O6    S    
C17   C19   S    
C22   O20   S    
C26   N2    S    
C15   H6    S    
C27   O7    A    
O16   H27   S    
C12   O3    A    
C6    O9    S    
S3    O21   D    
O27   H32   S    
Cu2   O4    S    
O30   H33   S    
C2    C28   A    
C19   H7    S    
C14   H9    S    
