data_mof_unit_58905.cif
_audit_creation_date              2012-12-11T16:37:20-0500
_audit_creation_method            fapswitch 2.2
_symmetry_space_group_name_H-M    P1
_symmetry_Int_Tables_number       1
_space_group_crystal_system       triclinic
_cell_length_a                    19.436763
_cell_length_b                    6.973005
_cell_length_c                    17.797921
_cell_angle_alpha                 90.000196
_cell_angle_beta                  108.870961
_cell_angle_gamma                 89.999056
_cell_volume                      2282.54217517

loop_
_atom_site_label
_atom_site_type_symbol
_atom_type_description
_atom_site_fract_x
_atom_site_fract_y
_atom_site_fract_z
_atom_type_partial_charge
O1    O     O_R   0.561710 0.369960 0.440200 -0.542130
O2    O     O_R   0.061710 0.630040 0.940200 -0.542126
O3    O     O_R   0.412630 0.033330 0.406330 -0.530709
O4    O     O_R   0.912630 0.966670 0.906330 -0.530724
O5    O     O_R   0.438290 0.869790 0.559800 -0.531395
O6    O     O_R   0.938290 0.130210 0.059800 -0.531401
C1    C     C_R   0.384502 0.203218 0.383651 0.704461
C2    C     C_R   0.884502 0.796785 0.883651 0.704445
O7    O     O_R   0.559570 0.039810 0.430640 -0.545485
O8    O     O_R   0.059570 0.960190 0.930640 -0.545479
O9    O     O_R   0.586280 0.876320 0.584290 -0.544956
O10   O     O_R   0.086280 0.123680 0.084290 -0.544957
C3    C     C_R   0.580967 0.208978 0.415624 0.678708
C4    C     C_R   0.080966 0.791021 0.915624 0.678712
O11   O     O_R   0.413720 0.363440 0.415710 -0.536804
O12   O     O_R   0.913720 0.636560 0.915710 -0.536811
O13   O     O_3   0.508590 0.205630 0.550380 -0.374430
O14   O     O_3   0.008590 0.794370 0.050380 -0.374426
V1    V     V_3+5 0.498410 0.928130 0.490650 1.429951
V2    V     V_3+5 0.998410 0.071870 0.990650 1.429935
O15   O     O_R   0.587370 0.546990 0.593670 -0.541515
O16   O     O_R   0.087370 0.453010 0.093670 -0.541512
C5    C     C_R   0.615262 0.716850 0.616518 0.681305
C6    C     C_R   0.115261 0.283147 0.116519 0.681309
O17   O     O_R   0.440430 0.540520 0.569360 -0.538909
O18   O     O_R   0.940430 0.459480 0.069360 -0.538914
C7    C     C_R   0.420424 0.709586 0.586041 0.748710
C8    C     C_R   0.920423 0.290415 0.086040 0.748714
V3    V     V_3+5 0.501590 0.428960 0.509350 1.428756
V4    V     V_3+5 0.001590 0.571040 0.009350 1.428740
O19   O     O_3   0.491410 0.701330 0.449620 -0.368352
O20   O     O_3   0.991410 0.298670 0.949620 -0.368364
C9    C     C_R   0.287704 0.903406 0.684303 -0.138625
C10   C     C_R   0.787668 0.096631 0.184258 -0.138646
H1    H     H_    0.258750 0.036377 0.683452 0.106590
H2    H     H_    0.758684 0.963694 0.183371 0.106616
C11   C     C_R   0.334893 0.892443 0.639464 -0.155569
C12   C     C_R   0.834858 0.107592 0.139420 -0.155561
H3    H     H_    0.341245 0.017855 0.606405 0.133668
H4    H     H_    0.841180 0.982211 0.106325 0.133694
C13   C     C_R   0.371941 0.721174 0.635771 -0.074040
C14   C     C_R   0.871942 0.278826 0.135770 -0.074015
C15   C     C_R   0.361064 0.561544 0.678840 -0.153836
C16   C     C_R   0.861102 0.438421 0.178883 -0.153864
H5    H     H_    0.388923 0.427615 0.677672 0.123316
H6    H     H_    0.888991 0.572320 0.177750 0.123324
C17   C     C_R   0.314639 0.573311 0.724746 -0.131921
C18   C     C_R   0.814678 0.426650 0.224791 -0.131923
H7    H     H_    0.309133 0.448440 0.758457 0.100328
H8    H     H_    0.809204 0.551488 0.258539 0.100347
C19   C     C_R   0.276888 0.744276 0.727913 0.088781
C20   C     C_R   0.776890 0.255723 0.227914 0.088775
C21   C     C_R   0.186574 0.595170 0.785931 -0.141029
C22   C     C_R   0.686617 0.404873 0.285983 -0.141031
H9    H     H_    0.190830 0.459809 0.758012 0.103549
H10   H     H_    0.690905 0.540271 0.258105 0.103522
C23   C     C_R   0.139618 0.606498 0.831118 -0.161906
C24   C     C_R   0.639661 0.393545 0.331169 -0.161893
H11   H     H_    0.110161 0.478997 0.837504 0.122942
H12   H     H_    0.610238 0.521083 0.337595 0.122933
C25   C     C_R   0.130082 0.780282 0.866666 -0.050360
C26   C     C_R   0.630083 0.219718 0.366666 -0.050362
C27   C     C_R   0.169022 0.942311 0.856160 -0.161808
C28   C     C_R   0.668984 0.057646 0.356109 -0.161803
H13   H     H_    0.163574 0.078009 0.883318 0.118042
H14   H     H_    0.663503 0.921912 0.383225 0.118032
C29   C     C_R   0.216865 0.930355 0.811984 -0.138929
C30   C     C_R   0.716827 0.069602 0.311933 -0.138920
H15   H     H_    0.247296 0.057231 0.807323 0.099866
H16   H     H_    0.747226 0.942689 0.307232 0.099843
C31   C     C_R   0.226302 0.756650 0.775922 0.091230
C32   C     C_R   0.726305 0.243350 0.275922 0.091246
C33   C     C_R   0.799671 0.610151 0.769887 0.049002
C34   C     C_R   0.299672 0.389847 0.269882 0.048997
C35   C     C_R   0.817162 0.780709 0.813606 -0.099155
C36   C     C_R   0.317163 0.219293 0.313606 -0.099139
C37   C     C_R   0.766241 0.929287 0.791006 -0.153696
C38   C     C_R   0.266247 0.070710 0.291002 -0.153724
H17   H     H_    0.774217 0.055384 0.826743 0.160748
H18   H     H_    0.274233 0.944611 0.326732 0.160756
C39   C     C_R   0.701195 0.908267 0.727013 -0.160696
C40   C     C_R   0.201201 0.091724 0.227010 -0.160733
H19   H     H_    0.661876 0.023456 0.714406 0.131437
H20   H     H_    0.161887 0.976531 0.214399 0.131444
C41   C     C_R   0.684672 0.736186 0.683098 -0.070438
C42   C     C_R   0.184671 0.263808 0.183100 -0.070433
C43   C     C_R   0.736873 0.590563 0.703552 0.088689
C44   C     C_R   0.236871 0.409431 0.203549 0.088708
C45   C     C_3   0.725354 0.388839 0.723541 -0.478229
C46   C     C_3   0.225353 0.611165 0.223527 -0.478227
C47   C     C_3   0.789387 0.414990 0.799194 -0.184827
C48   C     C_3   0.289395 0.585025 0.299175 -0.184843
H21   H     H_    0.736912 0.287608 0.680882 0.163993
H22   H     H_    0.236903 0.712378 0.180858 0.163988
H23   H     H_    0.671809 0.366613 0.732433 0.190426
H24   H     H_    0.171813 0.633410 0.232427 0.190428
H25   H     H_    0.836180 0.319003 0.803466 0.123558
H26   H     H_    0.336185 0.680986 0.303428 0.123551
C49   C     C_2   0.765803 0.418481 0.872545 0.788371
O21   O     O_2   0.717594 0.527227 0.876418 -0.552997
O22   O     O_R   0.798100 0.293506 0.935126 -0.674636
H27   H     H_    0.774684 0.301454 0.978305 0.280990
C50   C     C_2   0.265824 0.581588 0.372532 0.788370
O23   O     O_2   0.217610 0.472883 0.376418 -0.552999
O24   O     O_R   0.298141 0.706546 0.435109 -0.674617
H28   H     H_    0.274723 0.698667 0.478285 0.280982

loop_
_geom_bond_atom_site_label_1
_geom_bond_atom_site_label_2
_ccdc_geom_bond_type
C24   C26   A    
V4    O20   S    
C27   H13   S    
O22   H27   S    
O11   V3    S    
C38   C40   A    
O13   V3    S    
C21   H9    S    
O4    C2    A    
V1    O19   S    
C48   H26   S    
C17   H7    S    
O9    V1    S    
C19   C31   S    
C28   C30   A    
C36   C38   A    
C12   C14   A    
O3    C1    A    
C22   C24   A    
C38   H18   S    
C23   H11   S    
C24   H12   S    
C34   C48   S    
C25   C27   A    
O7    C3    A    
C33   C43   A    
C26   C28   A    
C48   C50   S    
O13   V1    S    
O5    C7    A    
O7    V1    S    
O6    C8    A    
C3    C26   S    
O8    V2    S    
O3    V1    S    
O14   V4    S    
C45   C47   S    
C13   C15   A    
C29   C31   A    
C18   H8    S    
C2    O12   A    
C11   C13   A    
C33   C35   A    
C14   C16   A    
C39   H19   S    
C16   H6    S    
C46   H22   S    
C27   C29   A    
C37   H17   S    
O17   V3    S    
C22   H10   S    
C42   C44   A    
C33   C47   S    
O8    C4    A    
C21   C23   A    
C17   C19   A    
C1    O11   A    
C40   C42   A    
C4    C25   S    
O15   V3    S    
C2    C35   S    
C9    C11   A    
C9    C19   A    
C29   H15   S    
C28   H14   S    
C45   H23   S    
C20   C32   S    
C15   H5    S    
C7    C13   S    
C46   C48   S    
C49   O21   D    
C37   C39   A    
C30   C32   A    
O10   V2    S    
O1    V3    S    
C50   O24   S    
C47   H25   S    
C46   H24   S    
C35   C37   A    
C34   C36   A    
C30   H16   S    
C49   O22   S    
C44   C46   S    
O18   V4    S    
C40   H20   S    
O15   C5    A    
O16   C6    A    
O1    C3    A    
O12   V4    S    
C21   C31   A    
V2    O20   S    
O16   V4    S    
C10   C12   A    
C10   C20   A    
C23   C25   A    
C1    C36   S    
O5    V1    S    
O17   C7    A    
O6    V2    S    
O24   H28   S    
O10   C6    A    
O18   C8    A    
O2    V4    S    
C47   C49   S    
C43   C45   S    
C11   H3    S    
C12   H4    S    
C15   C17   A    
O9    C5    A    
C9    H1    S    
C10   H2    S    
O14   V2    S    
C45   H21   S    
O2    C4    A    
O4    V2    S    
C41   C43   A    
C18   C20   A    
C22   C32   A    
V3    O19   S    
C5    C41   S    
C50   O23   D    
C34   C44   A    
C6    C42   S    
C39   C41   A    
C16   C18   A    
C8    C14   S    
