data_mof_unit_21792.cif
_audit_creation_date              2012-12-10T18:47:46-0500
_audit_creation_method            fapswitch 2.2
_symmetry_space_group_name_H-M    P1
_symmetry_Int_Tables_number       1
_space_group_crystal_system       triclinic
_cell_length_a                    10.047676
_cell_length_b                    10.573769
_cell_length_c                    15.691546
_cell_angle_alpha                 90.209707
_cell_angle_beta                  71.091805
_cell_angle_gamma                 87.642779
_cell_volume                      1575.55084986

loop_
_atom_site_label
_atom_site_type_symbol
_atom_type_description
_atom_site_fract_x
_atom_site_fract_y
_atom_site_fract_z
_atom_type_partial_charge
Br1   Br    Br    0.134072 0.305966 0.065468 -0.251879
Br2   Br    Br    0.458992 0.857506 0.322512 -0.383120
Br3   Br    Br    0.792297 0.860320 0.964359 -0.250801
Br4   Br    Br    0.303306 0.585122 0.263188 -0.357743
Br5   Br    Br    0.605587 0.674364 0.748823 -0.443663
Br6   Br    Br    0.919136 0.553866 0.211914 -0.289346
Br7   Br    Br    0.124837 0.359676 0.771650 -0.279323
Br8   Br    Br    0.077080 0.666079 0.910932 -0.323822
Br9   Br    Br    0.855636 0.446697 0.009772 -0.326828
Br10  Br    Br    0.546589 0.145540 0.676822 -0.349564
C1    C     C_R   0.498191 0.739231 0.499426 0.902891
C2    C     C_R   0.478117 0.938415 0.427075 0.318239
C3    C     C_R   0.505378 0.128425 0.500894 -0.105565
C4    C     C_R   0.494339 0.872157 0.500259 -0.121251
C5    C     C_R   0.956410 0.401905 0.460397 0.454018
C6    C     C_R   0.043878 0.598633 0.539068 0.488083
C7    C     C_R   0.097419 0.403296 0.461724 -0.161086
C8    C     C_R   0.902898 0.597127 0.537599 -0.150234
C9    C     C_R   0.413543 0.503662 0.673683 0.964275
C10   C     C_R   0.583972 0.510103 0.326377 0.947123
C11   C     C_R   0.362943 0.518690 0.771036 -0.222306
C12   C     C_R   0.501538 0.261002 0.501227 0.918050
C13   C     C_R   0.616733 0.542658 0.230783 -0.236743
C14   C     C_R   0.174162 0.506119 0.908401 0.337686
C15   C     C_R   0.777363 0.593449 0.083694 0.298525
C16   C     C_R   0.232950 0.468209 0.820053 0.224682
C17   C     C_R   0.755455 0.564595 0.173985 0.232194
C18   C     C_R   0.437274 0.589765 0.817578 0.212638
C19   C     C_R   0.503677 0.555504 0.193548 0.234606
C20   C     C_R   0.391070 0.584163 0.913729 -0.002016
C21   C     C_R   0.535967 0.583201 0.102675 -0.027663
C22   C     C_R   0.269217 0.515495 0.954369 -0.116043
C23   C     C_R   0.350913 0.462314 0.077022 -0.139135
C24   C     C_R   0.662193 0.639939 0.060910 -0.089546
C25   C     C_R   0.469598 0.620902 0.969175 0.065959
C26   C     C_R   0.447679 0.558678 0.052081 0.067234
C27   C     C_R   0.567303 0.717108 0.947723 -0.136787
C28   C     C_R   0.257544 0.443947 0.030773 0.329313
C29   C     C_R   0.670538 0.721226 0.989286 0.352502
C30   C     C_R   0.517121 0.932876 0.573058 -0.225387
C31   C     C_R   0.482660 0.067887 0.428223 -0.210312
C32   C     C_R   0.522640 0.062563 0.573918 0.319687
H1    H     H_    0.348151 0.400150 0.132186 0.202288
H2    H     H_    0.562635 0.790374 0.901079 0.221238
H3    H     H_    0.529987 0.879396 0.628866 0.208064
H4    H     H_    0.469829 0.121482 0.372357 0.184982
H5    H     H_    0.172168 0.326259 0.431811 0.195617
H6    H     H_    0.828884 0.675234 0.565892 0.229392
H7    H     H_    0.095313 0.126350 0.379605 0.382292
H8    H     H_    0.200165 0.793879 0.674484 0.383165
N1    N     N_R   0.142780 0.500030 0.500020 -0.151332
N2    N     N_R   0.857220 0.499970 0.499980 -0.164822
O1    O     O_R   0.385370 0.683250 0.500010 -0.531917
O2    O     O_2   0.831529 0.294434 0.349152 -0.202228
O3    O     O_3   0.070976 0.192545 0.341928 -0.502728
O4    O     O_2   0.946639 0.806503 0.643922 -0.234286
O5    O     O_2   0.158193 0.824904 0.514824 -0.266830
O6    O     O_3   0.176397 0.709456 0.657547 -0.506138
O7    O     O_R   0.614630 0.316750 0.499990 -0.531431
O8    O     O_R   0.614700 0.683220 0.500000 -0.623605
O9    O     O_R   0.385300 0.316780 0.500000 -0.636122
O10   O     O_R   0.319830 0.500020 0.632250 -0.545180
O11   O     O_R   0.680170 0.499980 0.367750 -0.547323
O12   O     O_R   0.549160 0.499990 0.632240 -0.580168
O13   O     O_R   0.450840 0.500010 0.367760 -0.590410
O14   O     O_2   0.845573 0.173618 0.479262 -0.273520
S1    S     S_3+6 0.919749 0.264553 0.407892 0.111281
S2    S     S_3+6 0.081698 0.738504 0.588715 0.108515
Zn1   Zn    Zn3+2 0.346870 0.500020 0.500000 1.091690
Zn2   Zn    Zn3+2 0.653130 0.499980 0.500000 1.101973

loop_
_geom_bond_atom_site_label_1
_geom_bond_atom_site_label_2
_ccdc_geom_bond_type
C8    N2    A    
O3    S1    S    
C31   H4    S    
O11   Zn2   S    
C2    C31   A    
C6    S2    S    
O12   Zn2   S    
Br10  C32   S    
Br5   C18   S    
N1    Zn1   S    
C9    O12   A    
C23   C28   A    
C1    O1    A    
C10   C13   S    
O8    Zn2   S    
C15   C24   A    
C11   C16   A    
O1    Zn1   S    
C7    N1    A    
C27   H2    S    
C18   C20   A    
O14   S1    D    
C5    S1    S    
C21   C24   A    
Br9   C15   S    
C8    H6    S    
C19   C21   A    
C6    C8    A    
O9    Zn1   S    
C5    N2    A    
C12   O9    A    
C20   C22   A    
Br6   C17   S    
Br7   C16   S    
C20   C25   A    
C10   O11   A    
O13   Zn1   S    
Br1   C28   S    
C3    C31   A    
C3    C32   A    
C9    C11   S    
C11   C18   A    
C2    C4    A    
C3    C12   S    
C13   C17   A    
C22   C28   A    
C30   H3    S    
C1    C4    S    
C25   C26   A    
C15   C17   A    
O5    S2    D    
C9    O10   A    
Br3   C29   S    
C1    O8    A    
H8    O6    S    
C13   C19   A    
C10   O13   A    
C12   O7    A    
C23   C26   A    
N2    Zn2   S    
Br8   C14   S    
O10   Zn1   S    
C27   C29   A    
Br2   C2    S    
O6    S2    S    
C14   C22   A    
C5    C7    A    
C21   C26   A    
C6    N1    A    
O2    S1    D    
O7    Zn2   S    
C25   C27   A    
O4    S2    D    
C4    C30   A    
C24   C29   A    
Br4   C19   S    
C7    H5    S    
C14   C16   A    
C30   C32   A    
H7    O3    S    
C23   H1    S    
