data_mof_unit_37040.cif
_audit_creation_date              2012-12-10T17:15:15-0500
_audit_creation_method            fapswitch 2.2
_symmetry_space_group_name_H-M    P1
_symmetry_Int_Tables_number       1
_space_group_crystal_system       triclinic
_cell_length_a                    10.239225
_cell_length_b                    10.542931
_cell_length_c                    12.912378
_cell_angle_alpha                 89.904025
_cell_angle_beta                  91.598539
_cell_angle_gamma                 93.975377
_cell_volume                      1390.01478321

loop_
_atom_site_label
_atom_site_type_symbol
_atom_type_description
_atom_site_fract_x
_atom_site_fract_y
_atom_site_fract_z
_atom_type_partial_charge
C1    C     C_R   0.447620 0.265973 0.489596 0.784015
C2    C     C_R   0.663073 0.440344 0.034559 0.472809
C3    C     C_R   0.412365 0.636579 0.844345 -0.134772
C4    C     C_R   0.658481 0.451244 0.143182 -0.201171
C5    C     C_R   0.529864 0.443375 0.873304 -0.087389
C6    C     C_R   0.458392 0.566351 0.121998 -0.081382
C7    C     C_R   0.558853 0.484060 0.974353 -0.021049
C8    C     C_R   0.481200 0.574074 0.016422 0.002908
C9    C     C_2   0.424920 0.130142 0.470913 0.198375
C10   C     C_2   0.581055 0.870535 0.493976 0.251839
C11   C     C_2   0.515679 0.070099 0.417722 -0.127005
C12   C     C_R   0.553585 0.734094 0.503938 0.890971
C13   C     C_2   0.516835 0.932390 0.417977 -0.115137
C14   C     C_2   0.328701 0.601805 0.155989 0.623389
C15   C     C_2   0.548804 0.309607 0.841250 0.568160
C16   C     C_2   0.766637 0.402552 0.207437 0.602690
C17   C     C_2   0.347108 0.725774 0.774324 0.594372
C18   C     C_2   0.452982 0.865550 0.327188 0.551456
C19   C     C_2   0.612801 0.138726 0.350286 0.579549
C20   C     C_2   0.900546 0.656470 0.471413 0.502620
C21   C     C_2   0.115317 0.441848 0.617915 0.518626
C22   C     C_2   0.858880 0.318063 0.554980 0.637213
C23   C     C_2   0.073927 0.507394 0.522492 -0.040816
C24   C     C_2   0.125629 0.596028 0.358211 0.603990
C25   C     C_2   0.931065 0.529673 0.509456 0.023650
C26   C     C_R   0.474976 0.505599 0.697784 0.918148
C27   C     C_R   0.526520 0.498467 0.300371 0.828532
C28   C     C_R   0.548105 0.505024 0.187785 -0.226068
C29   C     C_R   0.464351 0.524877 0.806992 -0.184074
C30   C     C_R   0.422047 0.662493 0.950704 0.285095
H1    H     H_    0.320963 0.667222 0.218890 0.066221
H2    H     H_    0.359332 0.052236 0.686155 0.398844
H3    H     H_    0.939997 0.740761 0.512743 0.113279
H4    H     H_    0.186145 0.370593 0.614892 0.150827
H5    H     H_    0.801664 0.262384 0.610409 0.113805
H6    H     H_    0.160543 0.690803 0.334755 0.071716
H7    H     H_    0.546693 0.282434 0.760270 0.066442
H8    H     H_    0.815680 0.461352 0.267136 0.157263
H9    H     H_    0.251285 0.756043 0.792547 0.073817
H10   H     H_    0.185463 0.791874 0.972850 0.358135
H11   H     H_    0.906273 0.232666 0.938990 0.401199
H12   H     H_    0.484743 0.774180 0.304292 -0.006305
H13   H     H_    0.600609 0.235732 0.326749 0.031366
H14   H     H_    0.793657 0.893908 0.725998 0.402952
N1    N     N_2   0.162330 0.550370 0.457540 -0.215310
N2    N     N_2   0.837670 0.449630 0.542460 -0.195964
O1    O     O_R   0.567930 0.307680 0.508550 -0.664112
O2    O     O_2   0.559091 0.225904 0.905836 -0.444682
O3    O     O_2   0.803492 0.296606 0.192790 -0.423326
O4    O     O_2   0.403053 0.771893 0.699638 -0.507693
O5    O     O_2   0.484987 0.848338 0.089555 -0.231525
O6    O     O_2   0.424445 0.917788 0.916346 -0.216853
O7    O     O_3   0.239240 0.825075 0.033047 -0.462232
O8    O     O_2   0.812232 0.449387 0.863102 -0.290327
O9    O     O_2   0.927128 0.467751 0.031013 -0.208903
O10   O     O_3   0.824470 0.245626 0.975544 -0.425191
O11   O     O_2   0.366449 0.913421 0.276790 -0.461765
O12   O     O_R   0.432070 0.692320 0.491450 -0.610201
O13   O     O_2   0.705916 0.085523 0.318226 -0.426884
O14   O     O_2   0.807199 0.004275 0.535466 -0.228818
O15   O     O_2   0.620164 0.053362 0.639195 -0.330078
O16   O     O_3   0.731812 0.844283 0.678714 -0.509489
O17   O     O_2   0.164571 0.100501 0.475556 -0.152086
O18   O     O_2   0.277969 0.910651 0.518406 -0.277581
O19   O     O_3   0.283792 0.092792 0.654012 -0.529176
O20   O     O_2   0.840077 0.668011 0.389522 -0.541717
O21   O     O_2   0.066767 0.464157 0.700681 -0.556612
O22   O     O_2   0.932956 0.264914 0.499442 -0.496830
O23   O     O_R   0.351090 0.340020 0.481290 -0.574465
O24   O     O_2   0.058815 0.528055 0.298046 -0.508075
O25   O     O_R   0.648910 0.659980 0.518710 -0.555543
O26   O     O_R   0.590490 0.486480 0.665020 -0.593014
O27   O     O_R   0.409510 0.513520 0.334980 -0.646458
O28   O     O_R   0.373660 0.518820 0.637760 -0.633897
O29   O     O_R   0.626340 0.481180 0.362240 -0.626423
O30   O     O_2   0.228705 0.558644 0.111281 -0.475999
S1    S     S_3+6 0.395369 0.818195 0.997536 0.084530
S2    S     S_3+6 0.811082 0.403693 0.973487 0.110202
S3    S     S_3+6 0.687255 0.948800 0.588001 0.065397
S4    S     S_3+6 0.284491 0.052899 0.528011 0.103275
Zn1   Zn    Zn3+2 0.644780 0.478400 0.518200 1.025919
Zn2   Zn    Zn3+2 0.355220 0.521600 0.481800 1.012802

loop_
_geom_bond_atom_site_label_1
_geom_bond_atom_site_label_2
_ccdc_geom_bond_type
O14   S3    D    
C23   N1    D    
C26   O26   A    
C2    C4    A    
N1    Zn2   S    
C14   H1    S    
C24   O24   D    
C7    C8    A    
C22   H5    S    
C11   C19   S    
C24   H6    S    
C13   C18   S    
C24   N1    S    
C20   O20   D    
H14   O16   S    
O12   Zn2   S    
C20   C25   S    
O10   S2    S    
C17   H9    S    
C3    C29   A    
C15   H7    S    
O23   Zn2   S    
C30   S1    S    
C6    C28   A    
C2    C7    A    
O26   Zn1   S    
C12   O12   A    
O1    Zn1   S    
O19   S4    S    
C21   O21   D    
O18   S4    D    
C15   O2    D    
O28   Zn2   S    
C27   O29   A    
C4    C28   A    
C19   H13   S    
C5    C29   A    
O17   S4    D    
O16   S3    S    
C1    C9    S    
C16   O3    D    
C5    C7    A    
O9    S2    D    
O29   Zn1   S    
C6    C8    A    
C21   H4    S    
C19   O13   D    
C1    O23   A    
C9    S4    S    
C14   O30   D    
C4    C16   S    
C3    C30   A    
O7    S1    S    
O5    S1    D    
H11   O10   S    
C2    S2    S    
C6    C14   S    
N2    Zn1   S    
C18   O11   D    
C9    C11   D    
C22   O22   D    
C10   C12   S    
C20   H3    S    
C22   N2    S    
C12   O25   A    
C21   C23   S    
O6    S1    D    
O27   Zn2   S    
C1    O1    A    
C10   C13   D    
C17   O4    D    
C10   S3    S    
C8    C30   A    
C18   H12   S    
C11   C13   S    
O15   S3    D    
C26   O28   A    
C3    C17   S    
C23   C25   S    
C5    C15   S    
C26   C29   S    
H10   O7    S    
C27   C28   S    
O25   Zn1   S    
C27   O27   A    
C25   N2    D    
C16   H8    S    
H2    O19   S    
O8    S2    D    
