data_mof_unit_21086.cif
_audit_creation_date              2012-12-11T14:36:08-0500
_audit_creation_method            fapswitch 2.2
_symmetry_space_group_name_H-M    P1
_symmetry_Int_Tables_number       1
_space_group_crystal_system       triclinic
_cell_length_a                    14.508428
_cell_length_b                    16.086072
_cell_length_c                    6.98832
_cell_angle_alpha                 90.031921
_cell_angle_beta                  81.485307
_cell_angle_gamma                 90.028348
_cell_volume                      1612.98245624

loop_
_atom_site_label
_atom_site_type_symbol
_atom_type_description
_atom_site_fract_x
_atom_site_fract_y
_atom_site_fract_z
_atom_type_partial_charge
O1    O     O_R   0.337460 0.413110 0.524760 -0.537041
O2    O     O_R   0.662540 0.913110 0.475240 -0.538204
O3    O     O_R   0.348690 0.587910 0.191230 -0.534336
O4    O     O_R   0.651310 0.087910 0.808770 -0.534922
O5    O     O_R   0.166530 0.586890 0.082470 -0.546646
O6    O     O_R   0.833470 0.086890 0.917530 -0.543345
C1    C     C_R   0.372869 0.614364 0.354141 0.737506
C2    C     C_R   0.631696 0.117981 0.645061 0.742019
O7    O     O_R   0.348700 0.413830 0.191250 -0.542515
O8    O     O_R   0.651300 0.913830 0.808750 -0.546856
O9    O     O_R   0.166530 0.411570 0.082490 -0.535898
O10   O     O_R   0.833470 0.911570 0.917510 -0.536193
C3    C     C_R   0.371221 0.386279 0.353771 0.801423
C4    C     C_R   0.630518 0.884827 0.645818 0.793970
O11   O     O_R   0.337460 0.588430 0.524740 -0.545759
O12   O     O_R   0.662540 0.088430 0.475260 -0.539949
O13   O     O_3   0.192230 0.499460 0.407330 -0.369943
O14   O     O_3   0.807770 0.999460 0.592670 -0.370811
V1    V     V_3+5 0.263080 0.500100 0.108540 1.481423
V2    V     V_3+5 0.736920 0.000100 0.891460 1.476176
O15   O     O_R   0.155290 0.412090 0.756570 -0.523410
O16   O     O_R   0.844710 0.912090 0.243430 -0.524251
C5    C     C_R   0.132699 0.382631 0.933496 0.658363
C6    C     C_R   0.867203 0.882554 0.066497 0.655285
O17   O     O_R   0.155290 0.586170 0.756550 -0.549319
O18   O     O_R   0.844710 0.086170 0.243450 -0.548850
C7    C     C_R   0.134591 0.616130 0.931005 0.667882
C8    C     C_R   0.865492 0.116063 0.068986 0.710594
V3    V     V_3+5 0.240910 0.499900 0.616030 1.475099
V4    V     V_3+5 0.759090 0.999900 0.383970 1.478291
O19   O     O_3   0.311760 0.500540 0.867100 -0.363291
O20   O     O_3   0.688240 0.000540 0.132900 -0.371632
C9    C     C_3   0.093470 0.751616 0.105350 -0.344561
C10   C     C_3   0.906507 0.251519 0.894497 -0.330758
H1    H     H_    0.108321 0.721096 0.240449 0.147204
H2    H     H_    0.891579 0.220911 0.759468 0.146069
H3    H     H_    0.158824 0.783038 0.039141 0.152013
H4    H     H_    0.841277 0.283069 0.960579 0.180210
C11   C     C_3   0.015800 0.817029 0.158303 -0.340555
C12   C     C_3   0.984173 0.316935 0.841480 -0.351797
C13   C     C_3   0.966875 0.651446 0.046999 -0.348747
C14   C     C_3   0.033096 0.151518 0.953091 -0.358691
C15   C     C_3   0.054954 0.732593 0.769778 -0.372523
C16   C     C_3   0.944864 0.232746 0.230180 -0.371531
C17   C     C_3   0.063989 0.686511 0.962096 0.068413
C18   C     C_3   0.935970 0.186531 0.037895 0.058611
H5    H     H_    0.125624 0.748799 0.693317 0.131957
H6    H     H_    0.874144 0.248926 0.306426 0.143746
C19   C     C_3   0.938306 0.810016 0.025627 -0.032843
C20   C     C_3   0.061577 0.310104 0.974331 -0.032134
C21   C     C_3   0.889921 0.720759 0.063547 -0.094059
C22   C     C_3   0.109999 0.220912 0.936474 -0.085576
C23   C     C_3   0.992924 0.812161 0.809403 -0.040350
C24   C     C_3   0.006888 0.312337 0.190533 -0.045402
H7    H     H_    0.949306 0.598511 0.955831 0.140403
H8    H     H_    0.050674 0.098676 0.044346 0.139569
C25   C     C_2   0.441636 0.682637 0.348231 -0.353763
C26   C     C_2   0.563028 0.186261 0.650232 -0.349604
C27   C     C_2   0.487974 0.701099 0.498029 -0.021139
C28   C     C_2   0.551959 0.232574 0.492627 -0.009932
C29   C     C_2   0.567740 0.812799 0.654456 -0.293734
C30   C     C_2   0.444645 0.323047 0.342618 -0.290613
C31   C     C_2   0.544103 0.778031 0.492658 -0.146074
C32   C     C_2   0.473409 0.291745 0.502900 -0.148724
H9    H     H_    0.450477 0.722329 0.220957 0.132255
H10   H     H_    0.516855 0.196389 0.785571 0.140042
C33   C     C_1   0.927435 0.817097 0.669441 0.265942
N1    N     N_1   0.870877 0.824383 0.570847 -0.298648
C34   C     C_1   0.072332 0.317387 0.330585 0.267489
N2    N     N_1   0.128892 0.324715 0.429196 -0.297293
C35   C     C_1   0.823988 0.701769 0.927508 0.285623
N3    N     N_1   0.771197 0.685930 0.823909 -0.294584
C36   C     C_1   0.175928 0.202097 0.072518 0.281535
N4    N     N_1   0.228708 0.186395 0.176156 -0.304217
H11   H     H_    0.565932 0.806872 0.352611 0.153387
H12   H     H_    0.438081 0.309401 0.645280 0.157414
C37   C     C_1   0.489018 0.645015 0.660732 0.379421
N5    N     N_1   0.490684 0.600586 0.790373 -0.335323
C38   C     C_1   0.617430 0.228674 0.313767 0.361256
N6    N     N_1   0.669193 0.225918 0.171006 -0.395485
H13   H     H_    0.543421 0.786095 0.795678 0.128303
H14   H     H_    0.477006 0.303452 0.199573 0.133452
H15   H     H_    0.046328 0.880546 0.154091 0.153369
H16   H     H_    0.953681 0.380438 0.845422 0.155972
H17   H     H_    0.986320 0.805334 0.307753 0.180042
H18   H     H_    0.013689 0.305045 0.692141 0.181556
H19   H     H_    0.972216 0.624059 0.191500 0.162425
H20   H     H_    0.027788 0.124018 0.808614 0.162799
C39   C     C_1   0.830513 0.713400 0.252635 0.306289
N7    N     N_1   0.780963 0.704655 0.396857 -0.284822
C40   C     C_1   0.169399 0.213605 0.747340 0.301742
N8    N     N_1   0.218949 0.204994 0.603060 -0.289354
H21   H     H_    0.024663 0.688752 0.672179 0.147708
H22   H     H_    0.975092 0.189009 0.327937 0.145504
C41   C     C_1   0.051696 0.887591 0.774871 0.261558
N9    N     N_1   0.097594 0.946515 0.747834 -0.370558
C42   C     C_1   0.948081 0.387717 0.224918 0.267077
N10   N     N_1   0.902134 0.446587 0.251843 -0.361819

loop_
_geom_bond_atom_site_label_1
_geom_bond_atom_site_label_2
_ccdc_geom_bond_type
C28   C38   S    
C23   C41   S    
C9    C17   S    
C36   N4    T    
C12   H16   S    
C41   N9    T    
O4    C2    A    
V1    O19   S    
C27   C37   S    
C42   N10   T    
C37   N5    T    
C8    C18   S    
C20   C24   S    
C10   C12   S    
O7    V1    S    
O3    C1    A    
C19   C23   S    
C25   C27   D    
O12   V4    S    
O13   V3    S    
C14   C18   S    
C12   H18   S    
C29   C31   D    
O7    C3    A    
C13   H7    S    
C30   C32   D    
C2    C26   S    
O5    C7    A    
C15   C23   S    
O6    C8    A    
C3    C30   S    
O8    V2    S    
C19   C21   S    
C20   C22   S    
C24   C42   S    
O3    V1    S    
C10   C18   S    
C15   H5    S    
C10   H2    S    
C14   H8    S    
C7    C17   S    
C1    O11   A    
C30   H14   S    
C2    O12   A    
C21   C35   S    
O2    C4    A    
C15   H21   S    
C16   C18   S    
O11   V3    S    
O17   V3    S    
C13   H19   S    
C33   N1    T    
C22   C36   S    
O8    C4    A    
C40   N8    T    
O13   V1    S    
C5    C20   S    
C4    C29   S    
O15   V3    S    
C9    H3    S    
O9    V1    S    
O10   V2    S    
O1    V3    S    
C32   H12   S    
C9    C11   S    
C15   C17   S    
O14   V4    S    
C11   C19   S    
O18   V4    S    
O15   C5    A    
O16   C6    A    
O1    C3    A    
C11   H17   S    
C26   H10   S    
V2    O20   S    
C6    C19   S    
O16   V4    S    
C10   H4    S    
C27   C31   S    
C25   H9    S    
O5    V1    S    
O17   C7    A    
O6    V2    S    
O10   C6    A    
O18   C8    A    
O2    V4    S    
C28   C32   S    
C11   H15   S    
C35   N3    T    
V3    O19   S    
C29   H13   S    
C21   C39   S    
V4    O20   S    
C24   C34   S    
C31   H11   S    
C12   C20   S    
O9    C5    A    
C9    H1    S    
C13   C21   S    
O14   V2    S    
C34   N2    T    
C23   C33   S    
C16   H22   S    
C38   N6    T    
O4    V2    S    
C16   C24   S    
C14   H20   S    
C13   C17   S    
C22   C40   S    
C39   N7    T    
C26   C28   D    
C1    C25   S    
C16   H6    S    
C14   C22   S    
