data_mof_unit_46898.cif
_audit_creation_date              2012-12-10T20:44:05-0500
_audit_creation_method            fapswitch 2.2
_symmetry_space_group_name_H-M    P1
_symmetry_Int_Tables_number       1
_space_group_crystal_system       triclinic
_cell_length_a                    17.507555
_cell_length_b                    10.664107
_cell_length_c                    9.848657
_cell_angle_alpha                 89.713177
_cell_angle_beta                  90.014904
_cell_angle_gamma                 90.020319
_cell_volume                      1838.74507414

loop_
_atom_site_label
_atom_site_type_symbol
_atom_type_description
_atom_site_fract_x
_atom_site_fract_y
_atom_site_fract_z
_atom_type_partial_charge
C1    C     C_R   0.498274 0.260009 0.500502 0.907808
C2    C     C_R   0.114386 0.550654 0.496065 0.155389
C3    C     C_R   0.504513 0.062449 0.620444 0.152097
C4    C     C_R   0.353402 0.501402 0.500097 0.882046
C5    C     C_R   0.486611 0.128857 0.503429 -0.177758
C6    C     C_R   0.450857 0.068636 0.394643 -0.318198
C7    C     C_R   0.446049 0.938347 0.393684 0.383836
C8    C     C_R   0.481306 0.871462 0.501760 -0.256420
C9    C     C_R   0.502518 0.935082 0.619104 0.123849
C10   C     C_3   0.572701 0.923893 0.705033 -0.470668
C11   C     C_3   0.574858 0.066076 0.706263 -0.479415
C12   C     C_R   0.885992 0.552310 0.498772 0.166262
C13   C     C_R   0.455970 0.416298 0.071700 0.203004
C14   C     C_R   0.549213 0.573477 0.071649 -0.041627
C15   C     C_R   0.548996 0.573902 0.927525 -0.123896
C16   C     C_R   0.494749 0.739802 0.499587 0.931694
C17   C     C_R   0.456124 0.416035 0.929022 0.208561
C18   C     C_3   0.371356 0.405023 0.923052 -0.478797
C19   C     C_3   0.371169 0.406205 0.077040 -0.493379
C20   C     C_R   0.646688 0.501944 0.499948 0.848348
C21   C     C_R   0.847469 0.544161 0.622353 -0.165313
C22   C     C_R   0.769064 0.525639 0.623039 -0.208985
C23   C     C_1   0.966310 0.560222 0.498214 -0.065124
C24   C     C_R   0.729369 0.514980 0.499728 -0.030919
C25   C     C_R   0.768882 0.523383 0.375965 -0.205506
C26   C     C_R   0.847251 0.541921 0.375705 -0.165078
C27   C     C_1   0.034122 0.559702 0.497307 -0.059259
C28   C     C_R   0.155661 0.583242 0.611652 -0.151247
C29   C     C_R   0.234083 0.565184 0.613787 -0.184317
C30   C     C_R   0.270922 0.514216 0.500200 -0.018253
C31   C     C_R   0.228790 0.481642 0.384630 -0.155720
C32   C     C_R   0.150408 0.499846 0.382689 -0.144315
H1    H     H_    0.878106 0.550628 0.717714 0.133920
H2    H     H_    0.344066 0.491735 0.119399 0.245096
H3    H     H_    0.739693 0.520073 0.719668 0.153890
H4    H     H_    0.352035 0.316109 0.123000 0.203625
H5    H     H_    0.739400 0.515994 0.279629 0.152751
H6    H     H_    0.877706 0.546631 0.280002 0.133965
H7    H     H_    0.127224 0.621489 0.699971 0.140630
H8    H     H_    0.265868 0.592737 0.703085 0.156124
H9    H     H_    0.256168 0.441079 0.296827 0.144653
H10   H     H_    0.117818 0.472862 0.293912 0.136270
H11   H     H_    0.429240 0.122516 0.309335 0.200010
H12   H     H_    0.560215 0.882158 0.806307 0.212923
H13   H     H_    0.490045 0.891478 0.114271 0.331919
H14   H     H_    0.621565 0.881071 0.649975 0.193568
H15   H     H_    0.563614 0.106457 0.808175 0.207740
H16   H     H_    0.624909 0.106292 0.651781 0.197055
H17   H     H_    0.587649 0.634934 0.125841 0.139451
H18   H     H_    0.587255 0.635668 0.872717 0.135714
H19   H     H_    0.343749 0.489142 0.877736 0.221607
H20   H     H_    0.352772 0.313959 0.879649 0.208383
N1    N     N_R   0.499490 0.499140 0.142800 -0.091170
N2    N     N_R   0.499490 0.499180 0.857150 -0.106009
O1    O     O_R   0.500010 0.316790 0.614690 -0.614312
O2    O     O_2   0.344515 0.958960 0.189038 -0.308578
O3    O     O_3   0.460938 0.815791 0.141588 -0.537726
O4    O     O_R   0.500000 0.316760 0.385350 -0.629453
O5    O     O_R   0.389120 0.500020 0.614710 -0.632465
O6    O     O_R   0.389110 0.499990 0.385370 -0.588593
O7    O     O_R   0.500000 0.683240 0.614650 -0.618299
O8    O     O_R   0.499990 0.683210 0.385310 -0.547748
O9    O     O_R   0.610890 0.500010 0.614630 -0.627575
O10   O     O_R   0.610880 0.499980 0.385290 -0.633729
O11   O     O_2   0.351086 0.757439 0.307398 -0.268303
S1    S     S_3+6 0.397338 0.866632 0.256562 0.034736
Zn1   Zn    Zn3+2 0.500010 0.500020 0.653130 0.951227
Zn2   Zn    Zn3+2 0.499990 0.499980 0.346870 1.000002

loop_
_geom_bond_atom_site_label_1
_geom_bond_atom_site_label_2
_ccdc_geom_bond_type
C10   H14   S    
O1    Zn1   S    
C20   O10   A    
C6    C7    A    
C3    C9    A    
C23   C27   T    
C4    O5    A    
C9    C10   S    
O7    Zn1   S    
C11   H15   S    
C31   C32   A    
O8    Zn2   S    
O3    S1    S    
C6    H11   S    
C2    C27   S    
C25   H5    S    
C4    O6    A    
C20   O9    A    
C17   C18   S    
C1    O1    A    
C18   H20   S    
C7    C8    A    
C8    C16   S    
C21   C22   A    
C7    S1    S    
C22   H3    S    
C17   N2    A    
C12   C23   S    
H13   O3    S    
C11   H16   S    
C29   C30   A    
C16   O8    A    
O2    S1    D    
O10   Zn2   S    
C29   H8    S    
O4    Zn2   S    
C28   C29   A    
C18   H19   S    
O11   S1    D    
C13   N1    A    
C19   H4    S    
C5    C6    A    
O9    Zn1   S    
C15   H18   S    
C14   H17   S    
C21   H1    S    
C10   C11   S    
C13   C19   S    
C10   H12   S    
C13   C17   A    
C15   N2    A    
C1    O4    A    
C1    C5    S    
C14   N1    A    
C3    C11   S    
C24   C25   A    
O6    Zn2   S    
C2    C32   A    
C18   C19   S    
C16   O7    A    
C22   C24   A    
N1    Zn2   S    
C32   H10   S    
C30   C31   A    
C26   H6    S    
C2    C28   A    
N2    Zn1   S    
C31   H9    S    
C28   H7    S    
O5    Zn1   S    
C25   C26   A    
C14   C15   A    
C12   C21   A    
C4    C30   S    
C20   C24   S    
C12   C26   A    
C8    C9    A    
C3    C5    A    
C19   H2    S    
