data_mof_unit_12271.cif
_audit_creation_date              2013-03-05T15:47:14-0500
_audit_creation_method            fapswitch 2.2
_symmetry_space_group_name_H-M    P1
_symmetry_Int_Tables_number       1
_space_group_crystal_system       triclinic
_cell_length_a                    27.738783
_cell_length_b                    10.951953
_cell_length_c                    9.896959
_cell_angle_alpha                 110.682687
_cell_angle_beta                  98.110889
_cell_angle_gamma                 92.257882
_cell_volume                      2771.76952554

loop_
_atom_site_label
_atom_site_type_symbol
_atom_site_description
_atom_site_fract_x
_atom_site_fract_y
_atom_site_fract_z
_atom_type_partial_charge
O1    O     O_R   0.504520 0.332330 0.577400 -0.483027
O2    O     O_R   0.495480 0.667670 0.422600 -0.511374
O3    O     O_R   0.490210 0.295500 0.332650 -0.618741
O4    O     O_R   0.509790 0.704500 0.667350 -0.613908
C1    C     C_R   0.495040 0.253338 0.441590 0.819681
C2    C     C_R   0.502368 0.746188 0.558600 0.820384
O5    O     O_R   0.437420 0.518430 0.622370 -0.546082
O6    O     O_R   0.562580 0.481570 0.377630 -0.607865
O7    O     O_R   0.423110 0.481600 0.377610 -0.540411
O8    O     O_R   0.576890 0.518400 0.622390 -0.558321
C3    C     C_R   0.407683 0.500123 0.500857 0.918868
C4    C     C_R   0.592245 0.500534 0.499213 0.912308
Cu1   Cu    Cu3+1 0.508480 0.521810 0.644910 1.108929
Cu2   Cu    Cu3+1 0.491520 0.478190 0.355090 1.074169
C5    C     C_R   0.173092 0.392152 0.429686 0.594852
C6    C     C_R   0.827630 0.586587 0.601969 0.596611
O9    O     O_2   0.193391 0.283795 0.354897 -0.501835
O10   O     O_2   0.808427 0.684901 0.698864 -0.497394
N1    N     N_R   0.201684 0.508150 0.501650 -0.446453
N2    N     N_R   0.797383 0.486727 0.496468 -0.451223
C7    C     C_R   0.181786 0.620894 0.572972 0.576093
C8    C     C_R   0.815352 0.384872 0.396937 0.584027
C9    C     C_R   0.277987 0.587411 0.445761 -0.183084
C10   C     C_R   0.720640 0.404918 0.544171 -0.187605
C11   C     C_R   0.328547 0.584890 0.444302 0.348848
C12   C     C_R   0.670291 0.409312 0.547267 0.358845
C13   C     C_R   0.330138 0.421825 0.561464 0.224080
C14   C     C_R   0.670190 0.582934 0.444880 0.223792
C15   C     C_R   0.280174 0.429764 0.566338 -0.147309
C16   C     C_R   0.720325 0.575430 0.441444 -0.130459
C17   C     C_R   0.253805 0.509986 0.506345 0.235271
C18   C     C_R   0.745521 0.487862 0.492044 0.238441
C19   C     C_R   0.101481 0.499190 0.506043 -0.091301
C20   C     C_R   0.898135 0.482375 0.511146 -0.092128
C21   C     C_R   0.122839 0.384731 0.434012 -0.066949
C22   C     C_R   0.878477 0.587329 0.610090 -0.070413
C23   C     C_R   0.094314 0.264006 0.374061 -0.158130
C24   C     C_R   0.909816 0.688615 0.718481 -0.161175
C25   C     C_R   0.130679 0.620587 0.570269 -0.134992
C26   C     C_R   0.866415 0.377505 0.404748 -0.130315
C27   C     C_R   0.354760 0.501774 0.502351 -0.190003
C28   C     C_R   0.644977 0.498478 0.497356 -0.178876
H1    H     H_    0.260988 0.368683 0.611008 0.201434
H2    H     H_    0.740316 0.640648 0.403674 0.194431
H3    H     H_    0.111378 0.174523 0.328070 0.228819
H4    H     H_    0.894961 0.764387 0.801456 0.230912
C29   C     C_R   0.969582 0.374587 0.424500 -0.006499
C30   C     C_R   0.030270 0.604966 0.596542 -0.009541
C31   C     C_R   0.980705 0.594361 0.616034 -0.021094
C32   C     C_R   0.021203 0.371751 0.439781 -0.019741
C33   C     C_R   0.949551 0.483393 0.517879 0.052513
C34   C     C_R   0.050908 0.491934 0.514007 0.047990
C35   C     C_R   0.937510 0.275270 0.313911 -0.105274
C36   C     C_R   0.058681 0.726683 0.647276 -0.086784
C37   C     C_R   0.886984 0.272512 0.306741 0.426133
C38   C     C_R   0.107748 0.736157 0.632432 0.442257
O11   O     O_2   0.783690 0.293475 0.289591 -0.481650
O12   O     O_2   0.211681 0.730886 0.651115 -0.487545
C39   C     C_R   0.044430 0.255065 0.381537 0.287954
C40   C     C_R   0.960549 0.691412 0.725975 0.281222
H5    H     H_    0.740763 0.337877 0.583368 0.159377
H6    H     H_    0.257240 0.648741 0.398838 0.163673
H7    H     H_    0.951149 0.198174 0.229750 0.213149
H8    H     H_    0.042353 0.817457 0.691177 0.204492
C41   C     C_2   0.489112 0.111328 0.412967 0.191612
C42   C     C_2   0.501336 0.887303 0.588139 0.209056
C43   C     C_2   0.475307 0.068957 0.516142 0.363669
C44   C     C_2   0.473100 0.927709 0.492118 0.341136
N3    N     N_2   0.478780 0.445430 0.137360 -0.094396
N4    N     N_2   0.521220 0.554570 0.862640 -0.052774
C45   C     C_2   0.498409 0.524750 0.082451 0.528394
C46   C     C_2   0.490831 0.501892 0.920762 0.648477
N5    N     N_R   0.354227 0.325108 0.605868 0.161663
O13   O     O_R   0.339855 0.290476 0.707899 -0.316277
O14   O     O_R   0.383618 0.254027 0.526151 -0.345439
N6    N     N_R   0.646194 0.680724 0.402008 0.131898
O15   O     O_R   0.660188 0.715116 0.299405 -0.287093
O16   O     O_R   0.615593 0.749121 0.479137 -0.369781
O17   O     O_3   0.529972 0.978935 0.710899 -0.704664
H9    H     H_    0.550008 0.932001 0.764166 0.356510
O18   O     O_3   0.498340 0.020720 0.282916 -0.695319
H10   H     H_    0.510265 0.068399 0.223771 0.354954
O19   O     O_3   0.449311 0.428826 0.830732 -0.632127
H11   H     H_    0.422957 0.437616 0.890532 0.346627
O20   O     O_3   0.524623 0.640683 0.173893 -0.630622
H12   H     H_    0.548815 0.618805 0.242706 0.382758
O21   O     O_3   0.562917 0.620905 0.947747 -0.582221
H13   H     H_    0.579630 0.655005 0.884622 0.379919
O22   O     O_3   0.458861 0.327257 0.042191 -0.630581
H14   H     H_    0.444731 0.283785 0.101702 0.384418
O23   O     O_3   0.644980 0.326709 0.596726 -0.683541
H15   H     H_    0.667995 0.270475 0.626957 0.352706
O24   O     O_3   0.353107 0.663013 0.387734 -0.675545
H16   H     H_    0.329589 0.715478 0.352579 0.344774
O25   O     O_3   0.859177 0.164782 0.202815 -0.639906
H17   H     H_    0.837966 0.128766 0.255175 0.367351
O26   O     O_3   0.131287 0.860327 0.676251 -0.641991
H18   H     H_    0.151133 0.861054 0.600728 0.360786
N7    N     N_R   0.020135 0.127074 0.349176 0.115259
O27   O     O_R   0.031275 0.025934 0.245134 -0.263837
O28   O     O_R   0.992798 0.108064 0.437926 -0.320273
N8    N     N_R   0.990643 0.783457 0.855063 0.123140
O29   O     O_R   0.977464 0.900256 0.917548 -0.292555
O30   O     O_R   0.027225 0.744752 0.922265 -0.293522
O31   O     O_3   0.442359 0.838382 0.372418 -0.657070
H19   H     H_    0.422279 0.887574 0.322102 0.354883
O32   O     O_3   0.464467 0.156593 0.645687 -0.610924
H20   H     H_    0.451281 0.106348 0.700608 0.368418

loop_
_geom_bond_atom_site_label_1
_geom_bond_atom_site_label_2
_geom_bond_distance
_ccdc_geom_bond_type
C42   C44   1.351555 D    
O21   H13   0.988734 S    
C11   O24   1.381908 S    
C10   H5    1.083307 S    
C13   C15   1.398637 A    
C39   N7    1.438460 S    
N5    O13   1.301805 A    
O25   H17   0.991165 S    
N1    C17   1.439059 S    
C8    O11   1.348417 S    
O26   H18   0.990828 S    
O20   H12   0.985157 S    
C19   C34   1.416798 A    
C30   C36   1.408168 A    
C42   O17   1.384839 S    
C20   C33   1.417788 A    
C19   C25   1.414419 A    
C31   C40   1.424014 A    
O1    C1    1.298132 A    
C32   C39   1.424725 A    
N1    C7    1.369490 A    
N6    O16   1.301295 A    
C5    N1    1.368318 A    
C40   N8    1.438146 S    
Cu1   N4    2.031270 S    
C14   C28   1.416084 A    
O4    Cu1   1.931839 S    
N3    C45   1.313824 D    
C4    C28   1.466394 S    
C45   O20   1.374683 S    
C9    H6    1.083230 S    
O19   H11   0.990608 S    
C41   C43   1.354890 D    
C32   C34   1.418382 A    
O32   H20   0.991746 S    
C6    N2    1.365328 A    
C29   C35   1.407321 A    
Cu1   Cu2   2.703789 S    
C15   H1    1.083234 S    
N5    O14   1.300299 A    
C16   H2    1.083196 S    
O2    C2    1.297895 A    
C38   O26   1.377435 S    
N3    O22   1.342820 S    
N4    O21   1.342257 S    
C5    C21   1.400682 A    
O18   H10   0.990793 S    
C29   C32   1.421232 A    
C35   C37   1.391873 A    
C36   C38   1.393160 A    
C43   C44   1.477135 S    
N6    O15   1.301374 A    
C1    C41   1.477049 S    
C11   C27   1.411051 A    
O23   H15   0.991770 S    
C29   C33   1.414896 A    
C31   C33   1.419112 A    
C12   O23   1.382284 S    
C9    C17   1.398683 A    
O5    C3    1.305220 A    
O7    Cu2   1.941915 S    
C10   C18   1.396338 A    
C13   C27   1.415223 A    
C41   O18   1.384790 S    
C25   C38   1.417373 A    
C7    C25   1.413968 A    
C30   C34   1.414546 A    
O6    C4    1.303371 A    
C26   C37   1.417251 A    
C8    C26   1.414656 A    
O24   H16   0.991717 S    
N8    O30   1.301666 A    
O7    C3    1.300567 A    
C23   C39   1.397520 A    
O3    Cu2   1.931838 S    
O8    C4    1.300161 A    
C24   C40   1.397291 A    
C37   O25   1.375546 S    
C30   C31   1.420920 A    
N7    O28   1.301743 A    
N2    C8    1.367217 A    
Cu2   N3    2.031268 S    
C20   C26   1.416598 A    
O4    C2    1.304315 A    
O1    Cu1   1.935653 S    
C44   O31   1.384991 S    
C23   H3    1.083461 S    
C14   N6    1.437910 S    
C12   C28   1.409814 A    
N2    C18   1.433755 S    
C5    O9    1.350175 S    
O6    Cu2   1.949559 S    
C21   C23   1.399008 A    
C10   C12   1.403611 A    
O3    C1    1.307449 A    
O8    Cu1   1.941920 S    
O31   H19   0.991650 S    
N7    O27   1.301462 A    
C14   C16   1.400800 A    
C7    O12   1.348743 S    
C15   C17   1.398587 A    
C6    C22   1.400877 A    
C16   C18   1.397265 A    
C35   H7    1.080345 S    
C43   O32   1.384798 S    
C36   H8    1.080810 S    
C22   C24   1.399028 A    
C19   C21   1.406066 A    
C3    C27   1.470925 S    
C20   C22   1.407993 A    
C9    C11   1.405849 A    
N8    O29   1.301617 A    
O2    Cu2   1.935654 S    
C24   H4    1.083457 S    
C46   O19   1.376545 S    
O17   H9    0.991097 S    
O5    Cu1   1.949559 S    
C45   C46   1.511798 S    
C6    O10   1.350070 S    
N4    C46   1.306618 D    
O22   H14   0.987787 S    
C13   N5    1.436430 S    
C2    C42   1.470211 S    
