data_mof_unit_58190.cif
_audit_creation_date              2012-12-11T14:50:40-0500
_audit_creation_method            fapswitch 2.2
_symmetry_space_group_name_H-M    P1
_symmetry_Int_Tables_number       1
_space_group_crystal_system       monoclinic
_cell_length_a                    20.969875
_cell_length_b                    7.145692
_cell_length_c                    20.01148
_cell_angle_alpha                 90.0
_cell_angle_beta                  101.697368
_cell_angle_gamma                 90.0
_cell_volume                      2936.33090718

loop_
_atom_site_label
_atom_site_type_symbol
_atom_type_description
_atom_site_fract_x
_atom_site_fract_y
_atom_site_fract_z
_atom_type_partial_charge
O1    O     O_R   0.423690 0.494470 0.435930 -0.521769
O2    O     O_R   0.576310 0.994470 0.564070 -0.521769
O3    O     O_R   0.556070 0.822310 0.435760 -0.537512
O4    O     O_R   0.443930 0.322310 0.564240 -0.537512
C1    C     C_R   0.575448 0.656289 0.420368 0.714823
C2    C     C_R   0.424552 0.156289 0.579632 0.714823
O5    O     O_R   0.422940 0.824080 0.428040 -0.544308
O6    O     O_R   0.577060 0.324080 0.571960 -0.544308
O7    O     O_R   0.442240 0.995960 0.556300 -0.536052
O8    O     O_R   0.557760 0.495960 0.443700 -0.536052
C3    C     C_R   0.398910 0.656398 0.410657 0.727996
C4    C     C_R   0.601089 0.156398 0.589343 0.727997
O9    O     O_3   0.506490 0.661310 0.542090 -0.370696
O10   O     O_3   0.493510 0.161310 0.457910 -0.370696
V1    V     V_3+5 0.498800 0.935560 0.492190 1.415537
V2    V     V_3+5 0.501200 0.435560 0.507810 1.415537
C5    C     C_R   0.838310 0.079657 0.857750 -0.047737
C6    C     C_R   0.161690 0.579657 0.142250 -0.047736
C7    C     C_R   0.661834 0.153274 0.642587 -0.150132
C8    C     C_R   0.338166 0.653274 0.357413 -0.150131
C9    C     C_R   0.771599 0.273261 0.684500 -0.182308
C10   C     C_R   0.228400 0.773258 0.315501 -0.182307
C11   C     C_R   0.715451 0.260489 0.633152 -0.231140
C12   C     C_R   0.284549 0.760487 0.366848 -0.231140
C13   C     C_R   0.664776 0.060078 0.705509 0.345029
C14   C     C_R   0.335224 0.560079 0.294491 0.345032
C15   C     C_R   0.723562 0.059875 0.755111 0.078385
C16   C     C_R   0.276438 0.559875 0.244889 0.078384
C17   C     C_R   0.776329 0.173704 0.745710 0.098878
C18   C     C_R   0.223670 0.673703 0.254291 0.098879
C19   C     C_R   0.832788 0.186415 0.797796 -0.207622
C20   C     C_R   0.167211 0.686414 0.202204 -0.207621
C21   C     C_R   0.787138 0.959604 0.864858 -0.182418
C22   C     C_R   0.212863 0.459606 0.135142 -0.182418
C23   C     C_R   0.730335 0.950665 0.814518 -0.168996
C24   C     C_R   0.269665 0.450667 0.185482 -0.169002
H1    H     H_    0.873022 0.274698 0.790956 0.109011
H2    H     H_    0.126977 0.774696 0.209044 0.109011
H3    H     H_    0.791089 0.872629 0.909868 0.118526
H4    H     H_    0.208911 0.372632 0.090131 0.118526
H5    H     H_    0.811573 0.360180 0.676091 0.127895
H6    H     H_    0.188426 0.860176 0.323910 0.127895
H7    H     H_    0.692115 0.855561 0.821809 0.147450
H8    H     H_    0.307886 0.355565 0.178190 0.147453
H9    H     H_    0.713307 0.337739 0.586161 0.138097
H10   H     H_    0.286692 0.837736 0.413840 0.138097
C25   C     C_3   0.248156 0.265255 0.810740 -0.398559
C26   C     C_3   0.751844 0.765255 0.189260 -0.398558
C27   C     C_3   0.256633 0.909545 0.801303 -0.377417
C28   C     C_3   0.743368 0.409544 0.198698 -0.377416
C29   C     C_3   0.310870 0.934384 0.757596 0.347743
C30   C     C_3   0.689130 0.434383 0.242404 0.347743
H11   H     H_    0.266259 0.278558 0.866432 0.148771
H12   H     H_    0.733741 0.778557 0.133568 0.148771
H13   H     H_    0.228294 0.779828 0.785276 0.166535
H14   H     H_    0.771707 0.279827 0.214725 0.166535
H15   H     H_    0.279815 0.890398 0.855950 0.100596
H16   H     H_    0.720186 0.390397 0.144051 0.100596
H17   H     H_    0.358102 0.951413 0.793788 0.037208
H18   H     H_    0.641898 0.451411 0.206212 0.037209
C31   C     C_1   0.380564 0.150792 0.627423 -0.225027
C32   C     C_1   0.619435 0.650792 0.372577 -0.225029
C33   C     C_3   0.209144 0.081769 0.793271 0.197215
C34   C     C_3   0.790857 0.581768 0.206729 0.197214
C35   C     C_3   0.301328 0.282898 0.766589 0.216250
C36   C     C_3   0.698672 0.782897 0.233411 0.216251
C37   C     C_3   0.297646 0.117297 0.714997 0.158720
C38   C     C_3   0.702354 0.617297 0.285002 0.158720
C39   C     C_3   0.226928 0.109167 0.671539 -0.398209
C40   C     C_3   0.773072 0.609167 0.328461 -0.398208
C41   C     C_3   0.175399 0.090855 0.717113 -0.359028
C42   C     C_3   0.824601 0.590855 0.282888 -0.359028
C43   C     C_1   0.344003 0.140662 0.667566 -0.018204
C44   C     C_1   0.655997 0.640662 0.332433 -0.018206
C45   C     C_1   0.160266 0.073083 0.837892 -0.051503
C46   C     C_1   0.839735 0.573083 0.162109 -0.051504
C47   C     C_1   0.121331 0.078303 0.875378 -0.194443
C48   C     C_1   0.878670 0.578303 0.124623 -0.194443
H19   H     H_    0.141424 0.212121 0.707888 0.150628
H20   H     H_    0.858576 0.712121 0.292112 0.150628
H21   H     H_    0.145791 0.962402 0.702707 0.157679
H22   H     H_    0.854209 0.462402 0.297294 0.157679
H23   H     H_    0.216685 0.237956 0.639887 0.141356
H24   H     H_    0.783314 0.737957 0.360113 0.141356
H25   H     H_    0.213958 0.385815 0.798805 0.127703
H26   H     H_    0.786042 0.885815 0.201195 0.127703
H27   H     H_    0.285556 0.407434 0.734590 0.122956
H28   H     H_    0.714443 0.907434 0.265410 0.122956
H29   H     H_    0.222042 0.988749 0.635594 0.194959
H30   H     H_    0.777958 0.488749 0.364406 0.194959
O11   O     O_R   0.942280 0.741210 0.056360 -0.534015
O12   O     O_R   0.057720 0.241210 0.943640 -0.534015
O13   O     O_R   0.077070 0.409690 0.071960 -0.537847
O14   O     O_R   0.922930 0.909690 0.928040 -0.537847
C49   C     C_R   0.100930 0.577706 0.089428 0.687531
C50   C     C_R   0.899069 0.077706 0.910572 0.687531
O15   O     O_R   0.943940 0.411580 0.064250 -0.535223
O16   O     O_R   0.056060 0.911580 0.935750 -0.535223
O17   O     O_R   0.923670 0.239840 0.935920 -0.534948
O18   O     O_R   0.076330 0.739840 0.064080 -0.534948
C51   C     C_R   0.924374 0.578587 0.078987 0.718700
C52   C     C_R   0.075626 0.078587 0.921013 0.718700
O19   O     O_3   0.993540 0.572620 0.957940 -0.371426
O20   O     O_3   0.006460 0.072620 0.042060 -0.371425
V3    V     V_3+5 0.001200 0.298330 0.007800 1.410790
V4    V     V_3+5 0.998800 0.798330 0.992200 1.410789
O21   O     O_3   0.312821 0.779427 0.713207 -0.577558
C53   C     C_3   0.372641 0.679179 0.730140 0.050472
H31   H     H_    0.365442 0.543147 0.703377 0.179336
H32   H     H_    0.387066 0.653363 0.786021 0.155164
C54   C     C_3   0.428376 0.771560 0.703688 -0.353965
H33   H     H_    0.413346 0.786703 0.647621 0.227432
H34   H     H_    0.439770 0.909893 0.728160 0.186105
C55   C     C_3   0.490077 0.652841 0.718937 -0.762215
H35   H     H_    0.510862 0.654817 0.774525 0.220870
H36   H     H_    0.526629 0.711317 0.691669 0.269955
H37   H     H_    0.479702 0.506374 0.701453 0.219226
O22   O     O_3   0.687180 0.279426 0.286793 -0.577558
C56   C     C_3   0.627359 0.179179 0.269860 0.050472
H38   H     H_    0.634558 0.043146 0.296623 0.179335
H39   H     H_    0.612935 0.153361 0.213979 0.155165
C57   C     C_3   0.571625 0.271561 0.296312 -0.353965
H40   H     H_    0.586654 0.286705 0.352378 0.227432
H41   H     H_    0.560230 0.409893 0.271839 0.186106
C58   C     C_3   0.509923 0.152842 0.281063 -0.762219
H42   H     H_    0.489138 0.154818 0.225475 0.220872
H43   H     H_    0.473372 0.211320 0.308331 0.269955
H44   H     H_    0.520298 0.006375 0.298547 0.219227
O23   O     O_3   0.608449 0.988840 0.721867 -0.586290
C59   C     C_3   0.572580 0.137816 0.743737 0.077799
H45   H     H_    0.521592 0.129448 0.714858 0.115726
H46   H     H_    0.589888 0.280876 0.733092 0.115036
C60   C     C_3   0.572599 0.119356 0.820099 -0.307507
H47   H     H_    0.538819 0.005461 0.828068 0.182080
H48   H     H_    0.621890 0.083687 0.848928 0.205797
C61   C     C_3   0.552453 0.301954 0.849358 -0.870577
H49   H     H_    0.588974 0.412962 0.846805 0.237537
H50   H     H_    0.549433 0.281427 0.903621 0.231913
H51   H     H_    0.504356 0.347794 0.820126 0.256906
O24   O     O_3   0.391551 0.488842 0.278133 -0.586290
C62   C     C_3   0.427421 0.637818 0.256264 0.077794
H52   H     H_    0.478409 0.629442 0.285140 0.115731
H53   H     H_    0.410115 0.780878 0.266914 0.115034
C63   C     C_3   0.427397 0.619372 0.179901 -0.307504
H54   H     H_    0.461171 0.505463 0.171926 0.182083
H55   H     H_    0.378103 0.583728 0.151072 0.205794
C64   C     C_3   0.447551 0.801969 0.150647 -0.870579
H56   H     H_    0.411035 0.912989 0.153204 0.237535
H57   H     H_    0.450569 0.781449 0.096383 0.231916
H58   H     H_    0.495651 0.847787 0.179880 0.256911
O25   O     O_3   0.366628 0.320353 0.801729 -0.593741
C65   C     C_3   0.387530 0.241062 0.867608 0.073161
H59   H     H_    0.433399 0.163932 0.867813 0.140168
H60   H     H_    0.354878 0.134761 0.882685 0.104153
C66   C     C_3   0.401291 0.397433 0.920865 -0.304335
H61   H     H_    0.437808 0.495543 0.907296 0.194383
H62   H     H_    0.355879 0.477347 0.921032 0.187610
C67   C     C_3   0.427319 0.319575 0.992243 -0.860595
H63   H     H_    0.390857 0.224979 0.007751 0.233376
H64   H     H_    0.437390 0.436675 0.029377 0.229689
H65   H     H_    0.473283 0.241097 0.993495 0.232454
O26   O     O_3   0.633372 0.820352 0.198270 -0.593742
C68   C     C_3   0.612471 0.741058 0.132392 0.073159
H66   H     H_    0.566602 0.663927 0.132187 0.140167
H67   H     H_    0.645123 0.634758 0.117315 0.104154
C69   C     C_3   0.598709 0.897428 0.079133 -0.304336
H68   H     H_    0.562192 0.995539 0.092703 0.194385
H69   H     H_    0.644121 0.977341 0.078966 0.187610
C70   C     C_3   0.572680 0.819568 0.007756 -0.860595
H70   H     H_    0.609142 0.724971 0.992248 0.233376
H71   H     H_    0.562609 0.936666 0.970622 0.229690
H72   H     H_    0.526716 0.741090 0.006505 0.232455

loop_
_geom_bond_atom_site_label_1
_geom_bond_atom_site_label_2
_ccdc_geom_bond_type
C36   C38   S    
C35   O25   S    
C27   C33   S    
C66   H62   S    
C28   C34   S    
C70   H70   S    
C59   H46   S    
C68   H66   S    
O1    C3    A    
C13   O23   S    
C2    O7    A    
O20   V4    S    
C55   H35   S    
C54   H34   S    
C10   H6    S    
O5    C3    A    
C21   H3    S    
C33   C45   S    
C11   H9    S    
C25   H25   S    
C2    C31   S    
C68   H67   S    
C46   C48   T    
O23   C59   S    
C14   O24   S    
C61   H51   S    
C25   C33   S    
C40   H24   S    
C26   C34   S    
C15   C17   A    
C38   C44   S    
C50   O17   A    
C27   H15   S    
C53   H31   S    
C36   O26   S    
C39   C41   S    
O22   C56   S    
C30   H18   S    
C64   H56   S    
O13   V3    S    
C67   H64   S    
C8    C12   A    
C27   C29   S    
C58   H44   S    
C28   C30   S    
O21   C53   S    
C29   O21   S    
C37   C43   S    
C20   H2    S    
C67   H65   S    
C23   H7    S    
C30   C38   S    
O12   C52   A    
C25   H11   S    
O15   V3    S    
C10   C12   A    
O5    V1    S    
O25   C65   S    
O2    C4    A    
O13   C49   A    
C66   C67   S    
C69   H69   S    
C6    C49   S    
C70   H71   S    
O11   V4    S    
C47   C52   S    
C40   H30   S    
C5    C21   A    
O11   C51   A    
C63   C64   S    
C39   H29   S    
C41   H19   S    
O20   V3    S    
C35   H27   S    
C5    C50   S    
C56   H39   S    
C31   C43   T    
O17   V3    S    
C3    C8    S    
C40   C42   S    
C28   H16   S    
C64   H58   S    
O24   C62   S    
C63   H55   S    
C62   C63   S    
C26   H12   S    
C49   O18   A    
C61   H49   S    
C26   H26   S    
C35   C37   S    
C27   H13   S    
C9    C17   A    
C28   H14   S    
C19   H1    S    
C37   C39   S    
O19   V4    S    
O4    V2    S    
C7    C11   A    
C39   H23   S    
C18   C20   A    
C60   C61   S    
C60   H47   S    
C6    C22   A    
C65   C66   S    
O6    C4    A    
C68   C69   S    
C34   C46   S    
O19   V3    S    
O1    V2    S    
C29   C37   S    
O14   C50   A    
O2    V1    S    
C45   C47   T    
C9    H5    S    
O4    C2    A    
C65   H60   S    
C9    C11   A    
C58   H42   S    
C5    C19   A    
C70   H72   S    
C22   H4    S    
C24   H8    S    
C59   C60   S    
C6    C20   A    
C57   H41   S    
O3    V1    S    
C61   H50   S    
C60   H48   S    
O26   C68   S    
C56   C57   S    
O14   V4    S    
C10   C18   A    
C54   H33   S    
C64   H57   S    
C17   C19   A    
C14   C16   A    
C33   C41   S    
C63   H54   S    
O3    C1    A    
C55   H36   S    
C56   H38   S    
C41   H21   S    
C13   C15   A    
O18   V4    S    
O16   V4    S    
C53   C54   S    
C15   C23   A    
C57   C58   S    
C62   H53   S    
C59   H45   S    
O7    V1    S    
C12   H10   S    
C1    O8    A    
C42   H20   S    
O16   C52   A    
C62   H52   S    
C36   H28   S    
C67   H63   S    
C69   H68   S    
C8    C14   A    
C4    C7    S    
C16   C18   A    
C21   C23   A    
C53   H32   S    
C1    C32   S    
C54   C55   S    
C22   C24   A    
C34   C42   S    
C7    C13   A    
O15   C51   A    
C55   H37   S    
O12   V3    S    
C29   H17   S    
C65   H59   S    
C16   C24   A    
C69   C70   S    
O6    V2    S    
O9    V2    S    
C66   H61   S    
C58   H43   S    
C38   C40   S    
O10   V1    S    
C32   C44   T    
O8    V2    S    
C26   C36   S    
C57   H40   S    
C25   C35   S    
C42   H22   S    
C48   C51   S    
C30   O22   S    
