data_mof_unit_26145.cif
_audit_creation_date              2012-10-26T20:57:29-0400
_audit_creation_method            fapswitch 2.2
_symmetry_space_group_name_H-M    P1
_symmetry_Int_Tables_number       1
_space_group_crystal_system       triclinic
_cell_length_a                    14.723982
_cell_length_b                    14.635284
_cell_length_c                    15.846521
_cell_angle_alpha                 76.557254
_cell_angle_beta                  102.566715
_cell_angle_gamma                 114.660735
_cell_volume                      2990.07705802

loop_
_atom_site_label
_atom_site_type_symbol
_atom_type_description
_atom_site_fract_x
_atom_site_fract_y
_atom_site_fract_z
_atom_type_partial_charge
C1    C     C_R   0.880772 0.312067 0.513076 0.541989
C2    C     C_R   0.362255 0.922396 0.488674 0.014986
C3    C     C_R   0.677695 0.003282 0.503495 -0.002262
C4    C     C_R   0.325166 0.999871 0.478054 -0.001376
C5    C     C_R   0.535616 0.051219 0.500998 0.044854
C6    C     C_R   0.468033 0.948456 0.495990 0.044396
C7    C     C_R   0.507994 0.876293 0.493853 -0.131260
C8    C     C_R   0.494993 0.125541 0.493554 -0.131924
C9    C     C_R   0.610737 0.903636 0.497093 -0.134855
C10   C     C_R   0.391804 0.100180 0.481361 -0.135714
C11   C     C_R   0.709762 0.659530 0.346790 -0.158458
C12   C     C_R   0.119622 0.688387 0.484567 0.550055
C13   C     C_R   0.286080 0.333545 0.647801 -0.153463
C14   C     C_R   0.791718 0.630540 0.370998 0.055722
C15   C     C_R   0.203790 0.362031 0.623569 0.058808
C16   C     C_R   0.999424 0.499733 0.660092 0.552782
C17   C     C_R   0.000175 0.499537 0.340012 0.530441
C18   C     C_R   0.717332 0.513230 0.491712 0.039636
C19   C     C_R   0.285004 0.490734 0.511282 0.031296
C20   C     C_R   0.629324 0.536105 0.468409 0.002573
C21   C     C_R   0.371721 0.465701 0.532855 0.001304
C22   C     C_R   0.628709 0.613220 0.395546 0.039867
C23   C     C_R   0.780674 0.030289 0.502318 -0.109950
C24   C     C_R   0.370137 0.384899 0.602787 0.036951
C25   C     C_R   0.542671 0.485697 0.513982 0.022757
C26   C     C_R   0.458695 0.516642 0.487659 0.023170
C27   C     C_R   0.464253 0.596778 0.416668 -0.146476
C28   C     C_R   0.536325 0.404185 0.583757 -0.144149
C29   C     C_R   0.547086 0.643120 0.371267 -0.133743
C30   C     C_R   0.451904 0.355205 0.627081 -0.130154
C31   C     C_3   0.021953 0.418941 0.049488 -0.103411
C32   C     C_3   0.975110 0.573836 0.951719 -0.098523
C33   C     C_3   0.929610 0.407759 0.977611 -0.102014
C34   C     C_R   0.221354 0.976787 0.462195 -0.108713
C35   C     C_3   0.067433 0.585013 0.023501 -0.099814
C36   C     C_1   0.998163 0.498814 0.749873 -0.029668
C37   C     C_1   0.000179 0.497910 0.250590 -0.046710
C38   C     C_3   0.090261 0.507887 0.988017 -0.097905
C39   C     C_3   0.906796 0.484907 0.013135 -0.100454
C40   C     C_3   0.997932 0.496732 0.917714 0.052815
C41   C     C_3   0.999130 0.496108 0.083409 0.051319
C42   C     C_1   0.997731 0.497770 0.825667 -0.060480
C43   C     C_1   0.999811 0.496726 0.175149 -0.070082
C44   C     C_R   0.814344 0.204110 0.513608 -0.006127
C45   C     C_R   0.848424 0.131272 0.502341 0.260928
C46   C     C_R   0.187663 0.797319 0.476363 -0.009638
C47   C     C_3   0.023840 0.856049 0.340832 0.016009
C48   C     C_3   0.073554 0.958474 0.282535 -0.293214
C49   C     C_3   0.024075 0.956327 0.187422 -0.486257
C50   C     C_3   0.965656 0.202417 0.406823 0.037460
C51   C     C_3   0.936337 0.122136 0.347965 -0.288573
C52   C     C_3   0.968511 0.171522 0.257476 -0.495809
C53   C     C_R   0.152602 0.877396 0.455206 0.269160
C54   C     C_R   0.712391 0.175579 0.519060 -0.180265
C55   C     C_R   0.291976 0.821263 0.492385 -0.186838
C56   C     C_R   0.641380 0.077296 0.508439 0.017590
Cu1   Cu    Cu3+1 0.081740 0.475690 0.522610 0.936262
Cu2   Cu    Cu3+1 0.918260 0.524310 0.477390 0.948361
H1    H     H_    0.873012 0.335021 0.957404 0.103617
H2    H     H_    0.595142 0.375153 0.606013 0.090520
H3    H     H_    0.041210 0.355399 0.091013 0.101758
H4    H     H_    0.955858 0.637404 0.910258 0.109755
H5    H     H_    0.831498 0.475444 0.024855 0.106099
H6    H     H_    0.165570 0.517345 0.976331 0.106753
H7    H     H_    0.637766 0.846520 0.492898 0.118105
H8    H     H_    0.363974 0.159993 0.473574 0.114490
H9    H     H_    0.317189 0.759294 0.510048 0.133110
H10   H     H_    0.690461 0.232107 0.531796 0.120902
H11   H     H_    0.808100 0.973919 0.497002 0.129521
H12   H     H_    0.124039 0.657744 0.043724 0.103269
H13   H     H_    0.193222 0.036832 0.451431 0.121710
H14   H     H_    0.461586 0.798657 0.485239 0.101944
H15   H     H_    0.540497 0.205431 0.492640 0.105642
H16   H     H_    0.547111 0.703137 0.316241 0.106288
H17   H     H_    0.450472 0.292824 0.680141 0.109843
H18   H     H_    0.941097 0.835096 0.326944 0.146243
H19   H     H_    0.039505 0.795312 0.322911 0.127070
H20   H     H_    0.067222 0.020548 0.306694 0.168112
H21   H     H_    0.154822 0.975214 0.284730 0.151766
H22   H     H_    0.030872 0.895454 0.161539 0.147644
H23   H     H_    0.279048 0.550331 0.458739 0.117323
H24   H     H_    0.062075 0.030767 0.147003 0.148685
H25   H     H_    0.943049 0.942448 0.182180 0.141349
H26   H     H_    0.047763 0.249255 0.408550 0.169894
H27   H     H_    0.926472 0.255623 0.377683 0.123225
H28   H     H_    0.972702 0.067324 0.379060 0.186005
H29   H     H_    0.853276 0.079543 0.340041 0.153326
H30   H     H_    0.933408 0.227353 0.225955 0.152156
H31   H     H_    0.943730 0.112117 0.215434 0.148998
H32   H     H_    0.051893 0.210980 0.262787 0.143821
H33   H     H_    0.725919 0.458205 0.547761 0.116101
H34   H     H_    0.138679 0.322143 0.658001 0.138062
H35   H     H_    0.852707 0.663440 0.331918 0.109713
H36   H     H_    0.709303 0.717077 0.289741 0.082668
H37   H     H_    0.283893 0.271468 0.701304 0.094905
H38   H     H_    0.404986 0.625057 0.393548 0.089578
N1    N     N_R   0.795440 0.560790 0.443380 -0.225894
N2    N     N_R   0.204560 0.439210 0.556620 -0.234735
O1    O     O_R   0.977900 0.338120 0.529810 -0.466558
O2    O     O_3   0.948040 0.156215 0.494058 -0.557036
O3    O     O_R   0.022100 0.661880 0.470190 -0.457423
O4    O     O_R   0.839850 0.379180 0.491620 -0.519584
O5    O     O_R   0.160150 0.620820 0.508380 -0.519566
O6    O     O_R   0.069010 0.479460 0.640020 -0.498094
O7    O     O_R   0.930990 0.520540 0.359980 -0.505829
O8    O     O_R   0.930960 0.520530 0.601820 -0.495246
O9    O     O_R   0.069040 0.479470 0.398180 -0.511163
O10   O     O_3   0.051558 0.860819 0.431727 -0.552052

loop_
_geom_bond_atom_site_label_1
_geom_bond_atom_site_label_2
_ccdc_geom_bond_type
C21   C26   A    
C23   C45   A    
C22   C29   A    
C27   C29   A    
C31   H3    S    
C5    C56   A    
C3    C23   A    
C1    O1    A    
C52   H31   S    
C50   H26   S    
C39   C41   S    
C25   C28   A    
C26   C27   A    
C33   C39   S    
C13   H37   S    
C18   H33   S    
C48   H21   S    
C19   C21   A    
C47   H18   S    
C2    C55   A    
C17   O9    A    
C5    C6    A    
C11   C14   A    
C54   H10   S    
C20   C25   A    
Cu1   O1    S    
C32   C39   S    
C48   H20   S    
C23   H11   S    
C50   H27   S    
C15   H34   S    
C52   H32   S    
C16   O6    A    
C35   H12   S    
C46   C55   A    
C31   C33   S    
Cu2   O4    S    
C18   N1    A    
C14   H35   S    
C16   O8    A    
C40   C42   S    
C33   H1    S    
C41   C43   S    
C27   H38   S    
C2    C6    A    
Cu2   N1    S    
C51   H28   S    
C19   N2    A    
C38   H6    S    
C10   H8    S    
Cu1   O5    S    
C54   C56   A    
C33   C40   S    
C51   C52   S    
C32   C35   S    
C52   H30   S    
C35   C38   S    
C12   O5    A    
C12   C46   S    
C51   H29   S    
C7    H14   S    
C29   H16   S    
C25   C26   A    
C13   C24   A    
Cu2   O8    S    
C49   H24   S    
C37   C43   T    
C2    C4    A    
C3    C9    A    
C17   O7    A    
C3    C56   A    
C1    C44   S    
C47   C48   S    
C9    H7    S    
C50   C51   S    
Cu2   O3    S    
C17   C37   S    
C28   H2    S    
C11   H36   S    
C48   C49   S    
Cu1   O9    S    
C20   C22   A    
C13   C15   A    
C47   H19   S    
C15   N2    A    
C4    C10   A    
C44   C45   A    
C14   N1    A    
C7    C9    A    
Cu1   O6    S    
C31   C41   S    
C45   O2    S    
C36   C42   T    
C5    C8    A    
C55   H9    S    
C49   H22   S    
C6    C7    A    
C39   H5    S    
C11   C22   A    
C50   O2    S    
C31   C38   S    
Cu2   O7    S    
C49   H25   S    
C28   C30   A    
C32   H4    S    
C12   O3    A    
C16   C36   S    
C38   C40   S    
C30   H17   S    
C53   O10   S    
Cu1   Cu2   S    
Cu1   N2    S    
C34   H13   S    
C46   C53   A    
C8    H15   S    
C18   C20   A    
C32   C40   S    
C4    C34   A    
C35   C41   S    
C24   C30   A    
C44   C54   A    
C34   C53   A    
C8    C10   A    
C47   O10   S    
C21   C24   A    
C19   H23   S    
C1    O4    A    
