data_mof_unit_20615.cif
_audit_creation_date              2013-03-05T16:33:55-0500
_audit_creation_method            fapswitch 2.2
_symmetry_space_group_name_H-M    P1
_symmetry_Int_Tables_number       1
_space_group_crystal_system       triclinic
_cell_length_a                    17.70126
_cell_length_b                    10.849368
_cell_length_c                    9.566539
_cell_angle_alpha                 90.192246
_cell_angle_beta                  89.876684
_cell_angle_gamma                 89.987648
_cell_volume                      1837.21510086

loop_
_atom_site_label
_atom_site_type_symbol
_atom_site_description
_atom_site_fract_x
_atom_site_fract_y
_atom_site_fract_z
_atom_type_partial_charge
O1    O     O_R   0.500000 0.319640 0.618810 -0.571563
O2    O     O_R   0.500010 0.319680 0.381230 -0.525352
C1    C     C_R   0.496213 0.262633 0.499302 0.867841
O3    O     O_R   0.391250 0.499990 0.618840 -0.609510
O4    O     O_R   0.391260 0.500020 0.381250 -0.590467
C2    C     C_R   0.355526 0.499641 0.500222 0.765324
Cu1   Cu    Cu3+1 0.500000 0.499980 0.640670 0.981311
Cu2   Cu    Cu3+1 0.500000 0.500020 0.359330 1.036247
O5    O     O_R   0.499990 0.680320 0.618770 -0.588839
O6    O     O_R   0.500000 0.680360 0.381190 -0.540216
O7    O     O_R   0.608740 0.499980 0.618750 -0.554919
O8    O     O_R   0.608750 0.500010 0.381160 -0.586186
C3    C     C_R   0.499379 0.737441 0.500247 0.836066
C4    C     C_R   0.644218 0.497379 0.500049 0.862012
C5    C     C_R   0.846281 0.425089 0.599899 -0.201102
H1    H     H_    0.877742 0.369073 0.673187 0.174925
C6    C     C_R   0.767168 0.419877 0.598472 0.320932
C7    C     C_R   0.727028 0.492889 0.500896 -0.152659
C8    C     C_R   0.766886 0.567160 0.406289 -0.227044
H2    H     H_    0.737130 0.625567 0.333516 0.189887
C9    C     C_R   0.845480 0.569808 0.407573 -0.130046
H3    H     H_    0.875362 0.627617 0.333662 0.152713
C10   C     C_R   0.885053 0.498962 0.504360 0.074288
C11   C     C_1   0.965779 0.500071 0.504027 -0.020846
C12   C     C_1   0.033537 0.500151 0.503425 -0.055293
C13   C     C_R   0.153751 0.493092 0.628587 -0.151876
H4    H     H_    0.123712 0.488237 0.727237 0.135087
C14   C     C_R   0.232492 0.492871 0.627930 -0.202837
H5    H     H_    0.261948 0.487786 0.726789 0.138498
C15   C     C_R   0.272401 0.499150 0.500869 -0.020249
C16   C     C_R   0.232069 0.505196 0.374611 -0.174914
H6    H     H_    0.261219 0.510092 0.275180 0.144028
C17   C     C_R   0.153306 0.505532 0.375624 -0.153844
H7    H     H_    0.122898 0.510460 0.277608 0.134512
C18   C     C_R   0.114252 0.499687 0.502542 0.144615
C19   C     C_R   0.508346 0.064958 0.619945 0.101600
C20   C     C_R   0.493176 0.129018 0.496817 -0.235888
C21   C     C_R   0.482455 0.061567 0.371210 0.337555
C22   C     C_R   0.486956 0.933426 0.373972 -0.188088
H8    H     H_    0.474659 0.883032 0.279154 0.236544
C23   C     C_R   0.500029 0.870642 0.499372 -0.160903
C24   C     C_R   0.513335 0.938128 0.621139 0.072878
C25   C     C_3   0.475855 0.928823 0.760910 -0.416152
C26   C     C_3   0.468344 0.068817 0.758460 -0.079930
H9    H     H_    0.421564 0.877270 0.756846 0.192522
H10   H     H_    0.515768 0.896081 0.842085 0.244736
H11   H     H_    0.502850 0.116386 0.839306 0.230500
C27   C     C_R   0.566222 0.505773 0.072743 0.183568
N1    N     N_R   0.500470 0.500930 0.147930 -0.172831
C28   C     C_R   0.435151 0.482140 0.074310 0.010672
H12   H     H_    0.382295 0.468672 0.128541 0.137988
C29   C     C_R   0.435131 0.482367 0.926037 -0.076669
H13   H     H_    0.382263 0.469179 0.872070 0.129344
N2    N     N_R   0.500480 0.500890 0.852020 -0.179973
C30   C     C_R   0.566274 0.503930 0.925580 0.266266
C31   C     C_3   0.625909 0.600162 0.914804 -0.511422
C32   C     C_3   0.624849 0.605670 0.073725 0.103480
H14   H     H_    0.679580 0.562099 0.872321 0.200337
H15   H     H_    0.605829 0.684973 0.861444 0.231011
H16   H     H_    0.678968 0.576398 0.121858 0.110877
C33   C     C_3   0.385828 0.114491 0.749728 -0.418938
C34   C     C_3   0.348338 0.115520 0.893999 -0.275096
C35   C     C_3   0.266562 0.159260 0.885270 -0.852042
H17   H     H_    0.264058 0.254202 0.842293 0.245174
H18   H     H_    0.233190 0.096380 0.817470 0.258363
H19   H     H_    0.241104 0.159898 0.991451 0.260303
H20   H     H_    0.349660 0.021530 0.939848 0.247544
H21   H     H_    0.379820 0.179316 0.963694 0.273568
H22   H     H_    0.384778 0.209933 0.708541 0.214745
H23   H     H_    0.352782 0.055658 0.676521 0.210269
N3    N     N_R   0.729152 0.337126 0.692356 0.117788
O9    O     O_R   0.756594 0.317008 0.816327 -0.364261
O10   O     O_R   0.673922 0.268406 0.647760 -0.357869
N4    N     N_R   0.596283 0.723433 0.126794 0.168827
O11   O     O_R   0.533955 0.770306 0.078253 -0.385898
O12   O     O_R   0.635571 0.785553 0.217597 -0.358875
N5    N     N_R   0.460359 0.119414 0.243135 0.127776
O13   O     O_R   0.399049 0.185552 0.239486 -0.411210
O14   O     O_R   0.492258 0.086349 0.126256 -0.368717

loop_
_geom_bond_atom_site_label_1
_geom_bond_atom_site_label_2
_geom_bond_distance
_ccdc_geom_bond_type
C33   H23   1.113099 S    
C27   C30   1.407913 A    
C30   C31   1.488537 S    
C35   H18   1.110820 S    
C23   C24   1.394289 A    
C4    C7    1.466681 S    
C19   C24   1.378930 A    
C8    H2    1.080769 S    
C3    C23   1.445244 S    
C27   C32   1.500739 S    
C22   C23   1.401177 A    
N5    O13   1.301508 A    
Cu1   O7    1.935773 S    
C13   H4    1.083669 S    
C20   C21   1.417941 A    
N4    O12   1.300518 A    
C34   H20   1.111669 S    
C19   C20   1.396205 A    
C8    C9    1.391602 A    
C21   C22   1.392856 A    
O7    C4    1.296686 A    
C5    H1    1.084174 S    
C31   C32   1.521370 S    
C5    C6    1.401646 A    
C7    C8    1.403073 A    
O5    C3    1.294050 A    
C28   C29   1.418471 A    
C10   C11   1.428993 S    
C16   C17   1.394226 A    
C26   H11   1.112247 S    
C5    C10   1.396854 A    
C35   H19   1.110373 S    
C9    H3    1.083791 S    
O3    Cu1   1.936755 S    
C29   N2    1.370178 A    
C17   H7    1.083657 S    
N5    O14   1.300855 A    
N4    O11   1.301927 A    
Cu1   Cu2   2.691451 S    
C11   C12   1.199404 T    
O3    C2    1.300248 A    
C22   H8    1.080133 S    
N3    O10   1.301404 A    
C32   H16   1.110552 S    
C28   H12   1.079065 S    
O1    C1    1.299892 A    
C32   N4    1.462914 S    
C25   C26   1.524886 S    
C34   C35   1.525778 S    
C16   H6    1.082649 S    
C15   C16   1.406101 A    
Cu2   O8    1.936754 S    
C6    C7    1.418190 A    
C25   H9    1.112717 S    
C12   C18   1.428781 S    
C27   N1    1.368003 A    
C2    C15   1.471422 S    
O8    C4    1.300713 A    
C6    N3    1.438263 S    
C9    C10   1.395036 A    
C19   C26   1.501545 S    
C24   C25   1.495116 S    
C29   H13   1.079087 S    
C33   H22   1.109314 S    
Cu1   O5    1.968458 S    
N2    C30   1.362381 A    
C14   H5    1.082494 S    
O1    Cu1   1.967021 S    
O2    Cu2   1.968458 S    
O6    C3    1.294645 A    
O4    Cu2   1.935775 S    
C21   N5    1.433589 S    
C26   C33   1.544835 S    
C13   C14   1.393815 A    
C31   H15   1.112381 S    
C34   H21   1.110329 S    
C14   C15   1.406445 A    
O2    C1    1.291441 A    
N3    O9    1.301651 A    
O4    C2    1.300942 A    
C17   C18   1.397509 A    
C31   H14   1.111457 S    
C33   C34   1.530151 S    
C25   H10   1.110188 S    
C35   H17   1.111278 S    
C13   C18   1.397196 A    
C1    C20   1.450768 S    
Cu2   O6    1.967021 S    
N1    C28   1.370067 A    
Cu1   N2    2.021915 S    
Cu2   N1    2.022423 S    
