data_mof_unit_26136.cif
_audit_creation_date              2012-12-11T16:24:23-0500
_audit_creation_method            fapswitch 2.2
_symmetry_space_group_name_H-M    P1
_symmetry_Int_Tables_number       1
_space_group_crystal_system       triclinic
_cell_length_a                    14.695125
_cell_length_b                    14.708479
_cell_length_c                    33.304141
_cell_angle_alpha                 95.97062
_cell_angle_beta                  96.053722
_cell_angle_gamma                 61.293993
_cell_volume                      6266.76339661

loop_
_atom_site_label
_atom_site_type_symbol
_atom_type_description
_atom_site_fract_x
_atom_site_fract_y
_atom_site_fract_z
_atom_type_partial_charge
C1    C     C_R   0.390622 0.700599 0.446142 0.562411
C2    C     C_1   0.317873 0.330872 0.229518 0.094291
C3    C     C_2   0.509265 0.811659 0.423987 0.299492
C4    C     C_2   0.194613 0.776135 0.314107 0.294979
C5    C     C_2   0.462407 0.172145 0.566389 0.322271
C6    C     C_2   0.439562 0.139574 0.650340 0.270442
C7    C     C_2   0.901448 0.115539 0.882537 0.271530
C8    C     C_2   0.888273 0.124051 0.795655 0.264441
C9    C     C_2   0.825609 0.164220 0.673201 0.342693
C10   C     C_2   0.781046 0.195632 0.586839 0.258701
C11   C     C_2   0.831100 0.506199 0.695120 0.267283
C12   C     C_2   0.556062 0.743027 0.614137 0.283623
C13   C     C_1   0.324832 0.335255 0.265769 0.096374
C14   C     C_2   0.174563 0.842876 0.588024 0.309971
C15   C     C_2   0.742816 0.550208 0.398782 0.279114
C16   C     C_R   0.405283 0.385852 0.434235 0.575925
C17   C     C_R   0.289094 0.294249 0.102046 -0.020874
C18   C     C_R   0.757612 0.372818 0.409249 0.018782
C19   C     C_R   0.756317 0.446074 0.384191 -0.037068
C20   C     C_R   0.767340 0.421209 0.342976 -0.143918
C21   C     C_R   0.789570 0.322485 0.326187 -0.046122
C22   C     C_R   0.808972 0.242921 0.351479 0.010908
C23   C     C_R   0.792918 0.268505 0.393353 0.236149
C24   C     C_R   0.333333 0.343119 0.309007 0.007859
C25   C     C_R   0.817925 0.295413 0.201836 0.414242
C26   C     C_R   0.796219 0.306283 0.282093 0.309959
C27   C     C_R   0.835667 0.382216 0.145070 0.226425
C28   C     C_R   0.702243 0.409435 0.447513 0.563342
C29   C     C_R   0.864109 0.378001 0.105516 -0.014641
C30   C     C_R   0.881813 0.202906 0.093331 -0.016831
C31   C     C_R   0.852797 0.208586 0.132926 0.222636
C32   C     C_R   0.834987 0.295667 0.159182 0.002302
C33   C     C_R   0.896895 0.284185 0.080637 -0.133991
C34   C     C_R   0.370047 0.753877 0.408197 0.030786
C35   C     C_R   0.388420 0.254449 0.331453 0.271125
C36   C     C_R   0.291101 0.752656 0.380646 -0.157518
C37   C     C_R   0.282863 0.775871 0.340461 -0.001879
C38   C     C_R   0.357804 0.797813 0.326943 0.041197
C39   C     C_R   0.430025 0.809676 0.355017 -0.146442
C40   C     C_R   0.391854 0.705206 0.560542 0.546212
C41   C     C_R   0.435397 0.790741 0.395854 -0.019108
C42   C     C_R   0.365444 0.816267 0.203339 0.409841
C43   C     C_R   0.365972 0.802081 0.283700 0.368732
C44   C     C_R   0.261391 0.835402 0.137536 0.209172
C45   C     C_R   0.236456 0.869489 0.098366 -0.082128
C46   C     C_R   0.406305 0.266092 0.373584 0.261215
C47   C     C_R   0.390243 0.891389 0.102012 -0.095042
C48   C     C_R   0.416181 0.857379 0.141203 0.206956
C49   C     C_R   0.349904 0.832538 0.159841 0.033536
C50   C     C_R   0.298079 0.901832 0.080952 -0.067960
C51   C     C_R   0.365270 0.365539 0.583390 0.021436
C52   C     C_R   0.406161 0.388409 0.548815 0.596154
C53   C     C_R   0.291490 0.447958 0.607537 0.203162
C54   C     C_R   0.273552 0.429694 0.645107 -0.078324
C55   C     C_R   0.328288 0.331456 0.660307 -0.048443
C56   C     C_R   0.393699 0.245441 0.635291 -0.023622
C57   C     C_R   0.397116 0.271027 0.164577 -0.084977
C58   C     C_R   0.408759 0.262068 0.595736 -0.019266
C59   C     C_R   0.313897 0.329480 0.784819 0.345772
C60   C     C_R   0.321420 0.324441 0.703595 0.319621
C61   C     C_R   0.213677 0.389498 0.846865 -0.095773
C62   C     C_R   0.203855 0.375610 0.886616 -0.112824
C63   C     C_R   0.385522 0.246058 0.891767 -0.079193
C64   C     C_R   0.703913 0.411926 0.562148 0.525652
C65   C     C_R   0.395380 0.260007 0.852048 -0.081004
C66   C     C_R   0.308304 0.328279 0.828642 0.026653
C67   C     C_R   0.288425 0.299997 0.908683 0.016679
C68   C     C_R   0.388628 0.255095 0.122551 0.235000
C69   C     C_R   0.762805 0.375256 0.601470 -0.044839
C70   C     C_R   0.782065 0.445995 0.627676 -0.101103
C71   C     C_R   0.812121 0.428331 0.668568 -0.017998
C72   C     C_R   0.821257 0.338199 0.683875 -0.022847
C73   C     C_R   0.810369 0.261732 0.657422 0.013616
C74   C     C_R   0.785082 0.278339 0.615642 -0.034757
C75   C     C_R   0.884419 0.213182 0.822375 -0.048314
C76   C     C_R   0.369365 0.366975 0.392709 -0.007014
C77   C     C_R   0.896970 0.206569 0.864949 -0.045282
C78   C     C_R   0.885116 0.378384 0.872685 -0.098877
C79   C     C_R   0.200503 0.355840 0.124070 -0.111622
C80   C     C_R   0.865312 0.388216 0.831251 0.213199
C81   C     C_R   0.869315 0.304519 0.805734 0.044714
C82   C     C_1   0.854074 0.314942 0.762679 0.121822
C83   C     C_1   0.840416 0.324785 0.726809 0.049746
C84   C     C_R   0.907086 0.286294 0.889903 -0.013969
C85   C     C_R   0.370800 0.766815 0.600304 -0.004837
C86   C     C_R   0.270022 0.811457 0.615429 0.009283
C87   C     C_R   0.259688 0.829765 0.657345 -0.066858
C88   C     C_R   0.307731 0.453896 0.369888 -0.176284
C89   C     C_R   0.346178 0.809631 0.683850 -0.003899
C90   C     C_R   0.209423 0.371143 0.165925 0.251728
C91   C     C_R   0.441902 0.780508 0.668896 -0.120290
C92   C     C_R   0.454598 0.762888 0.627300 -0.019256
C93   C     C_R   0.385899 0.890816 0.828547 0.274747
C94   C     C_R   0.371785 0.918335 0.870008 0.212483
C95   C     C_R   0.240288 0.860391 0.865596 0.188278
C96   C     C_R   0.255737 0.833508 0.824531 -0.119694
C97   C     C_R   0.324882 0.852194 0.805768 -0.036451
C98   C     C_1   0.330496 0.834826 0.762698 0.070263
C99   C     C_1   0.336436 0.823088 0.726662 0.040375
C100  C     C_R   0.290405 0.441965 0.328420 -0.153294
C101  C     C_R   0.307922 0.325833 0.186294 -0.002939
C102  C     C_R   0.293260 0.909695 0.888629 -0.014998
C103  C     C_R   0.960711 0.265088 0.045222 0.519897
C104  C     C_R   0.272909 0.259909 0.059930 0.571813
C105  C     C_R   0.259169 0.959761 0.043942 0.552520
C106  C     C_R   0.960749 0.268156 0.930996 0.560668
C107  C     C_R   0.270850 0.263823 0.945197 0.550696
C108  C     C_R   0.257045 0.963849 0.928890 0.582079
C109  C     C_2   0.855879 0.472741 0.089717 0.343586
C110  C     C_2   0.838687 0.136320 0.333281 0.342992
C111  C     C_2   0.892129 0.114177 0.064826 0.354214
Cl1   Cl    Cl    0.504515 0.184920 0.097294 -0.462522
Cl2   Cl    Cl    0.474460 0.154205 0.401678 -0.399631
Cl3   Cl    Cl    0.453528 0.964715 0.896788 -0.470852
Cl4   Cl    Cl    0.477859 0.908395 0.804543 -0.454468
Cl5   Cl    Cl    0.153465 0.829340 0.886161 -0.529251
Cl6   Cl    Cl    0.095193 0.442180 0.192143 -0.427764
Cl7   Cl    Cl    0.814719 0.170636 0.425774 -0.449441
Cl8   Cl    Cl    0.802124 0.495837 0.177583 -0.373187
Cl9   Cl    Cl    0.832267 0.109503 0.149607 -0.374722
Cl10  Cl    Cl    0.172741 0.808454 0.158885 -0.397730
Cl11  Cl    Cl    0.530965 0.849843 0.166472 -0.416409
Cl12  Cl    Cl    0.221712 0.578441 0.594405 -0.506357
Cl13  Cl    Cl    0.437920 0.129300 0.306627 -0.440773
Cl14  Cl    Cl    0.841615 0.505533 0.812190 -0.565041
Cr1   Cr    Cr6+3 0.576280 0.580550 0.506370 1.155524
Cr2   Cr    Cr6+3 0.346780 0.572400 0.496520 1.108187
Cr3   Cr    Cr6+3 0.576960 0.347070 0.497150 1.155665
Cr4   Cr    Cr6+3 0.087320 0.083240 0.984860 1.127287
Cr5   Cr    Cr6+3 0.087720 0.316210 0.996740 1.062633
Cr6   Cr    Cr6+3 0.317350 0.090340 0.995890 1.143634
H1    H     H_    0.760431 0.479443 0.323575 0.162244
H2    H     H_    0.452346 0.188079 0.908280 0.190214
H3    H     H_    0.469858 0.213055 0.839091 0.174818
H4    H     H_    0.769253 0.518066 0.616516 0.189735
H5    H     H_    0.888838 0.441718 0.891214 0.185370
H6    H     H_    0.506855 0.772381 0.689814 0.161995
H7    H     H_    0.211584 0.799967 0.806910 0.181903
H8    H     H_    0.184236 0.859641 0.669495 0.177592
H9    H     H_    0.278136 0.532099 0.383620 0.148667
H10   H     H_    0.123220 0.386978 0.109185 0.198715
H11   H     H_    0.247090 0.510447 0.311204 0.155316
H12   H     H_    0.237177 0.729447 0.389983 0.135572
H13   H     H_    0.823406 0.492992 0.059132 0.117235
H14   H     H_    0.811527 0.125557 0.302484 0.140566
H15   H     H_    0.862071 0.127924 0.033606 0.126934
H16   H     H_    0.576055 0.810771 0.412411 0.134786
H17   H     H_    0.155461 0.735111 0.322622 0.114308
H18   H     H_    0.530433 0.102003 0.575661 0.206534
H19   H     H_    0.394511 0.120853 0.668591 0.134321
H20   H     H_    0.942565 0.038387 0.867973 0.147220
H21   H     H_    0.850198 0.081454 0.803554 0.139235
H22   H     H_    0.874065 0.089814 0.657860 0.163824
H23   H     H_    0.165203 0.876661 0.082570 0.216418
H24   H     H_    0.811313 0.182259 0.557214 0.147845
H25   H     H_    0.860024 0.491555 0.726307 0.180136
H26   H     H_    0.626277 0.701993 0.633252 0.140197
H27   H     H_    0.176700 0.850456 0.556137 0.138511
H28   H     H_    0.696136 0.616171 0.380481 0.085066
H29   H     H_    0.473333 0.237984 0.180440 0.189105
H30   H     H_    0.484130 0.831509 0.344784 0.156083
H31   H     H_    0.439755 0.914612 0.088898 0.196365
H32   H     H_    0.128072 0.418624 0.898906 0.157288
H33   H     H_    0.221159 0.495205 0.663877 0.192584
H34   H     H_    0.145532 0.444090 0.829810 0.177018
N1    N     N_R   0.730380 0.370614 0.218332 -0.144534
N2    N     N_R   0.372268 0.882227 0.269857 -0.142323
N3    N     N_R   0.371506 0.889392 0.230296 -0.125026
N4    N     N_R   0.227742 0.389079 0.761536 -0.205520
N5    N     N_R   0.231600 0.387152 0.721746 -0.206532
N6    N     N_R   0.407653 0.264885 0.726831 -0.172657
N7    N     N_R   0.403758 0.266786 0.766643 -0.191728
N8    N     N_R   0.719985 0.376205 0.257811 -0.196149
N9    N     N_R   0.883049 0.229832 0.265477 -0.177237
N10   N     N_R   0.893581 0.224392 0.225955 -0.128485
N11   N     N_R   0.362885 0.734275 0.217315 -0.132137
N12   N     N_R   0.363559 0.727134 0.256829 -0.174667
O1    O     O_R   0.679450 0.499830 0.463150 -0.464425
O2    O     O_R   0.340240 0.172500 0.045430 -0.442621
O3    O     O_R   0.309670 0.000990 0.032050 -0.498081
O4    O     O_R   0.480650 0.664000 0.464630 -0.460966
O5    O     O_R   0.168330 0.982130 0.939200 -0.450696
O6    O     O_R   0.000140 0.178170 0.944610 -0.457434
O7    O     O_R   0.983010 0.336750 0.948660 -0.524126
O8    O     O_R   0.181800 0.312190 0.959860 -0.504923
O9    O     O_R   0.338500 0.175680 0.956950 -0.463994
O10   O     O_R   0.308050 0.003930 0.950020 -0.451958
O11   O     O_3   0.164130 0.163270 0.992500 -0.283145
O12   O     O_R   0.356040 0.477400 0.534170 -0.441100
O13   O     O_R   0.323930 0.675950 0.455370 -0.524585
O14   O     O_R   0.354700 0.475360 0.451930 -0.512985
O15   O     O_R   0.494470 0.320860 0.448390 -0.428927
O16   O     O_R   0.662580 0.357570 0.460050 -0.462542
O17   O     O_R   0.680900 0.502040 0.551870 -0.493493
O18   O     O_R   0.481990 0.666040 0.546870 -0.445336
O19   O     O_R   0.325370 0.678160 0.544080 -0.486322
O20   O     O_2   0.888148 0.526717 0.109900 -0.364414
O21   O     O_2   0.896275 0.059346 0.351712 -0.379412
O22   O     O_2   0.936709 0.025192 0.075427 -0.394645
O23   O     O_R   0.495910 0.323070 0.537100 -0.468631
O24   O     O_2   0.493494 0.835974 0.459751 -0.411932
O25   O     O_2   0.161422 0.825592 0.283850 -0.385090
O26   O     O_2   0.429127 0.175317 0.531085 -0.431203
O27   O     O_2   0.529058 0.074565 0.644585 -0.442203
O28   O     O_2   0.855549 0.126836 0.912686 -0.455142
O29   O     O_2   0.937901 0.094737 0.765484 -0.461237
O30   O     O_2   0.780344 0.166802 0.702334 -0.421101
O31   O     O_2   0.740992 0.144574 0.595218 -0.458494
O32   O     O_2   0.815562 0.587669 0.682347 -0.464287
O33   O     O_2   0.561335 0.778934 0.583548 -0.415455
O34   O     O_R   0.663920 0.359620 0.542290 -0.501562
O35   O     O_2   0.091691 0.862910 0.600875 -0.445378
O36   O     O_2   0.789829 0.561813 0.429658 -0.421542
O37   O     O_3   0.500010 0.500010 0.500010 -0.302092
O38   O     O_R   0.170070 0.978950 0.027680 -0.485676
O39   O     O_R   0.001760 0.175230 0.026640 -0.497611
O40   O     O_R   0.984760 0.333570 0.037150 -0.511848
O41   O     O_R   0.183410 0.309240 0.041890 -0.506290

loop_
_geom_bond_atom_site_label_1
_geom_bond_atom_site_label_2
_ccdc_geom_bond_type
C44   C49   A    
N6    N7    A    
C63   C65   A    
C3    H16   S    
C93   C94   A    
C105  O38   A    
C27   C29   A    
C73   C74   A    
C108  O10   A    
C109  O20   D    
C19   C20   A    
C68   Cl1   S    
C15   O36   D    
N1    N8    A    
C23   Cl7   S    
C46   C76   A    
C81   C82   S    
C94   Cl3   S    
Cr5   O8    S    
C39   C41   A    
C79   H10   S    
C53   C54   A    
C15   C19   S    
C107  O9    A    
Cr2   O12   S    
C5    C58   S    
C89   C99   S    
C63   H2    S    
C29   C109  S    
C35   Cl13  S    
C8    H21   S    
C36   H12   S    
C15   H28   S    
C59   C66   S    
C48   Cl11  S    
C38   C39   A    
C80   C81   A    
C11   C71   S    
C55   C56   A    
C104  O2    A    
C110  O21   D    
C80   Cl14  S    
C26   N9    A    
C4    H17   S    
C29   C33   A    
C44   Cl10  S    
C17   C79   A    
C5    H18   S    
C18   C19   A    
N4    N5    A    
Cr5   O41   S    
C2    C13   T    
C10   O31   D    
N9    N10   A    
C88   H9    S    
C79   C90   A    
C16   O15   A    
C111  O22   D    
C91   H6    S    
C47   H31   S    
C61   C66   A    
C43   N12   A    
C95   C96   A    
C22   C110  S    
C64   O17   A    
C50   C105  S    
C84   C106  S    
C64   O34   A    
C102  C108  S    
C70   C71   A    
C52   O23   A    
C12   H26   S    
C39   H30   S    
C110  H14   S    
Cr1   O37   S    
C76   C88   A    
C34   C36   A    
C65   H3    S    
C30   C33   A    
C95   C102  A    
C7    O28   D    
C7    C77   S    
C55   C60   S    
C1    O13   A    
C25   C32   S    
C16   C76   S    
Cr4   O6    S    
C9    H22   S    
C33   C103  S    
C21   C22   A    
C54   H33   S    
C61   C62   A    
C34   C41   A    
C9    C73   S    
C20   H1    S    
Cr1   O18   S    
C57   C68   A    
C85   C92   A    
C42   N3    A    
C1    C34   S    
C97   C98   S    
C47   C50   A    
C25   N10   A    
C106  O6    A    
C63   C67   A    
C24   C35   A    
C18   C23   A    
Cr2   O13   S    
C90   Cl6   S    
C93   Cl4   S    
C42   N11   A    
C18   C28   S    
Cr3   O16   S    
C14   C86   S    
C53   Cl12  S    
C111  H15   S    
C87   H8    S    
N2    N3    A    
C1    O4    A    
C86   C87   A    
C75   C81   A    
C96   H7    S    
C26   N8    A    
C85   C86   A    
C8    C75   S    
Cr2   O14   S    
C51   C52   S    
C13   C24   S    
Cr3   O15   S    
C40   C85   S    
Cr4   O38   S    
Cr5   O40   S    
Cr3   O23   S    
C90   C101  A    
C6    O27   D    
C37   C38   A    
C16   O14   A    
Cr1   O17   S    
C4    O25   D    
C62   H32   S    
C95   Cl5   S    
C104  O41   A    
C96   C97   A    
Cr4   O5    S    
C28   O16   A    
C78   C80   A    
C69   C74   A    
C51   C58   A    
C64   C69   S    
C20   C21   A    
C8    O29   D    
C75   C77   A    
C106  O7    A    
C88   C100  A    
C11   H25   S    
C103  O40   A    
C7    H20   S    
C62   C67   A    
C48   C49   A    
C57   H29   S    
C14   H27   S    
C82   C83   T    
C27   Cl8   S    
C87   C89   A    
C9    O30   D    
C70   H4    S    
C3    O24   D    
C38   C43   S    
C89   C91   A    
C105  O3    A    
C59   N7    A    
C93   C97   A    
C91   C92   A    
C44   C45   A    
C40   O19   A    
C54   C55   A    
C3    C41   S    
C17   C68   A    
Cr6   O2    S    
C46   Cl2   S    
C27   C32   A    
C24   C100  A    
C60   N6    A    
C12   C92   S    
C31   C32   A    
C6    C56   S    
C72   C73   A    
C47   C48   A    
C10   H24   S    
C5    O26   D    
Cr5   O11   S    
Cr6   O3    S    
Cr2   O37   S    
C43   N2    A    
C25   N1    A    
C57   C101  A    
C107  O8    A    
C77   C84   A    
C108  O5    A    
C30   C111  S    
C60   N5    A    
Cr4   O39   S    
N11   N12   A    
C12   O33   D    
C14   O35   D    
Cr3   O34   S    
C100  H11   S    
Cr2   O19   S    
Cr6   O11   S    
C17   C104  S    
C10   C74   S    
C67   C107  S    
C30   C31   A    
C28   O1    A    
C45   C50   A    
C21   C26   S    
C56   C58   A    
Cr1   O1    S    
C109  H13   S    
C61   H34   S    
C52   O12   A    
C65   C66   A    
C69   C70   A    
C31   Cl9   S    
C72   C83   S    
C42   C49   S    
C6    H19   S    
Cr6   O9    S    
C78   C84   A    
C71   C72   A    
C4    C37   S    
C94   C102  A    
C36   C37   A    
C98   C99   T    
Cr4   O11   S    
C22   C23   A    
Cr1   O4    S    
Cr5   O7    S    
C45   H23   S    
C2    C101  S    
C51   C53   A    
C59   N4    A    
C35   C46   A    
C78   H5    S    
C103  O39   A    
C11   O32   D    
Cr3   O37   S    
C40   O18   A    
Cr6   O10   S    
