data_mof_unit_65169.cif
_audit_creation_date              2012-12-10T18:29:17-0500
_audit_creation_method            fapswitch 2.2
_symmetry_space_group_name_H-M    P1
_symmetry_Int_Tables_number       1
_space_group_crystal_system       triclinic
_cell_length_a                    28.267468
_cell_length_b                    26.589762
_cell_length_c                    18.194443
_cell_angle_alpha                 89.957077
_cell_angle_beta                  90.022245
_cell_angle_gamma                 89.962817
_cell_volume                      13675.3949536

loop_
_atom_site_label
_atom_site_type_symbol
_atom_type_description
_atom_site_fract_x
_atom_site_fract_y
_atom_site_fract_z
_atom_type_partial_charge
C1    C     C_R   0.066652 0.434016 0.500195 0.841333
C2    C     C_R   0.933315 0.566007 0.500142 0.839550
C3    C     C_R   0.933232 0.433907 0.499980 0.834358
C4    C     C_R   0.066769 0.566058 0.499987 0.835246
C5    C     C_R   0.566768 0.933988 0.500060 0.832162
C6    C     C_R   0.433212 0.066060 0.500006 0.840542
C7    C     C_R   0.433279 0.934024 0.499976 0.830020
C8    C     C_R   0.566685 0.065957 0.499831 0.849664
C9    C     C_R   0.999142 0.499355 0.159263 -0.016191
C10   C     C_R   0.999887 0.499970 0.841424 -0.024545
C11   C     C_R   0.497799 0.001101 0.158691 -0.024827
C12   C     C_R   0.495870 0.002107 0.841114 -0.043511
C13   C     C_R   0.005304 0.544464 0.199342 -0.010242
C14   C     C_R   0.005907 0.455362 0.801494 0.031041
C15   C     C_R   0.993414 0.454511 0.200689 -0.045036
C16   C     C_R   0.993982 0.544600 0.801435 0.030081
C17   C     C_R   0.504406 0.045407 0.198968 0.030621
C18   C     C_R   0.502443 0.956793 0.802231 0.059888
C19   C     C_R   0.492354 0.956206 0.198226 0.031191
C20   C     C_R   0.490871 0.046513 0.798578 -0.044252
C21   C     C_R   0.005468 0.543960 0.277844 0.279110
C22   C     C_R   0.006972 0.455980 0.723414 0.284340
C23   C     C_R   0.994314 0.455787 0.278709 0.342005
C24   C     C_R   0.993053 0.544021 0.723344 0.284114
C25   C     C_R   0.506491 0.044268 0.276944 0.286252
C26   C     C_R   0.505438 0.956497 0.724459 0.254775
C27   C     C_R   0.492529 0.956256 0.276324 0.280191
C28   C     C_R   0.493200 0.044528 0.720462 0.355696
C29   C     C_R   0.885835 0.365494 0.561926 0.106454
C30   C     C_R   0.135318 0.609048 0.437376 0.106257
C31   C     C_R   0.114042 0.634437 0.561914 0.106151
C32   C     C_R   0.865157 0.390344 0.436839 0.106322
C33   C     C_R   0.108076 0.358828 0.447575 0.107978
C34   C     C_R   0.860050 0.602407 0.557721 0.095241
C35   C     C_R   0.891424 0.640699 0.446248 0.110574
C36   C     C_R   0.140703 0.398880 0.556781 0.094308
C37   C     C_R   0.389436 0.861645 0.557217 0.105544
C38   C     C_R   0.640726 0.101074 0.443204 0.094659
C39   C     C_R   0.608426 0.140858 0.552833 0.108339
C40   C     C_R   0.360529 0.896899 0.441848 0.097418
C41   C     C_R   0.611077 0.861969 0.442189 0.105667
C42   C     C_R   0.364883 0.109203 0.562960 0.105362
C43   C     C_R   0.385882 0.134632 0.438272 0.106159
C44   C     C_R   0.638579 0.895332 0.559480 0.099346
C45   C     C_R   0.850168 0.329149 0.559940 -0.207572
C46   C     C_R   0.170478 0.646145 0.436478 -0.215157
C47   C     C_R   0.149915 0.670514 0.560191 -0.207641
C48   C     C_R   0.830269 0.352953 0.435670 -0.213200
C49   C     C_R   0.144847 0.323796 0.449174 -0.208172
C50   C     C_R   0.824387 0.639078 0.559590 -0.208608
C51   C     C_R   0.854980 0.676144 0.448065 -0.209322
C52   C     C_R   0.176801 0.362699 0.558407 -0.208713
C53   C     C_R   0.352739 0.826554 0.555804 -0.204609
C54   C     C_R   0.676876 0.137167 0.441661 -0.208666
C55   C     C_R   0.645258 0.175790 0.551316 -0.207837
C56   C     C_R   0.324543 0.860674 0.440756 -0.210066
C57   C     C_R   0.647312 0.826249 0.444199 -0.205063
C58   C     C_R   0.329942 0.146563 0.564213 -0.212863
C59   C     C_R   0.350149 0.170928 0.440310 -0.206920
C60   C     C_R   0.673965 0.858392 0.561193 -0.209738
C61   C     C_R   0.822770 0.322164 0.496840 0.009893
C62   C     C_R   0.177775 0.677071 0.497517 0.009742
C63   C     C_R   0.179129 0.325295 0.504463 0.010788
C64   C     C_R   0.821639 0.675848 0.504715 0.011550
C65   C     C_R   0.320554 0.825424 0.497522 0.008898
C66   C     C_R   0.679394 0.174415 0.495827 0.010534
C67   C     C_R   0.678376 0.823759 0.503824 0.009925
C68   C     C_R   0.322583 0.177603 0.503267 0.010172
C69   C     C_R   0.999646 0.499893 0.924411 0.503476
C70   C     C_R   0.999283 0.499474 0.075527 0.458885
C71   C     C_R   0.496222 0.002385 0.924757 0.456998
C72   C     C_R   0.497123 0.001609 0.075785 0.504682
C73   C     C_R   0.894391 0.396220 0.499648 -0.031171
C74   C     C_R   0.105700 0.603575 0.499778 -0.030871
C75   C     C_R   0.105644 0.396943 0.501297 -0.028802
C76   C     C_R   0.894423 0.603316 0.501139 -0.030651
C77   C     C_R   0.394085 0.897074 0.499669 -0.024911
C78   C     C_R   0.605762 0.102943 0.498814 -0.030967
C79   C     C_R   0.605829 0.896696 0.500525 -0.025812
C80   C     C_R   0.394307 0.103660 0.500337 -0.033238
C81   C     C_R   0.214852 0.715746 0.496829 0.429320
C82   C     C_R   0.785772 0.283378 0.495912 0.428433
C83   C     C_R   0.783918 0.713807 0.505302 0.426325
C84   C     C_R   0.217193 0.287729 0.504802 0.427658
C85   C     C_R   0.717471 0.211969 0.495459 0.427620
C86   C     C_R   0.282838 0.787471 0.496883 0.428829
C87   C     C_R   0.285545 0.216336 0.504259 0.428202
C88   C     C_R   0.715762 0.785419 0.504875 0.426375
Cu1   Cu    Cu3+1 1.000000 0.500000 0.573360 0.959796
Cu2   Cu    Cu3+1 0.000000 0.500000 0.426640 1.015485
Cu3   Cu    Cu3+1 0.500000 0.000000 0.573360 0.983295
Cu4   Cu    Cu3+1 0.500000 0.000000 0.426640 0.957761
H1    H     H_    0.844518 0.305701 0.607887 0.158996
H2    H     H_    0.192757 0.649970 0.388340 0.157747
H3    H     H_    0.155347 0.694095 0.608014 0.159572
H4    H     H_    0.808294 0.348833 0.387229 0.157625
H5    H     H_    0.145918 0.294652 0.407586 0.158423
H6    H     H_    0.798200 0.638010 0.603046 0.156415
H7    H     H_    0.853453 0.704708 0.405592 0.157172
H8    H     H_    0.203571 0.364602 0.600958 0.156989
H9    H     H_    0.350121 0.799393 0.600061 0.159481
H10   H     H_    0.703538 0.135320 0.398968 0.156914
H11   H     H_    0.646475 0.204780 0.593124 0.158387
H12   H     H_    0.299120 0.860877 0.396163 0.157662
H13   H     H_    0.650472 0.799661 0.399336 0.158460
H14   H     H_    0.307811 0.150455 0.612503 0.157566
H15   H     H_    0.344586 0.194589 0.392546 0.158892
H16   H     H_    0.698736 0.857643 0.606656 0.156725
N1    N     N_R   0.000000 0.500000 0.316380 -0.180894
N2    N     N_R   0.000000 0.500000 0.683620 -0.206557
N3    N     N_R   0.500000 0.000000 0.316380 -0.206811
N4    N     N_R   0.500000 0.000000 0.683620 -0.201372
N5    N     N_R   0.974992 0.464384 0.036215 -0.265293
N6    N     N_R   0.023746 0.535256 0.963367 -0.209520
N7    N     N_R   0.023667 0.534927 0.036894 -0.188625
N8    N     N_R   0.975286 0.464414 0.962724 -0.211312
N9    N     N_R   0.521173 0.966410 0.036551 -0.208950
N10   N     N_R   0.472114 0.037528 0.964280 -0.261787
N11   N     N_R   0.472670 0.037296 0.037814 -0.210787
N12   N     N_R   0.520831 0.966933 0.963104 -0.194323
N13   N     N_R   0.771577 0.261966 0.431847 -0.238239
N14   N     N_R   0.234102 0.731902 0.560867 -0.240354
N15   N     N_R   0.230115 0.736200 0.432684 -0.239141
N16   N     N_R   0.765341 0.268285 0.559627 -0.240116
N17   N     N_R   0.237926 0.272993 0.568591 -0.237908
N18   N     N_R   0.767763 0.733229 0.441075 -0.239043
N19   N     N_R   0.765383 0.730800 0.569484 -0.237157
N20   N     N_R   0.231339 0.266255 0.440886 -0.239539
N21   N     N_R   0.263425 0.771578 0.432723 -0.238582
N22   N     N_R   0.731680 0.233441 0.559357 -0.239647
N23   N     N_R   0.738125 0.226721 0.431645 -0.237936
N24   N     N_R   0.267601 0.766915 0.560866 -0.240195
N25   N     N_R   0.732003 0.766177 0.569281 -0.237008
N26   N     N_R   0.265033 0.231412 0.440572 -0.240015
N27   N     N_R   0.271410 0.237744 0.568345 -0.238078
N28   N     N_R   0.734133 0.768153 0.440846 -0.239217
O1    O     O_R   0.049930 0.450080 0.561970 -0.589215
O2    O     O_R   0.950070 0.549920 0.438030 -0.535940
O3    O     O_R   0.950070 0.549920 0.561970 -0.588545
O4    O     O_R   0.049930 0.450080 0.438030 -0.539001
O5    O     O_R   0.950070 0.450080 0.438030 -0.537370
O6    O     O_R   0.049930 0.549920 0.561970 -0.571708
O7    O     O_R   0.049930 0.549920 0.438030 -0.532589
O8    O     O_R   0.950070 0.450080 0.561970 -0.570970
O9    O     O_R   0.549930 0.950080 0.561970 -0.584417
O10   O     O_R   0.450070 0.049920 0.438030 -0.569895
O11   O     O_R   0.450070 0.049920 0.561970 -0.534091
O12   O     O_R   0.549930 0.950080 0.438030 -0.567271
O13   O     O_R   0.450070 0.950080 0.438030 -0.582270
O14   O     O_R   0.549930 0.049920 0.561970 -0.532862
O15   O     O_R   0.549930 0.049920 0.438030 -0.588530
O16   O     O_R   0.450070 0.950080 0.561970 -0.572434
N29   N     N_3   0.011609 0.589903 0.317450 -0.501938
H17   H     H_    0.044978 0.604311 0.304908 0.199128
H18   H     H_    0.986714 0.615769 0.298600 0.201512
N30   N     N_3   0.017592 0.409112 0.688503 -0.607329
H19   H     H_    0.997426 0.403766 0.641642 0.285146
H20   H     H_    0.053671 0.407846 0.676646 0.237885
N31   N     N_3   0.989341 0.409838 0.318729 -0.492956
H21   H     H_    0.014173 0.384429 0.298287 0.226794
H22   H     H_    0.956061 0.394925 0.306761 0.216629
N32   N     N_3   0.982633 0.590951 0.688350 -0.607140
H23   H     H_    0.002611 0.596108 0.641288 0.285925
H24   H     H_    0.946540 0.592458 0.676702 0.237921
N33   N     N_3   0.517630 0.090916 0.312047 -0.607731
H25   H     H_    0.497545 0.096516 0.358911 0.284997
H26   H     H_    0.553756 0.091834 0.323614 0.238609
N34   N     N_3   0.516616 0.909403 0.690751 -0.607413
H27   H     H_    0.497687 0.904575 0.642625 0.289567
H28   H     H_    0.552776 0.908610 0.679772 0.239206
N35   N     N_3   0.482826 0.909103 0.311063 -0.605709
H29   H     H_    0.502173 0.904789 0.358870 0.289935
H30   H     H_    0.446693 0.906977 0.322058 0.236496
N36   N     N_3   0.489159 0.090273 0.679686 -0.490768
H31   H     H_    0.455760 0.105501 0.689984 0.217532
H32   H     H_    0.513751 0.115621 0.700927 0.225402
N37   N     N_3   0.010127 0.591099 0.160284 -0.561510
H33   H     H_    0.981863 0.614642 0.173931 0.216810
H34   H     H_    0.041828 0.608284 0.175800 0.221478
N38   N     N_3   0.013123 0.409067 0.840538 -0.563515
H35   H     H_    0.046211 0.394549 0.826049 0.232124
H36   H     H_    0.987121 0.383512 0.824000 0.246476
N39   N     N_3   0.988090 0.406530 0.165633 -0.613646
H37   H     H_    0.015847 0.401173 0.128495 0.246838
H38   H     H_    0.955658 0.405588 0.138146 0.256255
N40   N     N_3   0.986734 0.590873 0.840407 -0.559085
H39   H     H_    0.012791 0.616413 0.824004 0.246665
H40   H     H_    0.953688 0.605435 0.825716 0.232816
N41   N     N_3   0.511210 0.091920 0.160325 -0.563652
H41   H     H_    0.544509 0.106235 0.174002 0.232470
H42   H     H_    0.485476 0.117461 0.177968 0.246288
N42   N     N_3   0.505768 0.910163 0.841720 -0.549679
H43   H     H_    0.479138 0.886117 0.822897 0.238709
H44   H     H_    0.538559 0.893720 0.830302 0.239881
N43   N     N_3   0.484561 0.910204 0.158838 -0.558640
H45   H     H_    0.451721 0.895592 0.174379 0.232116
H46   H     H_    0.510831 0.884517 0.174035 0.247283
N44   N     N_3   0.484751 0.094710 0.832663 -0.613364
H47   H     H_    0.512193 0.100612 0.870206 0.246725
H48   H     H_    0.452204 0.095335 0.859815 0.256004
N45   N     N_3   0.913469 0.370383 0.627456 -0.588537
H49   H     H_    0.929370 0.335668 0.638509 0.216955
H50   H     H_    0.890644 0.378787 0.670967 0.232165
N46   N     N_3   0.131250 0.575798 0.375747 -0.568689
H51   H     H_    0.127180 0.597600 0.328331 0.210733
H52   H     H_    0.163098 0.556079 0.370752 0.220559
N47   N     N_3   0.085964 0.629983 0.627024 -0.589119
H53   H     H_    0.070201 0.664844 0.637468 0.217179
H54   H     H_    0.108452 0.621574 0.670999 0.232481
N48   N     N_3   0.869303 0.423490 0.375035 -0.569972
H55   H     H_    0.873727 0.401621 0.327813 0.213669
H56   H     H_    0.837353 0.442965 0.369510 0.220563
N49   N     N_3   0.072543 0.354515 0.392146 -0.584330
H57   H     H_    0.056620 0.319203 0.397315 0.216545
H58   H     H_    0.089378 0.355852 0.341001 0.220916
N50   N     N_3   0.860159 0.563276 0.611928 -0.578451
H59   H     H_    0.861115 0.580045 0.663865 0.215088
H60   H     H_    0.828240 0.543648 0.607635 0.222774
N51   N     N_3   0.926048 0.643837 0.389314 -0.583005
H61   H     H_    0.942184 0.679152 0.392408 0.214011
H62   H     H_    0.908444 0.641575 0.338853 0.217906
N52   N     N_3   0.140732 0.438493 0.610148 -0.578781
H63   H     H_    0.140236 0.422176 0.662442 0.215784
H64   H     H_    0.172467 0.458349 0.604905 0.222568
N53   N     N_3   0.422411 0.860217 0.616795 -0.601982
H65   H     H_    0.437991 0.824546 0.618053 0.218314
H66   H     H_    0.403695 0.865168 0.665826 0.233144
N54   N     N_3   0.640629 0.061596 0.389626 -0.578476
H67   H     H_    0.640140 0.078046 0.337419 0.215507
H68   H     H_    0.672328 0.041611 0.394748 0.222962
N55   N     N_3   0.573070 0.145075 0.608515 -0.584468
H69   H     H_    0.557253 0.180500 0.603842 0.216347
H70   H     H_    0.590026 0.143350 0.659567 0.221290
N56   N     N_3   0.361583 0.934685 0.385661 -0.577410
H71   H     H_    0.362496 0.916664 0.334628 0.213228
H72   H     H_    0.329957 0.955004 0.388453 0.223205
N57   N     N_3   0.579270 0.861983 0.381051 -0.598353
H73   H     H_    0.563280 0.826592 0.377974 0.217871
H74   H     H_    0.599005 0.867357 0.333088 0.234439
N58   N     N_3   0.368883 0.075733 0.624431 -0.569073
H75   H     H_    0.373158 0.097342 0.671941 0.213883
H76   H     H_    0.336939 0.056235 0.629478 0.221241
N59   N     N_3   0.413724 0.130048 0.372937 -0.589527
H77   H     H_    0.429589 0.164822 0.362337 0.216864
H78   H     H_    0.391049 0.121811 0.329155 0.232257
N60   N     N_3   0.637484 0.932723 0.616137 -0.579243
H79   H     H_    0.636136 0.914353 0.666918 0.213351
H80   H     H_    0.669324 0.952663 0.614098 0.223133

loop_
_geom_bond_atom_site_label_1
_geom_bond_atom_site_label_2
_ccdc_geom_bond_type
C84   N20   A    
C57   H13   S    
N35   H29   S    
C69   N8    A    
C42   C80   A    
N33   H25   S    
C49   C63   A    
C26   N4    A    
Cu4   O12   S    
C50   C64   A    
N45   H49   S    
C62   C81   S    
C3    O5    A    
C54   H10   S    
C45   H1    S    
C42   C58   A    
C4    O7    A    
N54   H68   S    
N6    N7    A    
C32   C48   A    
C1    O1    A    
C65   C86   S    
C35   C76   A    
C22   N30   S    
N49   H57   S    
C28   N4    A    
C19   N43   S    
N35   H30   S    
C11   C19   A    
C67   C88   S    
C26   N34   S    
C71   N12   A    
C46   C62   A    
C2    O3    A    
C38   N54   S    
N30   H19   S    
N50   H60   S    
C88   N25   A    
C61   C82   S    
N39   H38   S    
C4    O6    A    
Cu3   O16   S    
C30   C74   A    
C13   N37   S    
C29   C73   A    
C86   N24   A    
C33   C49   A    
N59   H77   S    
C55   H11   S    
C82   N16   A    
N41   H42   S    
C9    C13   A    
N10   N11   A    
Cu3   O14   S    
C7    O13   A    
C33   C75   A    
C39   C55   A    
C60   C67   A    
C53   H9    S    
C22   N2    A    
C15   N39   S    
C72   N9    A    
N31   H22   S    
N44   H47   S    
Cu1   O6    S    
N29   H18   S    
C53   C65   A    
C82   N13   A    
C4    C74   S    
Cu2   O7    S    
C60   H16   S    
C43   C59   A    
C7    C77   S    
N5    N8    A    
C37   C53   A    
C15   C23   A    
N17   N27   A    
C37   N53   S    
N18   N28   A    
N33   H26   S    
C5    O12   A    
C40   C56   A    
N57   H73   S    
N15   N21   A    
C8    C78   S    
N45   H50   S    
C87   N26   A    
N52   H63   S    
N56   H72   S    
C57   C67   A    
C24   N2    A    
C21   N29   S    
N14   N24   A    
N54   H67   S    
Cu2   O2    S    
N38   H36   S    
N32   H24   S    
N49   H58   S    
C70   N5    A    
C51   H7    S    
N44   H48   S    
C23   N1    A    
C66   C85   S    
N60   H80   S    
C69   N6    A    
C50   H6    S    
C5    O9    A    
C20   N44   S    
Cu4   O10   S    
N47   H53   S    
C1    C75   S    
C39   C78   A    
C87   N27   A    
C8    O15   A    
C29   N45   S    
C9    C70   S    
C88   N28   A    
N59   H78   S    
C31   N47   S    
C10   C14   A    
N9    N12   A    
C83   N19   A    
C32   C73   A    
C42   N58   S    
C11   C72   S    
C31   C74   A    
C41   N57   S    
C38   C78   A    
C43   N59   S    
C43   C80   A    
C37   C77   A    
Cu1   N2    S    
C52   H8    S    
C59   H15   S    
Cu3   O11   S    
C7    O16   A    
C29   C45   A    
C58   H14   S    
N42   H44   S    
Cu3   N4    S    
C3    O8    A    
C2    O2    A    
C8    O14   A    
N39   H37   S    
C64   C83   S    
C39   N55   S    
C36   C75   A    
N20   N26   A    
C59   C68   A    
N51   H62   S    
C32   N48   S    
C21   N1    A    
C6    C80   S    
N31   H21   S    
C38   C54   A    
C18   N42   S    
C18   C26   A    
C12   C20   A    
Cu4   O15   S    
N58   H76   S    
N53   H65   S    
N16   N22   A    
N55   H70   S    
N50   H59   S    
N52   H64   S    
C14   N38   S    
C56   H12   S    
C1    O4    A    
N40   H39   S    
C86   N21   A    
C58   C68   A    
N34   H27   S    
C12   C71   S    
N46   H52   S    
N48   H55   S    
Cu1   O1    S    
N57   H74   S    
C35   C51   A    
Cu4   O13   S    
C40   N56   S    
C5    C79   S    
N56   H71   S    
C83   N18   A    
N40   H40   S    
C20   C28   A    
C27   N35   S    
Cu3   O9    S    
C55   C66   A    
C2    C76   S    
N38   H35   S    
Cu1   O3    S    
N32   H23   S    
C46   H2    S    
C84   N17   A    
N51   H61   S    
N60   H79   S    
C11   C17   A    
C33   N49   S    
C48   H4    S    
C71   N10   A    
C25   N33   S    
C36   N52   S    
C30   C46   A    
C44   C79   A    
C24   N32   S    
C51   C64   A    
N19   N25   A    
C23   N31   S    
C17   C25   A    
C52   C63   A    
C35   N51   S    
C41   C79   A    
C34   C50   A    
Cu2   O4    S    
Cu4   N3    S    
C54   C66   A    
C44   N60   S    
C70   N7    A    
Cu1   O8    S    
C30   N46   S    
C36   C52   A    
C63   C84   S    
N48   H56   S    
C16   N40   S    
C85   N22   A    
C81   N14   A    
C17   N41   S    
N42   H43   S    
C14   C22   A    
N30   H20   S    
Cu1   Cu2   S    
C41   C57   A    
C10   C16   A    
C13   C21   A    
C47   C62   A    
C6    O11   A    
C28   N36   S    
C48   C61   A    
N13   N23   A    
C44   C60   A    
C45   C61   A    
C6    O10   A    
C72   N11   A    
N34   H28   S    
N58   H75   S    
N53   H66   S    
N37   H34   S    
C9    C15   A    
N41   H41   S    
C3    C73   S    
N36   H32   S    
C81   N15   A    
Cu2   O5    S    
C25   N3    A    
C27   N3    A    
N43   H45   S    
C10   C69   S    
N46   H51   S    
C16   C24   A    
N37   H33   S    
C12   C18   A    
N55   H69   S    
N47   H54   S    
C68   C87   S    
C47   H3    S    
C40   C77   A    
C31   C47   A    
Cu2   N1    S    
N29   H17   S    
C34   N50   S    
C85   N23   A    
Cu3   Cu4   S    
C56   C65   A    
C34   C76   A    
C19   C27   A    
N43   H46   S    
N36   H31   S    
C49   H5    S    
