data_mof_unit_50437.cif
_audit_creation_date              2012-12-10T17:52:04-0500
_audit_creation_method            fapswitch 2.2
_symmetry_space_group_name_H-M    P1
_symmetry_Int_Tables_number       1
_space_group_crystal_system       triclinic
_cell_length_a                    14.679382
_cell_length_b                    14.654068
_cell_length_c                    19.284106
_cell_angle_alpha                 77.504263
_cell_angle_beta                  102.066563
_cell_angle_gamma                 114.493734
_cell_volume                      3652.11748057

loop_
_atom_site_label
_atom_site_type_symbol
_atom_type_description
_atom_site_fract_x
_atom_site_fract_y
_atom_site_fract_z
_atom_type_partial_charge
C1    C     C_R   0.880406 0.312265 0.512202 0.791967
C2    C     C_R   0.119534 0.687678 0.488359 0.802715
C3    C     C_R   0.812723 0.204630 0.520224 -0.053331
C4    C     C_R   0.187062 0.795095 0.484854 -0.052951
C5    C     C_R   0.783649 0.026614 0.541546 -0.197148
C6    C     C_R   0.216782 0.971028 0.480706 -0.195976
C7    C     C_R   0.850242 0.127823 0.536257 -0.193408
C8    C     C_R   0.149888 0.870756 0.478434 -0.195946
C9    C     C_R   0.708362 0.179153 0.511058 -0.259533
C10   C     C_R   0.291245 0.820927 0.491831 -0.254316
C11   C     C_R   0.639593 0.077719 0.518171 0.090301
C12   C     C_R   0.360575 0.920591 0.497687 0.089671
C13   C     C_R   0.678934 0.001080 0.531883 0.163832
C14   C     C_R   0.321485 0.996354 0.490793 0.162179
C15   C     C_R   0.533147 0.050608 0.510337 0.064977
C16   C     C_R   0.467130 0.946896 0.510166 0.065059
C17   C     C_R   0.509869 0.872864 0.524263 -0.222152
C18   C     C_R   0.490651 0.123450 0.504103 -0.221726
C19   C     C_R   0.613609 0.899728 0.535465 -0.228644
C20   C     C_R   0.387005 0.096502 0.494740 -0.228601
C21   C     C_R   0.720698 0.675373 0.386868 -0.320212
C22   C     C_R   0.278988 0.324112 0.612526 -0.323428
C23   C     C_R   0.996719 0.496741 0.632804 0.793786
C24   C     C_R   0.003243 0.503299 0.367715 0.809200
C25   C     C_R   0.800943 0.643881 0.404037 0.079955
C26   C     C_R   0.199868 0.357181 0.596863 0.077901
C27   C     C_R   0.711513 0.504904 0.485985 0.000385
C28   C     C_R   0.286445 0.492369 0.511441 0.008064
C29   C     C_R   0.627176 0.533179 0.471302 -0.022261
C30   C     C_R   0.370067 0.463146 0.525171 -0.019487
C31   C     C_R   0.634131 0.621097 0.420873 0.165636
C32   C     C_R   0.363778 0.376073 0.576378 0.164938
C33   C     C_R   0.538050 0.479237 0.505653 0.075523
C34   C     C_R   0.458244 0.515916 0.489695 0.080774
C35   C     C_R   0.469611 0.604353 0.439243 -0.241639
C36   C     C_R   0.526279 0.390334 0.555672 -0.257140
C37   C     C_R   0.555491 0.655180 0.405359 -0.198926
C38   C     C_R   0.441343 0.340620 0.590615 -0.202330
C39   C     C_R   0.083670 0.516567 0.755404 -0.222879
C40   C     C_R   0.925290 0.452296 0.249410 -0.237154
C41   C     C_R   0.087046 0.513315 0.828091 -0.199641
C42   C     C_R   0.930788 0.447856 0.179504 -0.201624
C43   C     C_R   0.998530 0.481983 0.858233 0.005565
C44   C     C_R   0.023366 0.493790 0.152374 0.027115
C45   C     C_R   0.903284 0.454583 0.814374 0.149314
C46   C     C_R   0.113271 0.545610 0.196631 0.143244
C47   C     C_R   0.899730 0.461346 0.738784 0.136505
C48   C     C_R   0.104134 0.563774 0.264162 0.133897
C49   C     C_R   0.991831 0.491694 0.709730 -0.096433
C50   C     C_R   0.010902 0.508503 0.292237 -0.058312
C51   C     C_R   0.022043 0.489041 0.076698 0.411921
C52   C     C_R   0.009116 0.483096 0.935552 0.401231
Cu1   Cu    Cu3+1 0.081740 0.475680 0.518680 0.933970
Cu2   Cu    Cu3+1 0.918260 0.524320 0.481320 0.927761
H1    H     H_    0.154370 0.540614 0.734478 0.168513
H2    H     H_    0.853680 0.411706 0.270233 0.158650
H3    H     H_    0.560852 0.722791 0.367084 0.142730
H4    H     H_    0.436163 0.273199 0.629058 0.144695
H5    H     H_    0.283123 0.555356 0.471962 0.111201
H6    H     H_    0.713751 0.440553 0.524373 0.125637
H7    H     H_    0.133391 0.316053 0.623622 0.127248
H8    H     H_    0.868605 0.686664 0.378804 0.126908
H9    H     H_    0.726879 0.742605 0.348037 0.139580
H10   H     H_    0.273345 0.257550 0.651949 0.139465
H11   H     H_    0.413613 0.637181 0.424818 0.126129
H12   H     H_    0.581871 0.357022 0.569597 0.129910
H13   H     H_    0.159796 0.534637 0.861459 0.157774
H14   H     H_    0.862165 0.407056 0.146503 0.163290
H15   H     H_    0.642895 0.840456 0.546359 0.149656
H16   H     H_    0.357945 0.154791 0.490612 0.153496
H17   H     H_    0.316164 0.761445 0.492118 0.146061
H18   H     H_    0.682463 0.240263 0.496386 0.149292
H19   H     H_    0.069459 0.852344 0.472646 0.152861
H20   H     H_    0.930730 0.145884 0.543637 0.152403
H21   H     H_    0.814001 0.968166 0.552748 0.133732
H22   H     H_    0.186690 0.028681 0.475755 0.134816
H23   H     H_    0.465595 0.792621 0.529013 0.145366
H24   H     H_    0.535223 0.202151 0.508271 0.140954
N1    N     N_R   0.958840 0.399013 0.979543 -0.239264
N2    N     N_R   0.073300 0.572809 0.032798 -0.243539
N3    N     N_R   0.964733 0.402021 0.048831 -0.245343
N4    N     N_R   0.067337 0.569810 0.963481 -0.237112
N5    N     N_R   0.795420 0.560800 0.453240 -0.175948
N6    N     N_R   0.204580 0.439200 0.546760 -0.176841
O1    O     O_R   0.977910 0.338110 0.524620 -0.587053
O2    O     O_R   0.022090 0.661890 0.475380 -0.593606
O3    O     O_R   0.839850 0.379180 0.493080 -0.594570
O4    O     O_R   0.160150 0.620820 0.506920 -0.588446
O5    O     O_R   0.069040 0.479450 0.615630 -0.579455
O6    O     O_R   0.930960 0.520550 0.384370 -0.578643
O7    O     O_R   0.930990 0.520520 0.584090 -0.575582
O8    O     O_R   0.069010 0.479480 0.415910 -0.580190
C53   C     C_3   0.807077 0.421530 0.848162 -0.409560
C54   C     C_3   0.758003 0.306086 0.866347 -0.802028
H25   H     H_    0.736723 0.269020 0.817727 0.233876
H26   H     H_    0.810234 0.276217 0.904760 0.273885
H27   H     H_    0.688759 0.284927 0.891019 0.241607
H28   H     H_    0.822363 0.455723 0.897485 0.211964
H29   H     H_    0.751616 0.450072 0.813068 0.205220
C55   C     C_3   0.216317 0.571522 0.174258 -0.424324
C56   C     C_3   0.230182 0.476584 0.166047 -0.806152
H30   H     H_    0.215506 0.420472 0.215593 0.252812
H31   H     H_    0.179481 0.440919 0.119725 0.259572
H32   H     H_    0.309115 0.497448 0.157021 0.240399
H33   H     H_    0.227019 0.625973 0.123926 0.227170
H34   H     H_    0.280368 0.607185 0.214096 0.197185
C57   C     C_3   0.799006 0.438884 0.690176 -0.406295
C58   C     C_3   0.776767 0.535017 0.665124 -0.802396
H35   H     H_    0.831900 0.591684 0.630130 0.271913
H36   H     H_    0.699901 0.515969 0.634822 0.239578
H37   H     H_    0.780281 0.570419 0.711498 0.236701
H38   H     H_    0.796270 0.403638 0.644093 0.198311
H39   H     H_    0.735591 0.380360 0.717187 0.200950
C59   C     C_3   0.186805 0.648160 0.303148 -0.445210
C60   C     C_3   0.152354 0.733360 0.303349 -0.827605
H40   H     H_    0.132770 0.765939 0.247449 0.257588
H41   H     H_    0.085771 0.705999 0.332041 0.242380
H42   H     H_    0.214516 0.794398 0.330529 0.244849
H43   H     H_    0.209054 0.617733 0.358810 0.211244
H44   H     H_    0.256865 0.686001 0.278387 0.199403

loop_
_geom_bond_atom_site_label_1
_geom_bond_atom_site_label_2
_ccdc_geom_bond_type
C1    O3    A    
C15   C18   A    
C53   C54   S    
C28   N6    A    
C57   H38   S    
C9    H18   S    
C4    C8    A    
C45   C53   S    
C59   C60   S    
C41   H13   S    
Cu1   Cu2   S    
C21   C31   A    
C55   H33   S    
C56   H30   S    
C22   C32   A    
Cu1   N6    S    
C35   C37   A    
C26   H7    S    
Cu2   O6    S    
C3    C7    A    
C27   H6    S    
Cu2   O3    S    
C36   H12   S    
C43   C52   S    
C23   C49   S    
C27   C29   A    
C35   H11   S    
C15   C16   A    
C29   C33   A    
C33   C36   A    
C58   H35   S    
C34   C35   A    
C51   N2    A    
C57   H39   S    
C46   C55   S    
C38   H4    S    
C11   C15   A    
C39   H1    S    
C12   C16   A    
C16   C17   A    
C40   H2    S    
C57   C58   S    
C23   O5    A    
C2    O4    A    
C32   C38   A    
C52   N1    A    
C53   H29   S    
C5    C13   A    
C59   H43   S    
C54   H26   S    
C10   H17   S    
C40   C42   A    
C56   H31   S    
C42   H14   S    
C41   C43   A    
C20   H16   S    
C42   C44   A    
C24   O8    A    
Cu2   N5    S    
C44   C46   A    
C7    H20   S    
C5    C7    A    
C45   C47   A    
C24   C50   S    
C46   C48   A    
C30   C34   A    
C14   C20   A    
N2    N4    A    
C21   C25   A    
Cu2   O2    S    
C13   C19   A    
C6    C8    A    
C54   H27   S    
C60   H41   S    
C31   C37   A    
C1    C3    S    
C5    H21   S    
C2    C4    S    
C3    C9    A    
C6    C14   A    
C43   C45   A    
C18   H24   S    
C60   H42   S    
Cu1   O8    S    
C17   H23   S    
C33   C34   A    
C52   N4    A    
C48   C50   A    
C9    C11   A    
C10   C12   A    
C44   C51   S    
C39   C49   A    
C12   C14   A    
C56   H32   S    
C47   C57   S    
Cu1   O5    S    
C23   O7    A    
C19   H15   S    
C1    O1    A    
C4    C10   A    
C48   C59   S    
C28   H5    S    
C51   N3    A    
C26   N6    A    
C55   H34   S    
C24   O6    A    
Cu1   O1    S    
C6    H22   S    
C47   C49   A    
N1    N3    A    
C58   H37   S    
C36   C38   A    
Cu2   O7    S    
C29   C31   A    
C30   C32   A    
C11   C13   A    
C40   C50   A    
C28   C30   A    
C8    H19   S    
C17   C19   A    
C58   H36   S    
C2    O2    A    
Cu1   O4    S    
C18   C20   A    
C25   H8    S    
C54   H25   S    
C59   H44   S    
C21   H9    S    
C22   H10   S    
C27   N5    A    
C39   C41   A    
C22   C26   A    
C25   N5    A    
C55   C56   S    
C53   H28   S    
C37   H3    S    
C60   H40   S    
