data_mof_unit_18277.cif
_audit_creation_date              2012-12-11T15:37:33-0500
_audit_creation_method            fapswitch 2.2
_symmetry_space_group_name_H-M    P1
_symmetry_Int_Tables_number       1
_space_group_crystal_system       triclinic
_cell_length_a                    17.441345
_cell_length_b                    24.265325
_cell_length_c                    14.983397
_cell_angle_alpha                 89.886052
_cell_angle_beta                  126.050587
_cell_angle_gamma                 90.145558
_cell_volume                      5126.88632073

loop_
_atom_site_label
_atom_site_type_symbol
_atom_type_description
_atom_site_fract_x
_atom_site_fract_y
_atom_site_fract_z
_atom_type_partial_charge
C1    C     C_R   0.809305 0.625490 0.907081 -0.098651
C2    C     C_3   0.600079 0.500239 0.540002 0.180142
C3    C     C_3   0.068881 0.999749 0.427940 0.041852
C4    C     C_2   0.095023 0.599742 0.355308 0.487726
C5    C     C_2   0.912611 0.399526 0.648312 0.521350
C6    C     C_2   0.914688 0.599776 0.645589 0.523779
C7    C     C_2   0.093140 0.398897 0.351422 0.569799
C8    C     C_2   0.599480 0.099445 0.355633 0.494661
C9    C     C_2   0.489661 0.898756 0.688052 0.521028
C10   C     C_2   0.479819 0.099849 0.677701 0.481009
C11   C     C_2   0.595283 0.898506 0.350632 0.564855
C12   C     C_2   0.405191 0.482399 0.539937 0.477150
C13   C     C_3   0.922306 0.000384 0.364822 0.171786
C14   C     C_2   0.626542 0.521355 0.383457 0.482530
C15   C     C_2   0.888718 0.002527 0.523623 0.489459
C16   C     C_2   0.137143 0.998814 0.398233 0.485608
C17   C     C_3   0.094299 0.000990 0.544313 0.176730
C18   C     C_R   0.657608 0.314060 0.900315 -0.164879
C19   C     C_R   0.214536 0.766994 0.100146 -0.156707
C20   C     C_R   0.338874 0.311754 0.097931 -0.170888
C21   C     C_R   0.658888 0.686894 0.900471 -0.153139
C22   C     C_R   0.158021 0.814417 0.900567 -0.167182
C23   C     C_R   0.710706 0.268576 0.100111 -0.156261
C24   C     C_R   0.711776 0.731831 0.100413 -0.162156
C25   C     C_R   0.185296 0.368062 0.091155 -0.139943
C26   C     C_R   0.285147 0.265784 0.898568 -0.153584
C27   C     C_R   0.112164 0.767705 0.900271 -0.156969
C28   C     C_R   0.758788 0.314068 0.100040 -0.160166
C29   C     C_R   0.760031 0.686631 0.100222 -0.161883
C30   C     C_R   0.235486 0.310070 0.898090 -0.158242
C31   C     C_R   0.609846 0.268375 0.900289 -0.161271
C32   C     C_R   0.260453 0.813551 0.100296 -0.166631
C33   C     C_R   0.388170 0.267083 0.098519 -0.161808
C34   C     C_R   0.610992 0.732293 0.900570 -0.150839
C35   C     C_R   0.146737 0.740660 0.999998 0.146008
C36   C     C_R   0.151263 0.652186 0.092138 -0.115079
C37   C     C_R   0.739150 0.333059 0.000143 0.127585
C38   C     C_R   0.740234 0.667761 0.000257 0.142729
C39   C     C_R   0.255411 0.328738 0.998039 0.129496
C40   C     C_R   0.642541 0.242158 0.000247 0.138009
C41   C     C_R   0.239519 0.833424 0.000402 0.130933
C42   C     C_R   0.354462 0.240292 0.998984 0.138936
C43   C     C_R   0.643246 0.758147 0.000612 0.124795
C44   C     C_R   0.910386 0.489803 0.456056 -0.038442
C45   C     C_R   0.103012 0.510241 0.550655 -0.111126
C46   C     C_R   0.942104 0.489028 0.390989 -0.220981
C47   C     C_R   0.808972 0.374811 0.907108 -0.124754
C48   C     C_R   0.071268 0.510836 0.615881 -0.225180
C49   C     C_R   0.467066 0.989075 0.516476 -0.108392
C50   C     C_R   0.645694 0.012283 0.564953 -0.118584
C51   C     C_R   0.478241 0.987991 0.433710 -0.174039
C52   C     C_R   0.634551 0.012923 0.648802 -0.171864
C53   C     C_R   0.038181 0.499076 0.438942 0.155728
C54   C     C_R   0.975245 0.500573 0.567922 0.122601
C55   C     C_R   0.567289 0.999365 0.458745 0.154061
C56   C     C_R   0.545433 0.000824 0.623200 0.169723
C57   C     C_R   0.902357 0.376840 0.092227 -0.143447
C58   C     C_R   0.348559 0.151861 0.907320 -0.130575
C59   C     C_R   0.059663 0.650734 0.908275 -0.113674
C60   C     C_R   0.095318 0.374787 0.907009 -0.142022
C61   C     C_R   0.902627 0.623278 0.092259 -0.057957
C62   C     C_R   0.402265 0.877295 0.092324 -0.142333
C63   C     C_R   0.554960 0.152344 0.909084 -0.150093
C64   C     C_R   0.554018 0.847405 0.909488 -0.106675
C65   C     C_R   0.441171 0.150790 0.091630 -0.106003
C66   C     C_R   0.053341 0.545437 0.306531 -0.074766
C67   C     C_R   0.953089 0.454176 0.696585 -0.053306
C68   C     C_R   0.955294 0.546024 0.697685 -0.071268
C69   C     C_R   0.650189 0.847464 0.092636 -0.150794
C70   C     C_R   0.053566 0.453988 0.306055 -0.061965
C71   C     C_R   0.555035 0.045768 0.306764 -0.054265
C72   C     C_R   0.506714 0.953810 0.737567 -0.003659
C73   C     C_R   0.505000 0.046691 0.735897 -0.018902
C74   C     C_R   0.556044 0.953888 0.306708 -0.068541
C75   C     C_R   0.741367 0.454265 0.699011 -0.177528
C76   C     C_R   0.268626 0.546829 0.255898 -0.051298
C77   C     C_R   0.270586 0.455227 0.263345 -0.066384
C78   C     C_R   0.741440 0.545601 0.698859 -0.085030
C79   C     C_R   0.237539 0.954712 0.702389 -0.137215
C80   C     C_R   0.650022 0.152645 0.092369 -0.121141
C81   C     C_R   0.768208 0.045941 0.248213 -0.008954
C82   C     C_R   0.768279 0.954264 0.248556 -0.062309
C83   C     C_R   0.236876 0.046389 0.705582 -0.075997
C84   C     C_R   0.812658 0.637560 0.999850 -0.017631
C85   C     C_R   0.182828 0.357701 0.998768 0.058795
C86   C     C_R   0.122148 0.683010 0.999959 0.005552
C87   C     C_R   0.812106 0.362905 0.999827 0.052404
C88   C     C_R   0.379067 0.182927 0.999537 0.017631
C89   C     C_R   0.617999 0.815629 0.000928 0.061736
C90   C     C_R   0.618120 0.184401 0.000519 0.016445
C91   C     C_R   0.309086 0.874778 0.907236 -0.129332
C92   C     C_R   0.312082 0.863395 0.999958 0.055079
C93   C     C_R   0.067589 0.499508 0.368447 0.004269
C94   C     C_R   0.945363 0.500242 0.637988 0.022937
C95   C     C_R   0.573592 0.999700 0.369385 0.010487
C96   C     C_R   0.532242 0.000504 0.707435 -0.102923
C97   C     C_R   0.692926 0.499923 0.639988 0.095444
C98   C     C_R   0.324880 0.501403 0.288445 0.019849
C99   C     C_R   0.185215 0.000733 0.648719 0.078868
C100  C     C_R   0.823863 0.000179 0.274216 -0.015754
C101  C     C_3   0.532123 0.451392 0.504917 -0.266057
C102  C     C_3   0.423687 0.502300 0.372724 0.164518
C103  C     C_3   0.491244 0.551327 0.407181 -0.240025
C104  C     C_3   0.496164 0.461730 0.383908 -0.252082
C105  C     C_3   0.527232 0.540787 0.527954 -0.249704
C106  C     C_3   0.021464 0.955852 0.515160 -0.261773
C107  C     C_3   0.995123 0.045648 0.393540 -0.239487
C108  C     C_3   0.994562 0.954489 0.396386 -0.251105
C109  C     C_3   0.022074 0.046754 0.512394 -0.260793
C110  C     C_3   0.459235 0.492101 0.491973 0.042021
C111  C     C_3   0.565583 0.510672 0.421550 0.046091
C112  C     C_3   0.949100 0.001596 0.482395 0.049414
H1    H     H_    0.751326 0.631836 0.821719 0.097954
H2    H     H_    0.016752 0.664847 0.824448 0.140521
H3    H     H_    0.070172 0.371312 0.822572 0.088910
H4    H     H_    0.928306 0.627180 0.177037 0.108510
H5    H     H_    0.427861 0.873555 0.177089 0.082490
H6    H     H_    0.504969 0.168317 0.827529 0.147708
H7    H     H_    0.502409 0.830929 0.828731 0.077465
H8    H     H_    0.484296 0.164719 0.175729 0.133756
H9    H     H_    0.727455 0.412033 0.670592 0.102281
H10   H     H_    0.289877 0.589592 0.272799 0.096108
H11   H     H_    0.296022 0.414500 0.296326 0.093413
H12   H     H_    0.237234 0.353770 0.173801 0.090330
H13   H     H_    0.726518 0.587874 0.670659 0.144490
H14   H     H_    0.222514 0.912945 0.671316 0.099457
H15   H     H_    0.790919 0.088456 0.266477 0.097749
H16   H     H_    0.791025 0.911802 0.267032 0.095749
H17   H     H_    0.221258 0.088955 0.679248 0.111116
H18   H     H_    0.549689 0.410599 0.546238 0.123539
H19   H     H_    0.472315 0.591846 0.364714 0.127143
H20   H     H_    0.480496 0.429946 0.322014 0.127635
H21   H     H_    0.541449 0.572867 0.588789 0.122973
H22   H     H_    0.033544 0.919391 0.566874 0.124518
H23   H     H_    0.188985 0.666412 0.176258 0.126433
H24   H     H_    0.982347 0.081931 0.341196 0.128652
H25   H     H_    0.981397 0.917159 0.346450 0.128951
H26   H     H_    0.034520 0.084252 0.561668 0.128774
H27   H     H_    0.635988 0.330334 0.821501 0.108240
H28   H     H_    0.239195 0.749401 0.179068 0.118315
H29   H     H_    0.361046 0.328887 0.176348 0.108149
H30   H     H_    0.637348 0.670866 0.821604 0.111546
H31   H     H_    0.135198 0.831566 0.821893 0.108997
H32   H     H_    0.733987 0.251559 0.179006 0.122029
H33   H     H_    0.734986 0.748690 0.179326 0.113196
H34   H     H_    0.750858 0.368582 0.821767 0.090608
H35   H     H_    0.261637 0.248670 0.819772 0.120534
H36   H     H_    0.055691 0.750698 0.821406 0.118137
H37   H     H_    0.817129 0.330201 0.178781 0.125024
H38   H     H_    0.818420 0.670527 0.178932 0.108163
H39   H     H_    0.175875 0.325151 0.819148 0.128405
H40   H     H_    0.553830 0.251099 0.821457 0.119311
H41   H     H_    0.318618 0.829697 0.179124 0.120689
H42   H     H_    0.446207 0.250959 0.177423 0.115723
H43   H     H_    0.555105 0.749656 0.821767 0.123407
H44   H     H_    0.836435 0.481785 0.419943 0.172883
H45   H     H_    0.309648 0.165486 0.822653 0.105156
H46   H     H_    0.176960 0.518275 0.586427 0.134718
H47   H     H_    0.892186 0.480898 0.303358 0.124535
H48   H     H_    0.121052 0.518978 0.703507 0.129007
H49   H     H_    0.398101 0.980503 0.498114 0.157161
H50   H     H_    0.713934 0.021621 0.582019 0.142870
H51   H     H_    0.417730 0.978832 0.350089 0.120524
H52   H     H_    0.694242 0.022467 0.732529 0.122642
H53   H     H_    0.115491 0.609687 0.437219 0.002235
H54   H     H_    0.901747 0.369876 0.694214 -0.009698
H55   H     H_    0.917890 0.613887 0.579088 0.002853
H56   H     H_    0.689540 0.833797 0.177341 0.091606
H57   H     H_    0.096654 0.368543 0.300878 -0.022353
H58   H     H_    0.604556 0.114224 0.427231 -0.005708
H59   H     H_    0.429797 0.874570 0.670192 -0.021089
H60   H     H_    0.522322 0.116399 0.652653 -0.005108
H61   H     H_    0.596216 0.868139 0.298238 -0.026539
H62   H     H_    0.443628 0.471445 0.626412 0.008834
H63   H     H_    0.594060 0.526356 0.296105 0.000546
H64   H     H_    0.922779 0.003896 0.611808 0.001107
H65   H     H_    0.110418 0.997744 0.312092 0.001616
H66   H     H_    0.688861 0.166431 0.176897 0.130561
H67   H     H_    0.251311 0.867844 0.822069 0.089389
H68   H     H_    0.927988 0.372731 0.176935 0.083386
N1    N     N_R   0.892620 0.603790 0.941800 -0.039146
N2    N     N_R   0.047790 0.602400 0.942090 -0.042560
N3    N     N_R   0.047790 0.397600 0.942090 -0.048510
N4    N     N_R   0.952210 0.602400 0.057910 -0.028529
N5    N     N_R   0.452210 0.897600 0.057910 -0.048782
N6    N     N_R   0.547790 0.102400 0.942090 -0.046373
N7    N     N_R   0.547790 0.897600 0.942090 -0.054042
N8    N     N_R   0.452210 0.102400 0.057910 -0.038050
N9    N     N_R   0.026300 0.529110 0.206760 -0.049552
N10   N     N_R   0.973700 0.470890 0.793240 -0.088520
N11   N     N_R   0.973700 0.529110 0.793240 -0.050405
N12   N     N_R   0.107380 0.396210 0.058200 -0.044995
N13   N     N_R   0.026300 0.470890 0.206760 -0.091628
N14   N     N_R   0.526300 0.029110 0.206760 -0.048526
N15   N     N_R   0.473700 0.970890 0.793240 -0.083377
N16   N     N_R   0.473700 0.029110 0.793240 -0.038477
N17   N     N_R   0.526300 0.970890 0.206760 -0.089575
N18   N     N_R   0.818530 0.472270 0.792960 -0.048897
N19   N     N_R   0.181470 0.527730 0.207040 -0.030450
N20   N     N_R   0.181470 0.472270 0.207040 -0.049006
N21   N     N_R   0.818530 0.527730 0.792960 -0.041639
N22   N     N_R   0.318530 0.972270 0.792960 -0.048011
N23   N     N_R   0.107380 0.603790 0.058200 -0.045646
N24   N     N_R   0.681470 0.027730 0.207040 -0.017651
N25   N     N_R   0.681470 0.972270 0.207040 -0.044198
N26   N     N_R   0.318530 0.027730 0.792960 -0.042415
N27   N     N_R   0.892620 0.396210 0.941800 -0.042973
N28   N     N_R   0.392620 0.103790 0.941800 -0.046365
N29   N     N_R   0.607380 0.896210 0.058200 -0.048428
N30   N     N_R   0.607380 0.103790 0.058200 -0.043817
N31   N     N_R   0.392620 0.896210 0.941800 -0.042933
N32   N     N_R   0.952210 0.397600 0.057910 -0.049585
Ni1   Ni    Ni4+2 0.934150 0.565840 0.869060 0.274803
Ni2   Ni    Ni4+2 0.065850 0.434160 0.130940 0.210351
Ni3   Ni    Ni4+2 0.065850 0.565840 0.130940 0.286018
Ni4   Ni    Ni4+2 0.934150 0.434160 0.869060 0.200285
Ni5   Ni    Ni4+2 0.434150 0.065840 0.869060 0.261148
Ni6   Ni    Ni4+2 0.565850 0.934160 0.130940 0.209440
Ni7   Ni    Ni4+2 0.565850 0.065840 0.130940 0.279512
Ni8   Ni    Ni4+2 0.434150 0.934160 0.869060 0.201704
O1    O     O_2   0.109571 0.633266 0.305984 -0.602517
O2    O     O_2   0.712454 0.524719 0.449958 -0.607300
O3    O     O_2   0.802413 0.001686 0.460121 -0.589183
O4    O     O_2   0.222506 0.999277 0.470013 -0.591527
O5    O     O_2   0.890211 0.387144 0.556943 -0.576589
O6    O     O_2   0.871753 0.627089 0.671146 -0.606905
O7    O     O_2   0.123354 0.387083 0.446058 -0.561499
O8    O     O_2   0.636185 0.126029 0.320783 -0.608318
O9    O     O_2   0.540726 0.880538 0.664341 -0.548303
O10   O     O_2   0.407653 0.123766 0.650894 -0.585175
O11   O     O_2   0.628075 0.886421 0.445932 -0.545111
O12   O     O_2   0.319162 0.487236 0.483819 -0.585210

loop_
_geom_bond_atom_site_label_1
_geom_bond_atom_site_label_2
_ccdc_geom_bond_type
C105  C110  S    
N10   N11   A    
C50   H50   S    
C61   C84   A    
C78   N21   A    
C10   O10   D    
C13   C107  S    
N18   Ni4   S    
N3    N12   A    
C72   N15   A    
C12   C110  S    
N16   Ni5   S    
C8    O8    D    
C67   N10   A    
N13   Ni2   S    
C106  C112  S    
C34   H43   S    
C31   C40   A    
C1    C84   A    
C48   C54   A    
N31   Ni8   S    
C48   H48   S    
N10   Ni4   S    
C43   C89   S    
C64   H7    S    
C7    O7    D    
C15   H64   S    
N19   Ni3   S    
C33   C42   A    
C9    O9    D    
C18   C37   A    
C21   H30   S    
C83   H17   S    
C13   C112  S    
C24   H33   S    
C59   H2    S    
C108  H25   S    
C10   C73   S    
N8    Ni7   S    
C22   C41   A    
C71   C95   A    
C10   H60   S    
C23   C40   A    
C66   N9    A    
C75   C97   A    
C4    H53   S    
C46   C53   A    
C103  C111  S    
N22   Ni8   S    
C26   H35   S    
C24   C29   A    
C62   H5    S    
N9    Ni3   S    
C29   H38   S    
C79   C99   A    
C12   H62   S    
C21   C38   A    
N7    N29   A    
C2    C97   S    
C8    H58   S    
C19   H28   S    
C49   C51   A    
C62   C92   A    
C29   C38   A    
C67   C94   A    
C50   C52   A    
C32   C41   A    
C9    C72   S    
C51   H51   S    
C58   C88   A    
N28   Ni5   S    
C36   N23   A    
C61   N4    A    
C49   H49   S    
C69   H56   S    
C5    C67   S    
C101  H18   S    
C79   N22   A    
C60   N3    A    
C6    C68   S    
C47   H34   S    
C45   C53   A    
C28   H37   S    
C83   C99   A    
C81   H15   S    
C15   O3    D    
C107  C109  S    
C102  C103  S    
C1    H1    S    
C64   C89   A    
C78   C97   A    
C13   C108  S    
C69   C89   A    
C19   C32   A    
C74   C95   A    
N12   Ni2   S    
N15   Ni8   S    
C25   H12   S    
C44   C46   A    
C12   O12   D    
C81   N24   A    
N7    Ni8   S    
N26   Ni5   S    
C14   C111  S    
C2    C111  S    
N6    Ni5   S    
N25   Ni6   S    
C11   H61   S    
C54   C94   S    
N5    Ni6   S    
C45   H46   S    
N24   Ni7   S    
C53   C93   S    
N2    N23   A    
C44   H44   S    
C15   C112  S    
C70   C93   A    
C91   N31   A    
C109  C112  S    
C91   C92   A    
C20   C39   A    
C1    N1    A    
C33   H42   S    
C27   H36   S    
C71   N14   A    
C52   C56   A    
C21   C34   A    
C2    C101  S    
C36   C86   A    
C101  C110  S    
C98   C102  S    
C58   H45   S    
C68   C94   A    
N30   Ni7   S    
C57   C87   A    
C91   H67   S    
C109  H26   S    
C104  C111  S    
C47   C87   A    
C22   H31   S    
C59   N2    A    
C14   H63   S    
C77   H11   S    
N9    N13   A    
N2    Ni1   S    
C106  H22   S    
N20   Ni2   S    
C25   N12   A    
C74   N17   A    
C58   N28   A    
C5    H54   S    
N15   N16   A    
C63   N6    A    
N21   Ni1   S    
C61   H4    S    
C25   C85   A    
C102  C110  S    
C77   C98   A    
C103  C105  S    
C23   C28   A    
C102  C104  S    
C17   C99   S    
C82   H16   S    
C52   H52   S    
C66   C93   A    
C20   C33   A    
C55   C95   S    
N14   N17   A    
C79   H14   S    
N32   Ni2   S    
C26   C30   A    
C101  C104  S    
C22   C27   A    
N6    N30   A    
C104  H20   S    
N27   N32   A    
C23   H32   S    
C16   O4    D    
C69   N29   A    
C39   C85   S    
C76   C98   A    
N17   Ni6   S    
C36   H23   S    
C16   H65   S    
C26   C42   A    
C65   C88   A    
C80   N30   A    
C45   C48   A    
N23   Ni3   S    
N3    Ni4   S    
C56   C96   S    
C6    H55   S    
N8    N28   A    
C8    C71   S    
C11   O11   D    
N1    N4    A    
C38   C84   S    
C75   H9    S    
C105  H21   S    
C82   C100  A    
C20   H29   S    
C37   C87   S    
C34   C43   A    
N4    Ni3   S    
C11   C74   S    
C17   C109  S    
C63   H6    S    
C57   H68   S    
C60   C85   A    
N14   Ni7   S    
C81   C100  A    
C3    C108  S    
C83   N26   A    
C49   C56   A    
C2    C105  S    
C50   C55   A    
C68   N11   A    
C47   N27   A    
C27   C35   A    
C13   C100  S    
C7    H57   S    
C7    C70   S    
C59   C86   A    
C76   H10   S    
C76   N19   A    
C19   C35   A    
C17   C106  S    
N11   Ni1   S    
C4    C66   S    
C31   H40   S    
C30   H39   S    
N5    N31   A    
C106  C108  S    
C28   C37   A    
C70   N13   A    
C14   O2    D    
C46   H47   S    
C6    O6    D    
C63   C90   A    
N27   Ni4   S    
C35   C86   S    
C65   H8    S    
C5    O5    D    
C30   C39   A    
C3    C17   S    
N18   N21   A    
C51   C55   A    
C80   C90   A    
C18   H27   S    
C77   N20   A    
C65   N8    A    
C64   N7    A    
C9    H59   S    
C62   N5    A    
C32   H41   S    
C72   C96   A    
C75   N18   A    
C44   C54   A    
N19   N20   A    
C41   C92   S    
C42   C88   S    
N24   N25   A    
N22   N26   A    
C73   N16   A    
C24   C43   A    
C60   H3    S    
N1    Ni1   S    
C18   C31   A    
C73   C96   A    
C40   C90   S    
C78   H13   S    
C103  H19   S    
C82   N25   A    
C57   N32   A    
C3    C16   S    
C4    O1    D    
C80   H66   S    
N29   Ni6   S    
C107  H24   S    
C3    C107  S    
