data_mof_unit_21589.cif
_audit_creation_date              2012-12-11T15:23:43-0500
_audit_creation_method            fapswitch 2.2
_symmetry_space_group_name_H-M    P1
_symmetry_Int_Tables_number       1
_space_group_crystal_system       triclinic
_cell_length_a                    17.161719
_cell_length_b                    24.271524
_cell_length_c                    14.924581
_cell_angle_alpha                 89.703028
_cell_angle_beta                  125.076244
_cell_angle_gamma                 89.974743
_cell_volume                      5087.56110334

loop_
_atom_site_label
_atom_site_type_symbol
_atom_type_description
_atom_site_fract_x
_atom_site_fract_y
_atom_site_fract_z
_atom_type_partial_charge
C1    C     C_R   0.311805 0.374585 0.911631 -0.143070
C2    C     C_R   0.636068 0.344456 0.087798 -0.030876
C3    C     C_R   0.811811 0.874576 0.911630 -0.143118
C4    C     C_R   0.136076 0.844458 0.087801 -0.030754
C5    C     C_R   0.311055 0.638973 0.998441 0.034954
C6    C     C_R   0.616986 0.684166 0.001048 0.047394
C7    C     C_R   0.811054 0.138973 0.998440 0.034943
C8    C     C_R   0.116993 0.184165 0.001048 0.047372
C9    C     C_R   0.562067 0.497710 0.366332 0.124396
C10   C     C_R   0.557094 0.499268 0.731602 0.102208
C11   C     C_R   0.062087 0.997708 0.366340 0.124385
C12   C     C_R   0.057102 0.999263 0.731611 0.102554
C13   C     C_R   0.187509 0.501680 0.644371 -0.029169
C14   C     C_R   0.824973 0.503849 0.266478 -0.037110
C15   C     C_R   0.687513 0.001681 0.644362 -0.029167
C16   C     C_R   0.324976 0.003855 0.266497 -0.037082
C17   C     C_2   0.989002 0.468948 0.359784 -0.165536
C18   C     C_2   0.087396 0.478782 0.450599 -0.135598
C19   C     C_2   0.489000 0.968951 0.359755 -0.165535
C20   C     C_2   0.587396 0.978772 0.450588 -0.135576
C21   C     C_2   0.926844 0.510695 0.315414 -0.176631
C22   C     C_2   0.101415 0.507029 0.535097 -0.195071
C23   C     C_2   0.426846 0.010701 0.315426 -0.176626
C24   C     C_2   0.601423 0.007030 0.535082 -0.195064
C25   C     C_R   0.154612 0.686807 0.897920 -0.170160
C26   C     C_R   0.709012 0.767394 0.101825 -0.172303
C27   C     C_R   0.654610 0.186807 0.897916 -0.170088
C28   C     C_R   0.209024 0.267391 0.101827 -0.172291
C29   C     C_R   0.602145 0.230263 0.897507 -0.156157
C30   C     C_R   0.257765 0.312921 0.102449 -0.170240
C31   C     C_R   0.102149 0.730264 0.897512 -0.156030
C32   C     C_R   0.757761 0.812920 0.102447 -0.170249
C33   C     C_R   0.630457 0.254883 0.996614 0.144481
C34   C     C_R   0.238818 0.332813 0.003475 0.146992
C35   C     C_R   0.130466 0.754885 0.996620 0.144463
C36   C     C_R   0.738822 0.832807 0.003473 0.147014
C37   C     C_R   0.698012 0.228189 0.095582 -0.189117
C38   C     C_R   0.156824 0.315132 0.904334 -0.179890
C39   C     C_R   0.198026 0.728195 0.095588 -0.189125
C40   C     C_R   0.656828 0.815127 0.904330 -0.179953
C41   C     C_R   0.251027 0.684951 0.096036 -0.165167
C42   C     C_R   0.608236 0.769441 0.903578 -0.164117
C43   C     C_R   0.751017 0.184948 0.096031 -0.165192
C44   C     C_R   0.108238 0.269443 0.903582 -0.164049
C45   C     C_R   0.400646 0.624891 0.090482 -0.124485
C46   C     C_R   0.557175 0.652064 0.910026 -0.142337
C47   C     C_R   0.900644 0.124891 0.090482 -0.124480
C48   C     C_R   0.057179 0.152063 0.910026 -0.142308
C49   C     C_R   0.235783 0.668073 0.997417 0.142941
C50   C     C_R   0.640883 0.742037 0.002142 0.140365
C51   C     C_R   0.735778 0.168072 0.997413 0.142923
C52   C     C_R   0.140892 0.242035 0.002144 0.140352
C53   C     C_R   0.605677 0.548856 0.626571 -0.219535
C54   C     C_R   0.602606 0.547443 0.532066 -0.229421
C55   C     C_R   0.105686 0.048849 0.626574 -0.219854
C56   C     C_R   0.102632 0.047437 0.532079 -0.229432
C57   C     C_R   0.594232 0.496922 0.481779 -0.079590
C58   C     C_R   0.603512 0.499643 0.674137 -0.098695
C59   C     C_R   0.094257 0.996917 0.481788 -0.079388
C60   C     C_R   0.103500 0.999635 0.674125 -0.097999
C61   C     C_R   0.607921 0.447288 0.540266 0.418479
C62   C     C_R   0.623255 0.449893 0.642820 0.359345
C63   C     C_R   0.107932 0.947281 0.540265 0.417978
C64   C     C_R   0.123230 0.949886 0.642800 0.358959
C65   C     C_R   0.548750 0.452909 0.302398 -0.155098
C66   C     C_R   0.522083 0.453290 0.753684 -0.125829
C67   C     C_R   0.048763 0.952909 0.302402 -0.155139
C68   C     C_R   0.022088 0.953287 0.753694 -0.125509
C69   C     C_R   0.239985 0.546374 0.704171 -0.225624
C70   C     C_R   0.766706 0.547473 0.246831 -0.231857
C71   C     C_R   0.739989 0.046375 0.704166 -0.225655
C72   C     C_R   0.266707 0.047476 0.246851 -0.231876
C73   C     C_R   0.546638 0.544161 0.302638 -0.143483
C74   C     C_R   0.524961 0.545343 0.756674 -0.133913
C75   C     C_R   0.046648 0.044160 0.302643 -0.143507
C76   C     C_R   0.024967 0.045341 0.756679 -0.134197
C77   C     C_R   0.239218 0.454405 0.701854 0.512582
C78   C     C_R   0.768524 0.456415 0.236022 0.537824
C79   C     C_R   0.739217 0.954406 0.701851 0.512587
C80   C     C_R   0.268529 0.956420 0.236023 0.537768
C81   C     C_R   0.309921 0.625693 0.907195 -0.118763
C82   C     C_R   0.646930 0.651800 0.091662 -0.130805
C83   C     C_R   0.809920 0.125693 0.907195 -0.118744
C84   C     C_R   0.146933 0.151800 0.091662 -0.130786
C85   C     C_R   0.402917 0.375117 0.093847 -0.127989
C86   C     C_R   0.551605 0.346452 0.907440 -0.143000
C87   C     C_R   0.902918 0.875114 0.093847 -0.128003
C88   C     C_R   0.051606 0.846452 0.907442 -0.142922
C89   C     C_R   0.313101 0.362023 0.003175 0.027616
C90   C     C_R   0.605983 0.312563 0.997208 -0.016615
C91   C     C_R   0.813105 0.862016 0.003174 0.027634
C92   C     C_R   0.105989 0.812565 0.997211 -0.016643
H1    H     H_    0.254785 0.368287 0.828997 0.137151
H2    H     H_    0.669324 0.329875 0.170779 0.126283
H3    H     H_    0.754804 0.868265 0.828997 0.137191
H4    H     H_    0.169339 0.829879 0.170785 0.126204
H5    H     H_    0.953767 0.552660 0.331444 0.149594
H6    H     H_    0.045339 0.532498 0.526547 0.149325
H7    H     H_    0.453772 0.052666 0.331493 0.149581
H8    H     H_    0.545356 0.032511 0.526527 0.149298
H9    H     H_    0.136466 0.672118 0.819926 0.109017
H10   H     H_    0.732256 0.749388 0.179839 0.106722
H11   H     H_    0.636467 0.172120 0.819921 0.109033
H12   H     H_    0.232278 0.249380 0.179840 0.106723
H13   H     H_    0.546362 0.247674 0.819303 0.114111
H14   H     H_    0.316455 0.328162 0.180689 0.111705
H15   H     H_    0.046364 0.747673 0.819309 0.114099
H16   H     H_    0.816449 0.828162 0.180687 0.111698
H17   H     H_    0.718014 0.244176 0.173546 0.118586
H18   H     H_    0.135644 0.332347 0.826507 0.112044
H19   H     H_    0.218034 0.744184 0.173553 0.118581
H20   H     H_    0.635654 0.832338 0.826503 0.112048
H21   H     H_    0.309240 0.668857 0.174248 0.111862
H22   H     H_    0.551800 0.752998 0.825249 0.110447
H23   H     H_    0.809228 0.168852 0.174243 0.111871
H24   H     H_    0.051800 0.253001 0.825254 0.110454
H25   H     H_    0.599634 0.588556 0.654547 0.144417
H26   H     H_    0.597248 0.586476 0.493900 0.143198
H27   H     H_    0.099650 0.088548 0.654555 0.144449
H28   H     H_    0.097290 0.086471 0.493923 0.143211
H29   H     H_    0.427343 0.629831 0.175328 0.093765
H30   H     H_    0.510879 0.666033 0.826099 0.089217
H31   H     H_    0.927340 0.129830 0.175327 0.093770
H32   H     H_    0.010884 0.166033 0.826098 0.089222
H33   H     H_    0.570395 0.410970 0.327779 0.166160
H34   H     H_    0.529665 0.410486 0.741601 0.160818
H35   H     H_    0.070414 0.910970 0.327781 0.166159
H36   H     H_    0.029655 0.910482 0.741610 0.160935
H37   H     H_    0.227422 0.588521 0.675008 0.131892
H38   H     H_    0.786026 0.590460 0.257986 0.134837
H39   H     H_    0.727429 0.088521 0.675004 0.131905
H40   H     H_    0.286024 0.090464 0.258012 0.134833
H41   H     H_    0.564021 0.586270 0.329992 0.088361
H42   H     H_    0.538041 0.588051 0.749734 0.099362
H43   H     H_    0.064031 0.086269 0.329997 0.088361
H44   H     H_    0.038046 0.088048 0.749734 0.099409
H45   H     H_    0.252934 0.632300 0.822514 0.092822
H46   H     H_    0.682255 0.665478 0.175118 0.084940
H47   H     H_    0.752933 0.132298 0.822513 0.092835
H48   H     H_    0.182256 0.165478 0.175118 0.084935
H49   H     H_    0.430029 0.370455 0.178893 0.094977
H50   H     H_    0.505617 0.333941 0.822919 0.111744
H51   H     H_    0.930030 0.870453 0.178894 0.094990
H52   H     H_    0.005616 0.833940 0.822922 0.111736
H53   H     H_    0.966319 0.426653 0.349433 0.178891
H54   H     H_    0.142914 0.452172 0.460781 0.166775
H55   H     H_    0.466313 0.926653 0.349337 0.178899
H56   H     H_    0.642906 0.952152 0.460780 0.166775
N1    N     N_R   0.395440 0.396300 0.944370 -0.033084
N2    N     N_R   0.604560 0.396300 0.055630 -0.055476
N3    N     N_R   0.895440 0.896300 0.944370 -0.033092
N4    N     N_R   0.104560 0.896300 0.055630 -0.055454
N5    N     N_R   0.449890 0.602500 0.055780 -0.038259
N6    N     N_R   0.550110 0.602500 0.944220 -0.039635
N7    N     N_R   0.949890 0.102500 0.055780 -0.038261
N8    N     N_R   0.050110 0.102500 0.944220 -0.039619
N9    N     N_R   0.525090 0.470990 0.205640 -0.051558
N10   N     N_R   0.474910 0.470990 0.794360 -0.048033
N11   N     N_R   0.025090 0.970990 0.205640 -0.051556
N12   N     N_R   0.974910 0.970990 0.794360 -0.048118
N13   N     N_R   0.320240 0.527820 0.794510 -0.065505
N14   N     N_R   0.679760 0.527820 0.205490 -0.065164
N15   N     N_R   0.820240 0.027820 0.794510 -0.065501
N16   N     N_R   0.179760 0.027820 0.205490 -0.065160
N17   N     N_R   0.524580 0.527810 0.205160 -0.039068
N18   N     N_R   0.475420 0.527810 0.794840 -0.044235
N19   N     N_R   0.024580 0.027810 0.205160 -0.039061
N20   N     N_R   0.975420 0.027810 0.794840 -0.044229
N21   N     N_R   0.320750 0.470990 0.794990 -0.085497
N22   N     N_R   0.679250 0.470990 0.205010 -0.096105
N23   N     N_R   0.820750 0.970990 0.794990 -0.085504
N24   N     N_R   0.179250 0.970990 0.205010 -0.096126
N25   N     N_R   0.393580 0.602500 0.942610 -0.036905
N26   N     N_R   0.606420 0.602500 0.057390 -0.036334
N27   N     N_R   0.893580 0.102500 0.942610 -0.036906
N28   N     N_R   0.106420 0.102500 0.057390 -0.036329
N29   N     N_R   0.451750 0.396300 0.057540 -0.044200
N30   N     N_R   0.548250 0.396300 0.942460 -0.052668
N31   N     N_R   0.951750 0.896300 0.057540 -0.044201
N32   N     N_R   0.048250 0.896300 0.942460 -0.052684
Ni1   Ni    Ni4+2 0.435420 0.434250 0.870220 0.243666
Ni2   Ni    Ni4+2 0.564580 0.434250 0.129780 0.213610
Ni3   Ni    Ni4+2 0.935420 0.934250 0.870220 0.243647
Ni4   Ni    Ni4+2 0.064580 0.934250 0.129780 0.213576
Ni5   Ni    Ni4+2 0.563400 0.564580 0.128670 0.200892
Ni6   Ni    Ni4+2 0.436600 0.564580 0.871330 0.204539
Ni7   Ni    Ni4+2 0.063400 0.064580 0.128670 0.200898
Ni8   Ni    Ni4+2 0.936600 0.064580 0.871330 0.204563
O1    O     O_3   0.608889 0.396170 0.500446 -0.623441
C93   C     C_3   0.520932 0.369590 0.458890 0.289033
H57   H     H_    0.460995 0.393200 0.388541 0.061352
H58   H     H_    0.506664 0.364657 0.522397 0.135350
C94   C     C_3   0.523319 0.312340 0.419446 -0.926576
H59   H     H_    0.580949 0.287409 0.488905 0.269479
H60   H     H_    0.454155 0.291462 0.385302 0.205971
H61   H     H_    0.536292 0.315154 0.354776 0.244940
O2    O     O_3   0.642850 0.401616 0.701876 -0.642702
C95   C     C_3   0.736868 0.403706 0.796903 0.297979
H62   H     H_    0.743817 0.435904 0.854009 0.080300
H63   H     H_    0.788423 0.412105 0.775732 0.098904
C96   C     C_3   0.762093 0.348155 0.855014 -0.895102
H64   H     H_    0.749596 0.314717 0.797617 0.267072
H65   H     H_    0.838383 0.347618 0.924654 0.206950
H66   H     H_    0.717787 0.340610 0.886201 0.254634
O3    O     O_3   0.108895 0.896163 0.500443 -0.623583
C97   C     C_3   0.020926 0.869591 0.458857 0.289087
H67   H     H_    0.961007 0.893198 0.388483 0.061408
H68   H     H_    0.006620 0.864673 0.522336 0.135366
C98   C     C_3   0.023324 0.812333 0.419453 -0.926736
H69   H     H_    0.080932 0.787405 0.488939 0.269448
H70   H     H_    0.954150 0.791462 0.385278 0.205999
H71   H     H_    0.036340 0.815132 0.354815 0.244987
O4    O     O_3   0.142759 0.901616 0.701844 -0.642895
C99   C     C_3   0.237031 0.903516 0.796429 0.298440
H72   H     H_    0.244684 0.935890 0.853653 0.080050
H73   H     H_    0.288267 0.911547 0.774618 0.099123
C100  C     C_3   0.261997 0.848024 0.854743 -0.895029
H74   H     H_    0.248914 0.814449 0.797312 0.266902
H75   H     H_    0.338400 0.847331 0.924076 0.206955
H76   H     H_    0.217961 0.840808 0.886417 0.254613
O5    O     O_3   0.228271 0.402304 0.658027 -0.647592
C101  C     C_3   0.138673 0.379526 0.622398 0.241979
H77   H     H_    0.082423 0.392809 0.538470 0.126912
H78   H     H_    0.115300 0.390861 0.675849 0.060903
C102  C     C_3   0.143903 0.316959 0.618903 -0.928836
H79   H     H_    0.199997 0.299944 0.700652 0.253523
H80   H     H_    0.074417 0.298801 0.592464 0.216606
H81   H     H_    0.160289 0.304952 0.559671 0.260535
O6    O     O_3   0.795919 0.403903 0.228663 -0.658983
C103  C     C_3   0.819594 0.402893 0.151362 0.229315
H82   H     H_    0.865576 0.437339 0.159622 0.100715
H83   H     H_    0.754998 0.405610 0.066171 0.115999
C104  C     C_3   0.871665 0.349320 0.164737 -0.909274
H84   H     H_    0.823264 0.313815 0.141416 0.263475
H85   H     H_    0.897621 0.350091 0.111759 0.216659
H86   H     H_    0.933783 0.343764 0.250937 0.251383
O7    O     O_3   0.728255 0.902303 0.658028 -0.647596
C105  C     C_3   0.638656 0.879535 0.622421 0.241929
H87   H     H_    0.582387 0.892836 0.538515 0.126937
H88   H     H_    0.615320 0.890863 0.675910 0.060872
C106  C     C_3   0.643854 0.816969 0.618877 -0.928811
H89   H     H_    0.700013 0.799944 0.700586 0.253562
H90   H     H_    0.574392 0.798815 0.592543 0.216593
H91   H     H_    0.660128 0.804971 0.559545 0.260497
O8    O     O_3   0.295913 0.903924 0.228563 -0.658991
C107  C     C_3   0.319515 0.902972 0.151195 0.229410
H92   H     H_    0.365515 0.937419 0.159504 0.100777
H93   H     H_    0.254886 0.905737 0.066032 0.115982
C108  C     C_3   0.371526 0.849403 0.164384 -0.909386
H94   H     H_    0.323153 0.813895 0.141192 0.263552
H95   H     H_    0.397276 0.850187 0.111202 0.216732
H96   H     H_    0.433772 0.843847 0.250512 0.251339

loop_
_geom_bond_atom_site_label_1
_geom_bond_atom_site_label_2
_ccdc_geom_bond_type
C2    N2    A    
C23   H7    S    
C55   C56   A    
C25   C31   A    
C93   H57   S    
N20   Ni8   S    
C83   N27   A    
C65   H33   S    
C27   C29   A    
C14   C70   A    
C96   H64   S    
C7    C83   A    
C19   C20   S    
C16   C72   A    
C70   H38   S    
C102  H80   S    
N16   Ni7   S    
C5    C49   S    
C54   C57   A    
C98   H71   S    
C83   H47   S    
C76   H44   S    
C39   C41   A    
C55   H27   S    
O3    C97   S    
C78   O6    S    
C26   C32   A    
C12   C68   A    
C105  C106  S    
N10   N18   A    
C108  H94   S    
O6    C103  S    
C10   C66   A    
C47   N7    A    
C6    C82   A    
C32   C36   A    
C14   C21   S    
N23   Ni3   S    
C10   C58   S    
C69   N13   A    
C53   H25   S    
C87   C91   A    
C26   C50   A    
N26   Ni5   S    
C99   H73   S    
O2    C95   S    
N7    N27   A    
N29   Ni2   S    
C29   C33   A    
C78   N22   A    
C102  H81   S    
C5    C81   A    
N6    Ni6   S    
C103  C104  S    
C3    C91   A    
C106  H89   S    
C79   N23   A    
C57   C61   A    
C2    C90   A    
C28   H12   S    
C93   C94   S    
C43   H23   S    
N27   Ni8   S    
C4    H4    S    
C47   H31   S    
C42   H22   S    
C15   C79   A    
C82   N26   A    
C27   C51   A    
C94   H60   S    
C25   C49   A    
C17   C18   S    
C93   H58   S    
C20   H56   S    
C88   N32   A    
C95   H62   S    
N11   Ni4   S    
N4    Ni4   S    
C3    N3    A    
N15   N23   A    
C104  H84   S    
C68   H36   S    
N12   Ni3   S    
C37   H17   S    
N32   Ni3   S    
N2    N30   A    
N13   N21   A    
C35   C92   S    
C44   C52   A    
C40   C42   A    
C48   N8    A    
C24   H8    S    
O7    C105  S    
N22   Ni2   S    
C61   O1    S    
C56   H28   S    
N6    N26   A    
C29   H13   S    
C103  H82   S    
C9    C73   A    
C96   H65   S    
C55   C60   A    
C86   N30   A    
C4    N4    A    
C70   N14   A    
C41   C49   A    
C104  H86   S    
C11   C67   A    
C72   H40   S    
C107  H93   S    
N8    Ni8   S    
C46   N6    A    
C105  H88   S    
N25   Ni6   S    
C108  H95   S    
C30   C34   A    
C88   C92   A    
C64   O4    S    
C36   C40   A    
C9    C57   S    
C40   H20   S    
C86   C90   A    
C85   H49   S    
C22   H6    S    
N7    Ni7   S    
C85   C89   A    
C19   C23   D    
C34   C38   A    
C101  C102  S    
C8    C84   A    
C100  H74   S    
C53   C54   A    
C5    C45   A    
N1    Ni1   S    
C16   C80   A    
N17   Ni5   S    
C66   H34   S    
N15   Ni8   S    
C100  H76   S    
C81   N25   A    
N4    N32   A    
C35   C39   A    
C8    C48   A    
C38   C44   A    
N13   Ni6   S    
C67   H35   S    
C14   C78   A    
O5    C101  S    
C21   H5    S    
N24   Ni4   S    
N3    N31   A    
C98   H69   S    
N14   N22   A    
C85   N29   A    
C2    H2    S    
N5    N25   A    
C94   H61   S    
N19   Ni7   S    
C95   C96   S    
N1    N29   A    
C102  H79   S    
C72   N16   A    
C6    C50   S    
C84   N28   A    
C103  H83   S    
C104  H85   S    
N21   Ni1   S    
C71   N15   A    
C58   C62   A    
C42   C50   A    
C36   C91   S    
C73   N17   A    
C15   C24   S    
C73   H41   S    
C16   C23   S    
C54   H26   S    
C13   C77   A    
C63   O3    S    
C17   H53   S    
C96   H66   S    
C31   C35   A    
C37   C43   A    
N16   N24   A    
C38   H18   S    
N9    Ni2   S    
C80   N24   A    
N9    N17   A    
C66   N10   A    
N2    Ni2   S    
C86   H50   S    
N28   Ni7   S    
C33   C37   A    
N31   Ni4   S    
C77   O5    S    
O1    C93   S    
C77   N21   A    
C8    C52   S    
C105  H87   S    
N8    N28   A    
C108  H96   S    
C1    C89   A    
C19   H55   S    
C6    C46   A    
C101  H78   S    
C18   C22   D    
C31   H15   S    
C44   H24   S    
C11   C59   S    
C62   O2    S    
O8    C107  S    
C1    N1    A    
C18   H54   S    
C99   C100  S    
C48   H32   S    
N14   Ni5   S    
C67   N11   A    
C53   C58   A    
N3    Ni3   S    
C28   C52   A    
C100  H75   S    
C65   N9    A    
C15   C71   A    
C27   H11   S    
C59   C63   A    
C56   C59   A    
C60   C64   A    
C106  H91   S    
C45   H29   S    
C13   C69   A    
C107  H92   S    
C12   C76   A    
C34   C89   S    
C7    C51   S    
C28   C30   A    
C82   H46   S    
C11   C75   A    
C33   C90   S    
C26   H10   S    
C39   H19   S    
C10   C74   A    
C97   C98   S    
C25   H9    S    
N5    Ni5   S    
C43   C51   A    
C69   H37   S    
O4    C99   S    
C99   H72   S    
C41   H21   S    
C75   N19   A    
C98   H70   S    
C3    H3    S    
N11   N19   A    
C13   C22   S    
C76   N20   A    
C75   H43   S    
N12   N20   A    
C61   C62   A    
C20   C24   D    
N10   Ni1   S    
C9    C65   A    
C97   H67   S    
N30   Ni1   S    
C74   H42   S    
N18   Ni6   S    
C87   N31   A    
C63   C64   A    
C12   C60   S    
C74   N18   A    
C45   N5    A    
C84   H48   S    
C71   H39   S    
C1    H1    S    
C94   H59   S    
C32   H16   S    
C87   H51   S    
C81   H45   S    
C79   O7    S    
C80   O8    S    
C46   H30   S    
C95   H63   S    
C106  H90   S    
C68   N12   A    
C97   H68   S    
C101  H77   S    
C88   H52   S    
C30   H14   S    
C7    C47   A    
C4    C92   A    
C107  C108  S    
C17   C21   D    
