data_mof_unit_25799.cif
_audit_creation_date              2013-03-05T16:11:51-0500
_audit_creation_method            fapswitch 2.2
_symmetry_space_group_name_H-M    P1
_symmetry_Int_Tables_number       1
_space_group_crystal_system       triclinic
_cell_length_a                    10.737492
_cell_length_b                    9.492227
_cell_length_c                    23.490579
_cell_angle_alpha                 90.427059
_cell_angle_beta                  92.290974
_cell_angle_gamma                 90.101877
_cell_volume                      2392.23819752

loop_
_atom_site_label
_atom_site_type_symbol
_atom_site_description
_atom_site_fract_x
_atom_site_fract_y
_atom_site_fract_z
_atom_type_partial_charge
O1    O     O_R   0.317570 0.620260 0.500030 -0.561110
O2    O     O_R   0.317570 0.379740 0.500030 -0.559885
C1    C     C_R   0.259992 0.500089 0.500381 0.778849
O3    O     O_R   0.499840 0.620290 0.417900 -0.562677
O4    O     O_R   0.499840 0.379710 0.417900 -0.567536
C2    C     C_R   0.498640 0.499468 0.391002 0.847237
Cu1   Cu    Cu3+1 0.499860 0.642410 0.500030 1.015056
Cu2   Cu    Cu3+1 0.499860 0.357590 0.500030 1.008174
O5    O     O_R   0.682190 0.620260 0.500010 -0.568587
O6    O     O_R   0.682190 0.379740 0.500010 -0.573437
O7    O     O_R   0.499920 0.620230 0.582140 -0.542423
O8    O     O_R   0.499920 0.379770 0.582140 -0.542556
C3    C     C_R   0.740037 0.500182 0.500803 0.818307
C4    C     C_R   0.499622 0.500123 0.608838 0.909539
C5    C     C_R   0.552219 0.413795 0.880189 0.585708
N1    N     N_R   0.459765 0.484034 0.850346 -0.448054
C6    C     C_R   0.367161 0.553044 0.877604 0.648983
C7    C     C_R   0.365407 0.553330 0.937413 -0.101086
C8    C     C_R   0.461375 0.484802 0.968771 -0.008242
C9    C     C_R   0.555747 0.414057 0.939907 -0.016626
C10   C     C_R   0.271272 0.622338 0.966301 -0.162940
C11   C     C_R   0.271376 0.624917 0.025807 0.411909
C12   C     C_R   0.368680 0.557812 0.058228 -0.119865
C13   C     C_R   0.463916 0.487964 0.029002 -0.057252
C14   C     C_R   0.562785 0.421796 0.059756 -0.003399
C15   C     C_R   0.656123 0.351574 0.030471 -0.113706
C16   C     C_R   0.652270 0.347078 0.971207 -0.124998
C17   C     C_R   0.375565 0.556949 0.118560 0.625839
N2    N     N_R   0.473122 0.492709 0.147315 -0.466297
C18   C     C_R   0.566402 0.427580 0.119293 0.614406
O9    O     O_2   0.640999 0.344687 0.852044 -0.482674
O10   O     O_2   0.278244 0.622695 0.846971 -0.473959
H1    H     H_    0.196631 0.675270 0.942616 0.225366
O11   O     O_2   0.286023 0.618394 0.148671 -0.422740
O12   O     O_2   0.662660 0.368748 0.149173 -0.490352
H2    H     H_    0.732564 0.299642 0.053253 0.205474
H3    H     H_    0.725910 0.292157 0.950039 0.205673
C19   C     C_R   0.458766 0.369205 0.238995 0.437748
C20   C     C_R   0.467659 0.371390 0.298399 -0.223943
H4    H     H_    0.452891 0.274361 0.321061 0.220338
C21   C     C_R   0.493304 0.497673 0.328230 -0.118253
C22   C     C_R   0.510983 0.622099 0.297564 -0.164572
H5    H     H_    0.530855 0.720939 0.319414 0.183614
C23   C     C_R   0.504077 0.619835 0.238140 -0.127587
H6    H     H_    0.519151 0.716160 0.214957 0.186463
C24   C     C_R   0.478121 0.493763 0.208534 0.243004
C25   C     C_R   0.381848 0.417171 0.753295 0.471225
C26   C     C_R   0.394673 0.421492 0.694424 -0.309410
H7    H     H_    0.328999 0.363978 0.666717 0.177092
C27   C     C_R   0.491668 0.498643 0.671065 -0.198946
C28   C     C_R   0.578266 0.571184 0.707509 0.327369
C29   C     C_R   0.561973 0.570214 0.766321 -0.206964
H8    H     H_    0.628276 0.624230 0.794827 0.203357
C30   C     C_R   0.465595 0.492587 0.789490 0.194852
C31   C     C_3   0.072909 0.651384 0.512660 -0.373169
C32   C     C_3   0.076575 0.401932 0.548086 -0.406254
H9    H     H_    0.101099 0.724448 0.478619 0.226681
H10   H     H_    0.112534 0.293183 0.541957 0.191346
H11   H     H_    0.113490 0.692396 0.553909 0.178347
H12   H     H_    0.112614 0.439837 0.590592 0.178411
C33   C     C_3   0.930539 0.650390 0.514581 -0.326244
C34   C     C_3   0.932959 0.397722 0.546701 -0.288498
H13   H     H_    0.903124 0.684406 0.557696 0.249422
H14   H     H_    0.899629 0.425328 0.589488 0.237546
H15   H     H_    0.891963 0.727912 0.483254 0.178241
H16   H     H_    0.901607 0.288343 0.536585 0.210839
H17   H     H_    0.100373 0.517178 0.407748 0.193626
H18   H     H_    0.097596 0.339836 0.433613 0.223273
H19   H     H_    0.887147 0.527507 0.408658 0.175226
H20   H     H_    0.884853 0.346985 0.430744 0.180559
C35   C     C_3   0.066553 0.449314 0.442377 -0.313333
C36   C     C_3   0.122107 0.500584 0.500861 0.106651
C37   C     C_3   0.878355 0.500542 0.501090 0.081929
C38   C     C_3   0.922686 0.453319 0.441970 -0.415650
C39   C     C_3   0.625751 0.084827 0.517504 0.258407
C40   C     C_3   0.625821 0.917207 0.517184 0.259352
H21   H     H_    0.693150 0.118976 0.485558 0.056539
H22   H     H_    0.692968 0.882672 0.485051 0.048154
H23   H     H_    0.433325 0.122473 0.585860 0.213180
H24   H     H_    0.433383 0.879946 0.585785 0.211966
C41   C     C_3   0.411105 0.083659 0.541921 -0.218889
C42   C     C_3   0.411097 0.917355 0.541889 -0.222307
C43   C     C_3   0.464651 0.082797 0.443853 0.265310
C44   C     C_3   0.464757 0.915218 0.443817 0.276943
N3    N     N_3   0.500250 0.143650 0.501250 -0.224224
N4    N     N_3   0.500250 0.856350 0.501250 -0.226696
H25   H     H_    0.534672 0.116895 0.413089 0.065614
H26   H     H_    0.535189 0.880960 0.413136 0.059396
H27   H     H_    0.315085 0.121439 0.531665 0.193860
H28   H     H_    0.315079 0.878935 0.531516 0.193199
N5    N     N_R   0.688249 0.635246 0.686380 0.174489
O13   O     O_R   0.748766 0.572601 0.646599 -0.355686
O14   O     O_R   0.740569 0.741209 0.713548 -0.262557
Cl1   Cl    Cl    0.685972 0.159772 0.583977 -0.494250
Cl2   Cl    Cl    0.687019 0.846154 0.583034 -0.454429
Cl3   Cl    Cl    0.146655 0.716274 0.055891 -0.452825
Cl4   Cl    Cl    0.319572 0.155224 0.415994 -0.549520
Cl5   Cl    Cl    0.320298 0.840752 0.415309 -0.531061
Cl6   Cl    Cl    0.420354 0.209797 0.203741 -0.505736
Cl7   Cl    Cl    0.263182 0.312703 0.780741 -0.492681

loop_
_geom_bond_atom_site_label_1
_geom_bond_atom_site_label_2
_geom_bond_distance
_ccdc_geom_bond_type
C43   H25   1.112797 S    
C31   H11   1.113695 S    
C7    C10   1.400632 A    
C21   C22   1.404542 A    
C8    C9    1.409984 A    
C41   C42   1.578587 S    
Cu1   Cu2   2.703575 S    
C20   C21   1.405228 A    
C4    C27   1.467827 S    
C23   H6    1.082919 S    
Cu1   O7    1.941799 S    
C15   C16   1.391450 A    
C18   O12   1.350077 S    
C8    C13   1.414122 A    
C17   N2    1.370115 A    
C40   H22   1.112513 S    
C7    C8    1.405850 A    
C40   Cl2   1.793122 S    
C19   C20   1.394862 A    
O7    C4    1.305342 A    
Cu1   N4    2.030750 S    
C10   H1    1.083646 S    
C5    N1    1.369365 A    
Cu2   N3    2.031192 S    
C37   C38   1.549365 S    
C33   H13   1.111729 S    
O5    C3    1.298933 A    
C34   H14   1.110017 S    
C28   N5    1.435110 S    
C39   N3    1.496061 S    
C25   C26   1.396123 A    
C29   C30   1.399415 A    
N1    C6    1.369214 A    
C32   C36   1.550409 S    
C2    C21   1.473341 S    
H20   C38   1.113255 S    
C12   C13   1.417170 A    
C34   C37   1.552957 S    
C31   C36   1.553495 S    
C41   H27   1.110123 S    
C26   C27   1.403943 A    
C17   O11   1.347258 S    
C10   C11   1.397813 A    
C22   C23   1.394924 A    
O3    Cu1   1.939111 S    
C23   C24   1.401546 A    
C27   C28   1.413120 A    
C5    C9    1.401793 A    
C34   H16   1.111958 S    
C28   C29   1.399598 A    
C13   C14   1.411112 A    
O3    C2    1.305068 A    
C20   H4    1.081827 S    
H23   C41   1.110091 S    
C33   C37   1.553656 S    
C14   C15   1.404513 A    
C42   N4    1.493269 S    
C25   Cl7   1.758757 S    
C32   H12   1.113315 S    
O1    C1    1.296724 A    
C39   C40   1.591057 S    
N2    C18   1.366576 A    
N5    O14   1.301665 A    
C43   C44   1.590696 S    
Cu2   O8    1.938679 S    
C6    C7    1.405812 A    
H19   C38   1.113169 S    
C12   C17   1.416301 A    
C39   H21   1.112729 S    
C25   C30   1.404095 A    
C15   H2    1.083210 S    
C26   H7    1.084235 S    
C43   N3    1.498018 S    
C3    C37   1.484936 S    
C31   H9    1.113060 S    
C32   C34   1.541557 S    
O4    Cu2   1.942222 S    
C22   H5    1.082851 S    
C40   N4    1.498469 S    
N5    O13   1.300268 A    
C29   H8    1.083315 S    
C14   C18   1.398202 A    
Cu1   O5    1.969416 S    
O1    Cu1   1.968225 S    
C11   Cl3   1.765086 S    
O2    Cu2   1.968968 S    
C44   H26   1.112688 S    
C44   N4    1.499503 S    
C19   Cl6   1.759917 S    
O6    C3    1.299782 A    
C35   C38   1.544952 S    
C5    O9    1.349921 S    
C9    C16   1.402616 A    
C42   H28   1.110211 S    
N2    C24   1.436873 S    
C44   Cl5   1.805581 S    
O2    C1    1.300043 A    
O8    C4    1.299207 A    
C35   C36   1.550326 S    
O4    C2    1.304508 A    
C16   H3    1.083192 S    
H18   C35   1.112179 S    
C31   C33   1.531178 S    
H24   C42   1.110246 S    
C32   H10   1.113120 S    
C1    C36   1.481056 S    
H17   C35   1.113177 S    
N1    C30   1.436316 S    
C19   C24   1.405975 A    
C33   H15   1.113280 S    
Cu2   O6    1.968673 S    
C43   Cl4   1.804603 S    
C6    O10   1.349397 S    
C11   C12   1.422444 A    
C41   N3    1.494175 S    
C39   Cl1   1.806533 S    
