data_mof_unit_63631.cif
_audit_creation_date              2013-03-05T16:08:03-0500
_audit_creation_method            fapswitch 2.2
_symmetry_space_group_name_H-M    P1
_symmetry_Int_Tables_number       1
_space_group_crystal_system       triclinic
_cell_length_a                    16.017726
_cell_length_b                    14.432071
_cell_length_c                    13.145508
_cell_angle_alpha                 90.001952
_cell_angle_beta                  90.036559
_cell_angle_gamma                 89.992406
_cell_volume                      3038.83275139

loop_
_atom_site_label
_atom_site_type_symbol
_atom_site_description
_atom_site_fract_x
_atom_site_fract_y
_atom_site_fract_z
_atom_type_partial_charge
O1    O     O_R   0.499990 0.376050 0.578280 -0.556317
O2    O     O_R   0.500010 0.623950 0.421720 -0.556318
O3    O     O_R   0.500010 0.376050 0.421720 -0.554602
O4    O     O_R   0.499990 0.623950 0.578280 -0.554603
C1    C     C_1   0.500001 0.227124 0.499996 -0.169456
C2    C     C_1   0.499999 0.772875 0.500004 -0.169456
C3    C     C_R   0.500001 0.328705 0.499999 0.850973
C4    C     C_R   0.499999 0.671295 0.500001 0.850974
O5    O     O_R   0.379070 0.500000 0.578250 -0.572815
O6    O     O_R   0.620930 0.500000 0.421750 -0.572815
O7    O     O_R   0.379080 0.500000 0.421720 -0.557232
O8    O     O_R   0.620920 0.500000 0.578280 -0.557232
C5    C     C_R   0.337947 0.500040 0.499942 0.856436
C6    C     C_R   0.662053 0.499960 0.500057 0.856436
Cu1   Cu    Cu3+1 0.499990 0.500000 0.592680 1.014795
Cu2   Cu    Cu3+1 0.500010 0.500000 0.407320 1.014795
C7    C     C_1   0.500001 0.142311 0.499997 0.036764
C8    C     C_1   0.499999 0.857689 0.500003 0.036764
N1    N     N_1   0.500020 0.500000 0.268070 -0.122827
N2    N     N_1   0.499980 0.500000 0.731930 -0.122827
C9    C     C_1   0.500014 0.500000 0.173628 0.175787
C10   C     C_1   0.499986 0.500000 0.826372 0.175787
C11   C     C_1   0.500000 0.042406 0.499999 0.048378
C12   C     C_1   0.500000 0.957594 0.500001 0.048378
C13   C     C_3   0.972835 0.422014 0.543421 0.216320
C14   C     C_3   0.027165 0.577986 0.456579 0.216320
C15   C     C_3   0.027317 0.426989 0.447278 0.239562
C16   C     C_3   0.972683 0.573011 0.552722 0.239562
C17   C     C_1   0.500004 0.500000 0.050681 -0.036683
C18   C     C_1   0.499996 0.500000 0.949319 -0.036683
C19   C     C_1   0.249335 0.500127 0.499782 -0.121912
C20   C     C_1   0.750665 0.499873 0.500217 -0.121912
C21   C     C_3   0.028703 0.495146 0.595149 0.053326
C22   C     C_3   0.971297 0.504854 0.404850 0.053326
C23   C     C_3   0.084024 0.500166 0.498863 -0.176345
C24   C     C_3   0.915976 0.499834 0.501137 -0.176345
C25   C     C_1   0.174653 0.500186 0.499409 0.167634
C26   C     C_1   0.825347 0.499814 0.500591 0.167634
N3    N     N_R   0.054422 0.345840 0.390215 0.165394
O9    O     O_R   0.999222 0.289874 0.351655 -0.265824
O10   O     O_R   0.133441 0.328746 0.377646 -0.336975
N4    N     N_R   0.945578 0.654160 0.609785 0.165394
O11   O     O_R   0.000778 0.710125 0.648345 -0.265824
O12   O     O_R   0.866559 0.671254 0.622354 -0.336975
N5    N     N_R   0.945853 0.335655 0.590447 0.164182
O13   O     O_R   0.001122 0.275888 0.621223 -0.289659
O14   O     O_R   0.866868 0.317693 0.601768 -0.326441
N6    N     N_R   0.054147 0.664345 0.409553 0.164182
O15   O     O_R   0.998878 0.724112 0.378777 -0.289659
O16   O     O_R   0.133132 0.682307 0.398232 -0.326441
N7    N     N_2   0.938350 0.510183 0.302402 -0.385196
H1    H     H_    0.892132 0.559423 0.294810 0.277201
C27   C     C_3   0.999888 0.514473 0.222124 -0.510680
H2    H     H_    0.968041 0.509850 0.147269 0.218323
H3    H     H_    0.044431 0.455863 0.227994 0.254920
H4    H     H_    0.034629 0.580940 0.225573 0.242968
N8    N     N_2   0.061650 0.489817 0.697598 -0.385196
H5    H     H_    0.107868 0.440576 0.705190 0.277201
C28   C     C_3   0.000112 0.485527 0.777876 -0.510680
H6    H     H_    0.031959 0.490150 0.852731 0.218323
H7    H     H_    0.965371 0.419060 0.774427 0.242968
H8    H     H_    0.955569 0.544137 0.772006 0.254920

loop_
_geom_bond_atom_site_label_1
_geom_bond_atom_site_label_2
_geom_bond_distance
_ccdc_geom_bond_type
C2    C4    1.466016 S    
C11   C12   1.224006 T    
C17   C18   1.332448 T    
O1    Cu1   1.798836 S    
C20   C26   1.196243 T    
C13   C15   1.538013 S    
O2    Cu2   1.798836 S    
O7    Cu2   1.946373 S    
C14   C16   1.538013 S    
O8    Cu1   1.946371 S    
C14   N6    1.456996 S    
O4    C4    1.235231 A    
C15   C23   1.549076 S    
C27   H4    1.109961 S    
O4    Cu1   1.798849 S    
N6    O16   1.300112 A    
O5    Cu1   1.946008 S    
C28   H6    1.110090 S    
N3    O10   1.300140 A    
C6    C20   1.419365 S    
O6    Cu2   1.946008 S    
C27   H2    1.110090 S    
C24   C26   1.451685 S    
C5    C19   1.419365 S    
O7    C5    1.221598 A    
C22   N7    1.448177 S    
C7    C11   1.441837 S    
N4    O12   1.300140 A    
O1    C3    1.235223 A    
Cu2   N1    1.830512 S    
C8    C12   1.441837 S    
C16   N4    1.457043 S    
N6    O15   1.300293 A    
C21   C23   1.547252 S    
C22   C24   1.547252 S    
O8    C6    1.221599 A    
C16   C21   1.542142 S    
O3    C3    1.235232 A    
N8    H5    1.030920 S    
C27   H3    1.109169 S    
C15   C22   1.542142 S    
Cu1   N2    1.830512 S    
C2    C8    1.224037 T    
C28   H7    1.109959 S    
N8    C28   1.445829 S    
N4    O11   1.300261 A    
C13   C24   1.548846 S    
Cu1   Cu2   2.436653 S    
C13   N5    1.456996 S    
C14   C23   1.548846 S    
C1    C7    1.224037 T    
C16   C24   1.549076 S    
C13   C21   1.541625 S    
O6    C6    1.221744 A    
N5    O14   1.300112 A    
C15   N3    1.457043 S    
N3    O9    1.300261 A    
C1    C3    1.466016 S    
O5    C5    1.221745 A    
C28   H8    1.109170 S    
C21   N8    1.448177 S    
C10   C18   1.616202 S    
N1    C9    1.241489 T    
N5    O13   1.300293 A    
C9    C17   1.616202 S    
C14   C22   1.541625 S    
C19   C25   1.196243 T    
O2    C4    1.235222 A    
O3    Cu2   1.798849 S    
N7    H1    1.030921 S    
C23   C25   1.451685 S    
N2    C10   1.241489 T    
N7    C27   1.445829 S    
