data_mof_unit_14235.cif
_audit_creation_date              2012-12-11T17:41:20-0500
_audit_creation_method            fapswitch 2.2
_symmetry_space_group_name_H-M    P1
_symmetry_Int_Tables_number       1
_space_group_crystal_system       triclinic
_cell_length_a                    15.583806
_cell_length_b                    15.094132
_cell_length_c                    14.984787
_cell_angle_alpha                 109.665069
_cell_angle_beta                  121.388511
_cell_angle_gamma                 58.490425
_cell_volume                      2555.25303106

loop_
_atom_site_label
_atom_site_type_symbol
_atom_type_description
_atom_site_fract_x
_atom_site_fract_y
_atom_site_fract_z
_atom_type_partial_charge
C1    C     C_R   0.803457 0.937836 0.773629 -0.125228
C2    C     C_R   0.245965 0.006265 0.208680 -0.120192
C3    C     C_R   0.134985 0.273165 0.478482 0.106034
C4    C     C_R   0.786286 0.700724 0.431930 0.117896
C5    C     C_R   0.503413 0.323954 0.527689 -0.103579
C6    C     C_R   0.502654 0.705244 0.575192 -0.091269
C7    C     C_R   0.503545 0.031967 0.828056 0.031916
C8    C     C_R   0.500868 0.075803 0.206278 0.070601
C9    C     C_R   0.774725 0.726606 0.953382 -0.080383
C10   C     C_R   0.212947 0.394026 0.150330 -0.068760
C11   C     C_R   0.685244 0.821474 0.958750 -0.133517
C12   C     C_R   0.310984 0.316087 0.142031 -0.151984
C13   C     C_R   0.702600 0.911048 0.012912 0.103888
C14   C     C_R   0.306629 0.245016 0.052288 0.104362
C15   C     C_R   0.811354 0.903478 0.064596 -0.182710
C16   C     C_R   0.201769 0.253040 0.971252 -0.166374
C17   C     C_R   0.900725 0.808241 0.059523 -0.119144
C18   C     C_R   0.103872 0.330846 0.980012 -0.099049
C19   C     C_R   0.882390 0.720045 0.003534 -0.084478
C20   C     C_R   0.109445 0.401448 0.069360 -0.119471
C21   C     C_R   0.607561 0.042519 0.117200 -0.245952
C22   C     C_R   0.416026 0.144412 0.947330 -0.238994
C23   C     C_R   0.197378 0.273064 0.438351 -0.058118
C24   C     C_R   0.755157 0.710253 0.507597 -0.105255
C25   C     C_R   0.506681 0.103572 0.125780 0.049158
C26   C     C_R   0.509864 0.063048 0.933201 0.067054
C27   C     C_R   0.411121 0.163533 0.042769 0.023334
C28   C     C_R   0.607532 0.011160 0.020087 0.022458
C29   C     C_2   0.019071 0.346407 0.458392 -0.203014
C30   C     C_2   0.847171 0.602796 0.383549 -0.192220
C31   C     C_2   0.958708 0.417180 0.388763 -0.100559
C32   C     C_2   0.863705 0.511457 0.398364 -0.112900
C33   C     C_2   0.982832 0.954975 0.844276 -0.220358
C34   C     C_2   0.157326 0.880322 0.101184 -0.214801
C35   C     C_R   0.359386 0.833236 0.798936 -0.106492
C36   C     C_R   0.653568 0.253194 0.301756 -0.100806
C37   C     C_R   0.421923 0.747833 0.749776 -0.164867
C38   C     C_R   0.594623 0.329204 0.358757 -0.183466
C39   C     C_R   0.370253 0.695476 0.656444 -0.048119
C40   C     C_R   0.647475 0.341005 0.468614 -0.036321
C41   C     C_R   0.252708 0.731407 0.611648 0.516847
C42   C     C_R   0.763667 0.278010 0.521770 0.507058
C43   C     C_R   0.191773 0.815989 0.663372 -0.136197
C44   C     C_R   0.821218 0.201261 0.463244 -0.157816
C45   C     C_R   0.594746 0.229211 0.548176 -0.193845
C46   C     C_R   0.409198 0.784328 0.515480 -0.198849
C47   C     C_R   0.244611 0.866795 0.756194 -0.201924
C48   C     C_R   0.766413 0.188442 0.353957 -0.203862
C49   C     C_R   0.444225 0.506088 0.596135 -0.277374
C50   C     C_R   0.579896 0.521460 0.539307 -0.254370
C51   C     C_R   0.510511 0.419909 0.550368 0.079921
C52   C     C_R   0.509532 0.608973 0.579280 0.063827
C53   C     C_R   0.581269 0.426660 0.524069 0.032219
C54   C     C_R   0.441456 0.602991 0.609444 0.043135
C55   C     C_2   0.044117 0.885494 0.915168 -0.101892
C56   C     C_2   0.139562 0.895272 0.008906 -0.101911
C57   C     C_R   0.408467 0.044457 0.733361 -0.121974
C58   C     C_R   0.592206 0.020005 0.289692 -0.127271
C59   C     C_R   0.408845 0.306171 0.465126 0.525217
C60   C     C_R   0.592991 0.716025 0.595218 0.490688
C61   C     C_R   0.594258 0.977057 0.805411 -0.098836
C62   C     C_R   0.408314 0.089358 0.210652 -0.143999
C63   C     C_R   0.197796 0.184416 0.531142 -0.148249
C64   C     C_R   0.756185 0.800591 0.415978 -0.129560
C65   C     C_R   0.803266 0.029492 0.684141 -0.146729
C66   C     C_R   0.245300 0.914658 0.299344 -0.146992
C67   C     C_R   0.866425 0.976282 0.772642 0.145570
C68   C     C_R   0.216103 0.930161 0.199129 0.143974
H1    H     H_    0.832406 0.880792 0.822984 0.107900
H2    H     H_    0.233907 0.038679 0.146746 0.092816
H3    H     H_    0.951715 0.646485 0.999644 0.108083
H4    H     H_    0.033598 0.461739 0.075944 0.107104
H5    H     H_    0.760667 0.658099 0.910824 0.103215
H6    H     H_    0.217212 0.448724 0.219523 0.133318
H7    H     H_    0.602378 0.825640 0.920593 0.102860
H8    H     H_    0.390278 0.310348 0.205693 0.112284
H9    H     H_    0.826580 0.971290 0.108202 0.117206
H10   H     H_    0.195599 0.198453 0.901798 0.114768
H11   H     H_    0.984289 0.802616 0.099430 0.104327
H12   H     H_    0.023635 0.336352 0.917475 0.129443
H13   H     H_    0.683469 0.000839 0.181441 0.130275
H14   H     H_    0.344506 0.189362 0.882402 0.131287
H15   H     H_    0.821673 0.508149 0.435654 0.130115
H16   H     H_    0.989423 0.415609 0.337597 0.128150
H17   H     H_    0.890390 0.604952 0.346680 0.145559
H18   H     H_    0.987184 0.349447 0.509440 0.147058
H19   H     H_    0.196366 0.932560 0.794825 0.130309
H20   H     H_    0.811905 0.129291 0.309582 0.132702
H21   H     H_    0.167433 0.321210 0.379951 0.154594
H22   H     H_    0.767347 0.648622 0.540056 0.146474
H23   H     H_    0.400041 0.872997 0.870730 0.121935
H24   H     H_    0.611962 0.245478 0.216937 0.134897
H25   H     H_    0.511258 0.721482 0.784959 0.122714
H26   H     H_    0.508177 0.381433 0.317540 0.125767
H27   H     H_    0.392922 0.498082 0.618631 0.162265
H28   H     H_    0.629485 0.527975 0.513192 0.144954
H29   H     H_    0.681303 0.213847 0.593103 0.149846
H30   H     H_    0.323331 0.803206 0.491412 0.129966
H31   H     H_    0.322588 0.082987 0.721297 0.099719
H32   H     H_    0.677189 0.008287 0.321426 0.098350
H33   H     H_    0.167759 0.153333 0.558654 0.101899
H34   H     H_    0.768422 0.821302 0.362414 0.108596
H35   H     H_    0.833852 0.055157 0.651871 0.112206
H36   H     H_    0.233482 0.861002 0.319886 0.104342
H37   H     H_    0.179820 0.933760 0.004885 0.126019
H38   H     H_    0.013340 0.835264 0.914658 0.131919
N1    N     N_R   0.705410 0.966550 0.689210 -0.046088
N2    N     N_R   0.294590 0.033450 0.310790 -0.048717
N3    N     N_R   0.294590 0.188320 0.465660 -0.052655
N4    N     N_R   0.705410 0.811680 0.534340 -0.040646
N5    N     N_R   0.556610 0.157790 0.497330 -0.066756
N6    N     N_R   0.443390 0.842210 0.502670 -0.066532
N7    N     N_R   0.443390 0.997080 0.657540 -0.043020
N8    N     N_R   0.556610 0.002920 0.342460 -0.043871
N9    N     N_R   0.443390 0.203250 0.451380 -0.070395
N10   N     N_R   0.556610 0.796750 0.548620 -0.071291
N11   N     N_R   0.556610 0.951620 0.703500 -0.040747
N12   N     N_R   0.443390 0.048380 0.296500 -0.044534
N13   N     N_R   0.294590 0.131500 0.522480 -0.047784
N14   N     N_R   0.705410 0.868500 0.477520 -0.048710
N15   N     N_R   0.705410 0.023370 0.632390 -0.044423
N16   N     N_R   0.294590 0.976630 0.367610 -0.043128
Ni1   Ni    Ni4+2 0.629830 0.882720 0.617850 0.260979
Ni2   Ni    Ni4+2 0.370170 0.117280 0.382150 0.234109
Ni3   Ni    Ni4+2 0.629830 0.013030 0.487540 0.207629
Ni4   Ni    Ni4+2 0.370170 0.986970 0.512460 0.205818
H39   H     H_    0.116172 0.842132 0.104134 0.124331
H40   H     H_    0.014513 0.005283 0.846246 0.133027
O1    O     O_3   0.193935 0.688356 0.517682 -0.775015
H41   H     H_    0.241178 0.644356 0.479707 0.307842
O2    O     O_3   0.823748 0.287822 0.629349 -0.791699
H42   H     H_    0.773789 0.342938 0.661710 0.314313
H43   H     H_    0.102398 0.843569 0.630424 0.140421
H44   H     H_    0.909318 0.151750 0.502797 0.134591
O3    O     O_3   0.301556 0.376066 0.410699 -0.805806
H45   H     H_    0.300342 0.445509 0.424982 0.312402
O4    O     O_3   0.700312 0.670456 0.670570 -0.790067
H46   H     H_    0.703021 0.623231 0.705572 0.309029
H47   H     H_    0.680250 0.958859 0.857644 0.117656
H48   H     H_    0.321905 0.135935 0.163426 0.119367

loop_
_geom_bond_atom_site_label_1
_geom_bond_atom_site_label_2
_ccdc_geom_bond_type
C33   C55   D    
C66   C68   A    
C55   C56   S    
C34   C56   D    
N10   Ni1   S    
C46   N6    A    
C10   H6    S    
C11   H7    S    
C19   H3    S    
N1    Ni1   S    
C63   H33   S    
C35   C47   A    
O3    H45   S    
C39   C41   A    
C18   H12   S    
C64   H34   S    
N3    N13   A    
C7    C26   S    
C9    H5    S    
C22   H14   S    
C38   C40   A    
C2    C68   A    
C4    C24   A    
C39   C54   S    
C49   C54   A    
C57   H31   S    
C17   H11   S    
C18   C20   A    
C43   H43   S    
C59   O3    S    
C3    C29   S    
C7    C61   A    
C8    C58   A    
C3    C23   A    
C9    C19   A    
C10   C20   A    
C34   H39   S    
C49   C51   A    
N5    Ni3   S    
C50   C52   A    
C66   N16   A    
C13   C28   S    
C42   O2    S    
C65   N15   A    
C14   C27   S    
N6    Ni4   S    
C60   O4    S    
C36   H24   S    
C40   C42   A    
C46   H30   S    
C8    C25   S    
C41   C43   A    
C42   C44   A    
N2    Ni2   S    
C24   N4    A    
C52   C54   A    
C44   H44   S    
C23   N3    A    
C50   C53   A    
C5    C59   A    
C55   H38   S    
C61   N11   A    
C66   H36   S    
C58   H32   S    
N4    N14   A    
N8    Ni3   S    
N14   Ni3   S    
C61   H47   S    
C57   N7    A    
N7    Ni4   S    
C65   C67   A    
C5    C45   A    
C33   H40   S    
C1    H1    S    
C31   H16   S    
C51   C53   A    
C47   H19   S    
N16   Ni4   S    
N13   Ni4   S    
N15   Ni3   S    
C6    C60   A    
N4    Ni1   S    
C41   O1    S    
C63   N13   A    
C31   C32   S    
C38   H26   S    
C48   H20   S    
C23   H21   S    
C37   H25   S    
N12   Ni2   S    
C49   H27   S    
C30   H17   S    
C9    C11   A    
C29   H18   S    
N8    N12   A    
C10   C12   A    
C1    N1    A    
N7    N11   A    
C16   C18   A    
C21   C28   A    
C21   H13   S    
C22   C27   A    
C13   C15   A    
C14   C16   A    
C60   N10   A    
N1    N15   A    
C34   C68   S    
O2    H42   S    
N6    N10   A    
C33   C67   S    
O1    H41   S    
C15   C17   A    
C32   H15   S    
C21   C25   A    
N9    Ni2   S    
C6    C46   A    
C35   C37   A    
C20   H4    S    
N2    N16   A    
C24   H22   S    
C45   N5    A    
N3    Ni2   S    
C3    C63   A    
C25   C27   A    
O4    H46   S    
C4    C64   A    
C26   C28   A    
C64   N14   A    
C62   H48   S    
C12   H8    S    
C12   C14   A    
C29   C31   D    
C45   H29   S    
C36   C38   A    
C30   C32   D    
C11   C13   A    
C50   H28   S    
C15   H9    S    
C2    N2    A    
C1    C67   A    
C36   C48   A    
C16   H10   S    
N11   Ni1   S    
C56   H37   S    
C62   N12   A    
C17   C19   A    
C37   C39   A    
C59   N9    A    
C40   C53   S    
C22   C26   A    
C58   N8    A    
C65   H35   S    
C5    C51   S    
N5    N9    A    
C6    C52   S    
C2    H2    S    
C43   C47   A    
C7    C57   A    
C4    C30   S    
C44   C48   A    
C8    C62   A    
C35   H23   S    
