data_mof_unit_33599.cif
_audit_creation_date              2012-12-10T17:09:56-0500
_audit_creation_method            fapswitch 2.2
_symmetry_space_group_name_H-M    P1
_symmetry_Int_Tables_number       1
_space_group_crystal_system       triclinic
_cell_length_a                    10.797078
_cell_length_b                    13.088471
_cell_length_c                    11.735524
_cell_angle_alpha                 99.368501
_cell_angle_beta                  96.486592
_cell_angle_gamma                 92.424201
_cell_volume                      1622.71806285

loop_
_atom_site_label
_atom_site_type_symbol
_atom_type_description
_atom_site_fract_x
_atom_site_fract_y
_atom_site_fract_z
_atom_type_partial_charge
C1    C     C_R   0.502191 0.298761 0.478845 0.800993
C2    C     C_R   0.465772 0.120117 0.355498 -0.068750
C3    C     C_R   0.525141 0.136506 0.566505 -0.134510
C4    C     C_R   0.262004 0.497491 0.496799 0.837091
C5    C     C_R   0.501420 0.028837 0.558689 0.003175
C6    C     C_R   0.474363 0.966623 0.446494 0.080864
C7    C     C_R   0.471439 0.858888 0.436526 -0.156749
C8    C     C_R   0.506373 0.872179 0.644808 -0.164367
C9    C     C_R   0.506797 0.979264 0.658679 0.156945
C10   C     C_R   0.375346 0.404813 0.017954 -0.252134
C11   C     C_R   0.388038 0.413809 0.140547 0.126189
C12   C     C_R   0.065932 0.410167 0.533346 0.070384
C13   C     C_R   0.558433 0.538236 0.157803 0.285765
C14   C     C_R   0.556312 0.523182 0.033826 -0.058913
C15   C     C_R   0.458247 0.461291 0.963480 0.045596
C16   C     C_R   0.498793 0.700186 0.521184 0.871078
C17   C     C_R   0.446917 0.457049 0.840342 0.139005
C18   C     C_R   0.614726 0.583954 0.860401 0.160258
C19   C     C_R   0.645588 0.572279 0.977461 -0.157841
C20   C     C_R   0.738657 0.496740 0.503392 0.841283
C21   C     C_R   0.118241 0.314228 0.544943 -0.107023
C22   C     C_R   0.076659 0.256678 0.626725 -0.118382
C23   C     C_R   0.127006 0.489079 0.487427 -0.076239
C24   C     C_R   0.982382 0.294862 0.693105 0.181620
C25   C     C_R   0.916050 0.380205 0.663776 -0.123318
C26   C     C_R   0.948639 0.429024 0.570274 -0.054021
C27   C     C_2   0.444154 0.163246 0.246503 0.501026
C28   C     C_2   0.603123 0.193923 0.670857 0.510840
C29   C     C_2   0.669050 0.677578 0.824124 0.476252
C30   C     C_2   0.779438 0.586595 0.028631 0.440733
C31   C     C_2   0.197217 0.264948 0.457767 0.358498
C32   C     C_2   0.136183 0.159807 0.646574 0.421029
C33   C     C_2   0.844616 0.436527 0.751138 0.448606
C34   C     C_R   0.059425 0.567218 0.445742 0.123223
C35   C     C_R   0.932482 0.567028 0.452253 -0.161175
C36   C     C_R   0.875156 0.499127 0.513483 -0.112188
C37   C     C_R   0.493673 0.812226 0.534317 -0.095758
C38   C     C_R   0.499999 0.183734 0.466228 -0.198105
C39   C     C_R   0.454652 0.012144 0.345842 0.105573
Cu1   Cu    Cu3+1 0.509250 0.507730 0.615930 1.020418
Cu2   Cu    Cu3+1 0.490750 0.492270 0.384070 1.037463
H1    H     H_    0.374740 0.406126 0.785163 0.124503
H2    H     H_    0.812192 0.544852 0.097796 0.114569
H3    H     H_    0.253539 0.201739 0.475210 0.044750
H4    H     H_    0.236721 0.155866 0.650256 0.068461
H5    H     H_    0.860303 0.519914 0.774359 0.141352
H6    H     H_    0.300892 0.353824 0.966121 0.161043
H7    H     H_    0.324189 0.368661 0.180279 0.159482
H8    H     H_    0.879425 0.623841 0.414331 0.190552
H9    H     H_    0.454402 0.809660 0.352673 0.207593
H10   H     H_    0.514002 0.835573 0.721450 0.170397
H11   H     H_    0.350201 0.161671 0.201986 0.092782
H12   H     H_    0.702280 0.182616 0.682640 0.109338
H13   H     H_    0.659950 0.752714 0.876343 0.077385
I1    I     I_    0.141611 0.687889 0.372218 -0.258452
I2    I     I_    0.493473 0.048784 0.834409 -0.204440
I3    I     I_    0.667090 0.672432 0.255598 -0.310886
I4    I     I_    0.956936 0.232696 0.848466 -0.189293
I5    I     I_    0.407034 0.919411 0.175105 -0.253443
N1    N     N_R   0.523180 0.519350 0.790130 -0.204414
N2    N     N_R   0.476820 0.480650 0.209890 -0.193003
O1    O     O_R   0.506570 0.354460 0.582000 -0.553428
O2    O     O_2   0.556795 0.250817 0.745463 -0.477998
O3    O     O_2   0.731390 0.672940 0.743486 -0.524378
O4    O     O_2   0.854960 0.642288 0.993441 -0.518988
O5    O     O_2   0.193368 0.289589 0.361516 -0.547109
O6    O     O_2   0.073108 0.082644 0.655864 -0.467436
O7    O     O_2   0.767260 0.391752 0.796506 -0.501488
O8    O     O_R   0.490940 0.341410 0.386200 -0.555748
O9    O     O_R   0.327470 0.506530 0.597920 -0.612582
O10   O     O_R   0.311840 0.493480 0.402120 -0.546396
O11   O     O_R   0.509060 0.658590 0.613800 -0.582941
O12   O     O_R   0.493430 0.645540 0.418000 -0.568477
O13   O     O_R   0.688160 0.506520 0.597880 -0.550158
O14   O     O_R   0.672530 0.493470 0.402080 -0.562264
O15   O     O_2   0.532110 0.196745 0.203657 -0.483324

loop_
_geom_bond_atom_site_label_1
_geom_bond_atom_site_label_2
_ccdc_geom_bond_type
C31   O5    D    
Cu1   N1    S    
C32   H4    S    
C35   C36   A    
C16   O11   A    
Cu2   N2    S    
C1    O1    A    
C4    O9    A    
C21   C31   S    
C12   C23   A    
Cu1   O9    S    
C3    C28   S    
C34   C35   A    
C10   C15   A    
C5    C6    A    
C13   I3    S    
C29   H13   S    
Cu1   O1    S    
C18   C19   A    
C17   H1    S    
C2    C39   A    
C3    C38   A    
C8    C9    A    
C35   H8    S    
C2    C27   S    
C16   C37   S    
Cu2   O10   S    
C29   O3    D    
C34   I1    S    
C13   C14   A    
C33   H5    S    
C11   H7    S    
C31   H3    S    
C16   O12   A    
C24   C25   A    
C9    I2    S    
C4    C23   S    
C3    C5    A    
C25   C26   A    
C12   C21   A    
C1    O8    A    
C20   O14   A    
C12   C26   A    
C5    C9    A    
Cu2   O14   S    
C2    C38   A    
C23   C34   A    
C39   I5    S    
C7    C37   A    
C20   O13   A    
C18   C29   S    
C8    H10   S    
C22   C32   S    
C1    C38   S    
C32   O6    D    
C18   N1    A    
Cu1   Cu2   S    
C22   C24   A    
C30   H2    S    
C8    C37   A    
C27   O15   D    
C27   H11   S    
Cu2   O8    S    
C26   C36   A    
C15   C17   A    
Cu1   O11   S    
C14   C15   A    
C14   C19   A    
C7    H9    S    
C11   N2    A    
C28   H12   S    
C6    C7    A    
Cu1   O13   S    
C30   O4    D    
C10   C11   A    
C17   N1    A    
Cu2   O12   S    
C20   C36   S    
C28   O2    D    
C13   N2    A    
C24   I4    S    
C10   H6    S    
C6    C39   A    
C21   C22   A    
C19   C30   S    
C4    O10   A    
C33   O7    D    
C25   C33   S    
