data_mof_unit_40803.cif
_audit_creation_date              2013-03-05T16:22:14-0500
_audit_creation_method            fapswitch 2.2
_symmetry_space_group_name_H-M    P1
_symmetry_Int_Tables_number       1
_space_group_crystal_system       triclinic
_cell_length_a                    10.59795
_cell_length_b                    10.594319
_cell_length_c                    9.932941
_cell_angle_alpha                 90.062467
_cell_angle_beta                  90.850211
_cell_angle_gamma                 90.255586
_cell_volume                      1115.11675076

loop_
_atom_site_label
_atom_site_type_symbol
_atom_site_description
_atom_site_fract_x
_atom_site_fract_y
_atom_site_fract_z
_atom_type_partial_charge
O1    O     O_R   0.500010 0.313960 0.616610 -0.606245
O2    O     O_R   0.499990 0.686040 0.383390 -0.606312
O3    O     O_R   0.500060 0.313950 0.383350 -0.625989
O4    O     O_R   0.499940 0.686050 0.616650 -0.625961
C1    C     C_R   0.493081 0.258785 0.500078 0.973325
C2    C     C_R   0.506919 0.741215 0.499922 0.973406
O5    O     O_R   0.313930 0.499970 0.616610 -0.632598
O6    O     O_R   0.686070 0.500030 0.383390 -0.632604
O7    O     O_R   0.313980 0.499960 0.383350 -0.603711
O8    O     O_R   0.686020 0.500040 0.616650 -0.603725
C3    C     C_R   0.258378 0.494485 0.498979 0.916219
C4    C     C_R   0.741623 0.505525 0.501022 0.916316
Zn1   Zn    Zn3+2 0.499970 0.500010 0.655740 0.974457
Zn2   Zn    Zn3+2 0.500030 0.499990 0.344260 0.974428
C5    C     C_3   0.036661 0.393929 0.563870 0.048405
C6    C     C_3   0.963349 0.606091 0.436138 0.048408
C7    C     C_3   0.948945 0.398520 0.437868 -0.299951
C8    C     C_3   0.051063 0.601496 0.562140 -0.299977
H1    H     H_    0.906538 0.317056 0.383269 0.192101
H2    H     H_    0.093472 0.682960 0.616739 0.192119
C9    C     C_3   0.876619 0.508537 0.502646 -0.177081
C10   C     C_3   0.123385 0.491484 0.497360 -0.177104
C11   C     C_3   0.963621 0.503022 0.626306 0.383588
C12   C     C_3   0.036385 0.496996 0.373704 0.383611
C13   C     C_3   0.467603 0.038010 0.622564 0.254486
C14   C     C_3   0.532400 0.961989 0.377433 0.254497
C15   C     C_3   0.587377 0.964280 0.590050 0.225335
C16   C     C_3   0.412624 0.035720 0.409945 0.225287
C17   C     C_3   0.508931 0.875751 0.498987 -0.308206
C18   C     C_3   0.491071 0.124249 0.501011 -0.308195
C19   C     C_3   0.388064 0.949948 0.531696 -0.035479
C20   C     C_3   0.611937 0.050053 0.468302 -0.035421
C21   C     C_3   0.459835 0.394123 0.046748 0.087885
C22   C     C_3   0.540161 0.605875 0.953254 0.087863
C23   C     C_3   0.571339 0.412395 0.952707 0.138022
C24   C     C_3   0.428659 0.587603 0.047293 0.138042
N1    N     N_3   0.499910 0.500030 0.863290 -0.115307
N2    N     N_3   0.500090 0.499970 0.136710 -0.115315
C25   C     C_3   0.388275 0.481958 0.950829 0.141808
C26   C     C_3   0.611722 0.518040 0.049169 0.141732
C27   C     C_3   0.071079 0.268454 0.629034 -0.660839
H3    H     H_    0.988571 0.203677 0.624450 0.238752
H4    H     H_    0.150605 0.225049 0.575357 0.271412
H5    H     H_    0.097917 0.281409 0.735780 0.273821
C28   C     C_3   0.929027 0.731579 0.370952 -0.660902
H6    H     H_    0.011688 0.796172 0.375214 0.238741
H7    H     H_    0.901890 0.718584 0.264298 0.273818
H8    H     H_    0.849751 0.775219 0.424827 0.271453
N3    N     N_R   0.925073 0.516903 0.765336 0.202565
O9    O     O_R   0.949295 0.429076 0.853108 -0.411543
O10   O     O_R   0.886883 0.626617 0.806198 -0.366013
N4    N     N_R   0.074926 0.483123 0.234672 0.202546
O11   O     O_R   0.050632 0.570924 0.146892 -0.411511
O12   O     O_R   0.113167 0.373424 0.193818 -0.366059
N5    N     N_R   0.688139 0.928412 0.683421 0.222655
O13   O     O_R   0.722037 0.006284 0.778679 -0.333562
O14   O     O_R   0.766424 0.840787 0.648138 -0.403540
N6    N     N_R   0.311862 0.071602 0.316576 0.222609
O15   O     O_R   0.278091 0.993831 0.221176 -0.333517
O16   O     O_R   0.233483 0.159116 0.351932 -0.403485
N7    N     N_R   0.424495 0.077458 0.754474 0.217876
O17   O     O_R   0.322474 0.144268 0.763335 -0.432198
O18   O     O_R   0.472586 0.026983 0.862598 -0.344017
N8    N     N_R   0.575534 0.922541 0.245532 0.217871
O19   O     O_R   0.527446 0.972996 0.137400 -0.343971
O20   O     O_R   0.677617 0.855817 0.236697 -0.432156
C29   C     C_3   0.261155 0.892209 0.567074 -0.716022
H9    H     H_    0.190733 0.968018 0.581589 0.274868
H10   H     H_    0.228866 0.829340 0.483944 0.218649
H11   H     H_    0.270956 0.836666 0.661290 0.238563
C30   C     C_3   0.738846 0.107798 0.432930 -0.715981
H12   H     H_    0.809275 0.031993 0.418429 0.274832
H13   H     H_    0.729049 0.163334 0.338708 0.238572
H14   H     H_    0.771126 0.170676 0.516058 0.218680
C31   C     C_3   0.655590 0.309689 0.897245 -0.628571
H15   H     H_    0.722731 0.350835 0.825217 0.266019
H16   H     H_    0.708390 0.263705 0.980952 0.243749
H17   H     H_    0.597365 0.238146 0.844344 0.276958
C32   C     C_3   0.344408 0.690308 0.102756 -0.628691
H18   H     H_    0.291673 0.736350 0.019038 0.243763
H19   H     H_    0.277208 0.649143 0.174711 0.266005
H20   H     H_    0.402623 0.761810 0.155739 0.276944
C33   C     C_3   0.412273 0.269834 0.100927 -0.569949
H21   H     H_    0.371623 0.212052 0.017969 0.288745
H22   H     H_    0.491436 0.217995 0.149095 0.250758
H23   H     H_    0.338328 0.289398 0.175001 0.290980
C34   C     C_3   0.587728 0.730163 0.899084 -0.570012
H24   H     H_    0.508576 0.781996 0.850887 0.250773
H25   H     H_    0.628355 0.787951 0.982050 0.288724
H26   H     H_    0.661694 0.710590 0.825039 0.291017
C35   C     C_3   0.257168 0.460121 0.893515 -0.650481
H27   H     H_    0.191703 0.436149 0.974714 0.304559
H28   H     H_    0.222764 0.546518 0.842073 0.244232
H29   H     H_    0.261429 0.379880 0.823031 0.260511
C36   C     C_3   0.742820 0.539899 0.106484 -0.650454
H30   H     H_    0.777246 0.453508 0.157920 0.244255
H31   H     H_    0.808279 0.563904 0.025290 0.304574
H32   H     H_    0.738518 0.620131 0.176974 0.260467

loop_
_geom_bond_atom_site_label_1
_geom_bond_atom_site_label_2
_geom_bond_distance
_ccdc_geom_bond_type
C12   N4    1.453412 S    
C18   C20   1.544342 S    
N5    O13   1.300206 A    
C13   C19   1.537596 S    
C6    C9    1.536380 S    
C15   C17   1.535543 S    
C22   N1    1.490029 S    
C27   H3    1.109522 S    
C36   H30   1.109193 S    
O7    Zn2   2.015259 S    
C32   H20   1.103066 S    
C36   H32   1.102185 S    
C28   H6    1.109514 S    
C19   C29   1.521110 S    
C23   C31   1.518764 S    
C21   C25   1.528271 S    
O1    C1    1.297121 A    
C23   N1    1.487283 S    
C15   N5    1.455992 S    
C11   N3    1.453423 S    
C35   H28   1.109194 S    
N6    O16   1.299136 A    
C21   C33   1.510370 S    
O4    Zn1   2.009264 S    
N7    O18   1.298695 A    
C14   N8    1.455484 S    
C21   C23   1.528913 S    
C5    C10   1.536362 S    
N3    O10   1.299095 A    
C14   C17   1.537422 S    
Zn1   N1    2.061590 S    
C5    C11   1.529802 S    
C6    C12   1.529784 S    
C27   H4    1.105590 S    
O2    C2    1.297117 A    
C25   C35   1.510499 S    
N4    O12   1.299093 A    
C20   C30   1.521120 S    
C28   H7    1.101934 S    
N1    C25   1.490413 S    
C7    C12   1.537442 S    
C8    C11   1.537454 S    
C5    C27   1.522588 S    
O4    C2    1.301926 A    
C35   H27   1.100839 S    
C32   H19   1.105105 S    
C14   C20   1.537603 S    
N6    O15   1.300196 A    
C4    C9    1.430745 S    
C24   C25   1.528131 S    
C7    C9    1.543055 S    
C29   H9    1.109556 S    
C29   H10   1.109480 S    
N8    O20   1.298975 A    
O5    C3    1.301662 A    
C31   H15   1.105093 S    
Zn2   N2    2.061590 S    
C31   H16   1.109641 S    
C33   H21   1.106955 S    
O6    C4    1.301679 A    
C2    C17   1.425422 S    
C13   N7    1.455486 S    
O7    C3    1.299868 A    
O3    Zn2   2.009264 S    
O8    C4    1.299873 A    
C24   C32   1.518761 S    
C33   H22   1.107780 S    
C9    C11   1.526219 S    
C27   H5    1.101978 S    
C10   C12   1.526175 S    
O1    Zn1   2.008618 S    
C26   C36   1.510449 S    
C24   N2    1.487281 S    
N4    O11   1.299632 A    
C30   H13   1.109833 S    
C1    C18   1.425418 S    
C28   H8    1.105570 S    
C13   C18   1.537418 S    
C5    C7    1.548859 S    
O6    Zn2   2.003920 S    
C15   C20   1.538040 S    
C8    C10   1.543016 S    
C16   C19   1.538060 S    
O3    C1    1.301921 A    
O8    Zn1   2.015258 S    
C6    C28   1.522569 S    
C30   H14   1.109484 S    
C36   H31   1.100845 S    
C16   N6    1.456014 S    
C13   C15   1.531721 S    
C3    C10   1.430710 S    
C14   C16   1.531746 S    
C21   N2    1.490037 S    
C29   H11   1.109832 S    
N8    O19   1.298667 A    
N5    O14   1.299128 A    
C23   C26   1.528115 S    
C30   H12   1.109554 S    
C17   C19   1.544359 S    
C35   H29   1.102208 S    
N2    C26   1.490395 S    
C16   C18   1.535558 S    
C7    H1    1.108726 S    
C22   C24   1.528892 S    
C8    H2    1.108726 S    
C22   C34   1.510347 S    
N7    O17   1.298945 A    
O2    Zn2   2.008618 S    
C31   H17   1.103047 S    
C32   H18   1.109648 S    
O5    Zn1   2.003921 S    
C33   H23   1.103033 S    
C34   H24   1.107778 S    
C6    C8    1.548849 S    
N3    O9    1.299623 A    
C34   H26   1.103013 S    
C34   H25   1.106958 S    
C22   C26   1.528257 S    
