data_mof_unit_32434.cif
_audit_creation_date              2013-03-05T15:40:19-0500
_audit_creation_method            fapswitch 2.2
_symmetry_space_group_name_H-M    P1
_symmetry_Int_Tables_number       1
_space_group_crystal_system       triclinic
_cell_length_a                    10.882023
_cell_length_b                    10.895868
_cell_length_c                    17.620922
_cell_angle_alpha                 98.060426
_cell_angle_beta                  72.854005
_cell_angle_gamma                 98.241795
_cell_volume                      1965.1937428

loop_
_atom_site_label
_atom_site_type_symbol
_atom_site_description
_atom_site_fract_x
_atom_site_fract_y
_atom_site_fract_z
_atom_type_partial_charge
Zn1   Zn    Zn3+2 0.577310 0.422690 0.565550 1.068195
Zn2   Zn    Zn3+2 0.403760 0.371330 0.445150 1.050960
Zn3   Zn    Zn3+2 0.634990 0.589920 0.423760 1.125417
Zn4   Zn    Zn3+2 0.383940 0.616050 0.565540 1.091263
O1    O     O_3   0.500000 0.500000 0.500000 -0.549197
O2    O     O_R   0.209690 0.568800 0.556400 -0.596644
O3    O     O_R   0.763190 0.458310 0.535350 -0.577552
O4    O     O_R   0.414000 0.207090 0.472140 -0.634470
O5    O     O_R   0.613120 0.765800 0.436110 -0.607637
O6    O     O_R   0.470800 0.371790 0.332500 -0.623473
O7    O     O_R   0.380610 0.619380 0.674980 -0.597472
O8    O     O_R   0.632640 0.524780 0.317540 -0.596068
O9    O     O_R   0.515950 0.484050 0.674980 -0.626776
O10   O     O_R   0.535460 0.243030 0.556410 -0.613637
O11   O     O_R   0.437420 0.784080 0.535340 -0.570992
O12   O     O_R   0.223560 0.397520 0.472140 -0.649936
O13   O     O_R   0.803560 0.575360 0.436110 -0.591128
C1    C     C_R   0.158036 0.480189 0.518135 0.809922
C2    C     C_R   0.843460 0.519067 0.481781 0.875872
C3    C     C_R   0.468197 0.169152 0.518019 0.795881
C4    C     C_R   0.529564 0.832995 0.482197 0.857163
C5    C     C_R   0.564847 0.435980 0.287521 0.997487
C6    C     C_R   0.434791 0.562552 0.713446 0.829076
C7    C     C_R   0.390300 0.573564 0.802320 -0.205145
C8    C     C_R   0.594011 0.405923 0.200803 -0.313970
C9    C     C_R   0.228855 0.622589 0.929212 0.251121
C10   C     C_R   0.279061 0.631461 0.846563 0.216289
C11   C     C_R   0.451885 0.511584 0.842455 -0.135520
C12   C     C_R   0.399786 0.494538 0.923929 0.065268
C13   C     C_R   0.290318 0.556260 0.969373 -0.216322
C14   C     C_R   0.460343 0.423421 0.961887 -0.108043
C15   C     C_R   0.433358 0.441755 0.045646 -0.103301
C16   C     C_R   0.313967 0.486419 0.089876 0.478167
C17   C     C_R   0.246146 0.547946 0.053013 0.182203
C18   C     C_R   0.541789 0.330349 0.919875 0.205307
C19   C     C_R   0.616063 0.279500 0.958686 0.273493
C20   C     C_R   0.611813 0.322241 0.039202 -0.226653
C21   C     C_R   0.521801 0.407323 0.082383 -0.095290
C22   C     C_R   0.693433 0.280893 0.078308 0.472564
C23   C     C_R   0.677082 0.315343 0.160606 0.125167
C24   C     C_R   0.526816 0.459896 0.159960 0.459496
H1    H     H_    0.543124 0.477898 0.809130 0.211930
C25   C     C_2   0.981962 0.519654 0.471477 0.005590
C26   C     C_2   0.021038 0.476381 0.528145 0.267630
C27   C     C_2   0.542225 0.967018 0.476735 0.010454
C28   C     C_2   0.453169 0.037731 0.527126 0.276736
N1    N     N_R   0.137201 0.607490 0.103258 0.273905
O14   O     O_R   0.031340 0.540160 0.136777 -0.319661
O15   O     O_R   0.153517 0.724757 0.129199 -0.266059
O16   O     O_3   0.787060 0.203493 0.037185 -0.528975
C29   C     C_3   0.907331 0.276991 0.015104 -0.070878
H2    H     H_    0.939735 0.317943 0.068315 0.173167
H3    H     H_    0.903949 0.351876 0.978980 0.172329
H4    H     H_    0.980828 0.216353 0.977605 0.206993
N2    N     N_R   0.072660 0.561979 0.399462 0.194398
O17   O     O_R   0.042911 0.539777 0.332159 -0.259551
O18   O     O_R   0.176944 0.635455 0.402434 -0.360632
O19   O     O_3   0.932829 0.453045 0.601741 -0.585417
C30   C     C_3   0.969841 0.361250 0.637294 -0.129032
H5    H     H_    0.051657 0.399871 0.662304 0.138476
H6    H     H_    0.994592 0.277038 0.594495 0.140707
H7    H     H_    0.887025 0.331606 0.687674 0.244291
N3    N     N_R   0.651233 0.020728 0.417281 0.191536
O20   O     O_R   0.684606 0.964998 0.345088 -0.292091
O21   O     O_R   0.725834 0.116529 0.437169 -0.358222
O22   O     O_3   0.342425 0.982626 0.579692 -0.585055
C31   C     C_3   0.286136 0.066640 0.645237 -0.113098
H8    H     H_    0.239221 0.136425 0.626137 0.103779
H9    H     H_    0.358434 0.113261 0.676342 0.187548
H10   H     H_    0.209626 0.013316 0.688844 0.234301
O23   O     O_3   0.467180 0.565226 0.196932 -0.564534
C32   C     C_3   0.549736 0.671114 0.168566 -0.103770
H11   H     H_    0.565052 0.672696 0.103398 0.161057
H12   H     H_    0.644284 0.676323 0.181961 0.182693
H13   H     H_    0.503449 0.755653 0.199577 0.218648
N4    N     N_R   0.746679 0.258929 0.202211 0.220937
O24   O     O_R   0.762440 0.141001 0.185996 -0.265322
O25   O     O_R   0.800332 0.326056 0.253423 -0.353258
N5    N     N_R   0.687815 0.177885 0.917274 0.276260
O26   O     O_R   0.797712 0.198596 0.863536 -0.344558
O27   O     O_R   0.642903 0.064329 0.933247 -0.282474
N6    N     N_R   0.112974 0.679007 0.970450 0.256655
O28   O     O_R   0.114932 0.799724 0.978029 -0.261373
O29   O     O_R   0.002283 0.610139 0.985408 -0.353720
N7    N     N_R   0.214388 0.698754 0.808255 0.247385
O30   O     O_R   0.266434 0.807325 0.785150 -0.307928
O31   O     O_R   0.097730 0.658258 0.804416 -0.321116
O32   O     O_3   0.258391 0.466852 0.169343 -0.510291
C33   C     C_3   0.205202 0.341181 0.173639 -0.047750
H14   H     H_    0.281782 0.276784 0.152925 0.125639
H15   H     H_    0.132933 0.316291 0.138990 0.153178
H16   H     H_    0.154300 0.327704 0.236914 0.224267
N8    N     N_R   0.530280 0.269805 0.843854 0.213571
O33   O     O_R   0.416556 0.230805 0.834205 -0.375796
O34   O     O_R   0.632580 0.253972 0.784040 -0.344586

loop_
_geom_bond_atom_site_label_1
_geom_bond_atom_site_label_2
_geom_bond_distance
_ccdc_geom_bond_type
C29   H3    1.113717 S    
N2    O17   1.301232 A    
N3    O21   1.301408 A    
N8    O33   1.301549 A    
C18   C19   1.410138 A    
C7    C10   1.412673 A    
N1    O15   1.300808 A    
C27   C28   1.355023 D    
O6    C5    1.279337 A    
C9    C10   1.408560 A    
O4    C3    1.271621 A    
Zn1   O1    1.949476 S    
C19   C20   1.419204 A    
C16   O32   1.385446 S    
N4    O25   1.301270 A    
C28   O22   1.400402 S    
C8    C23   1.405399 A    
O8    C5    1.281448 A    
O9    C6    1.293088 A    
O7    C6    1.283923 A    
C10   N7    1.433659 S    
Zn3   O8    1.912620 S    
C14   C15   1.408217 A    
C26   O19   1.398692 S    
C5    C8    1.465081 S    
C6    C7    1.489362 S    
C15   C21   1.423044 A    
C33   H15   1.113688 S    
C12   C13   1.424345 A    
Zn2   O12   1.930130 S    
C24   O23   1.384654 S    
C18   N8    1.439682 S    
O22   C31   1.412171 S    
C30   H5    1.111708 S    
C9    N6    1.432750 S    
C32   H13   1.109214 S    
C2    C25   1.463155 S    
O16   C29   1.411486 S    
C4    C27   1.461030 S    
N7    O31   1.300970 A    
O2    C1    1.260186 A    
C30   H6    1.113673 S    
C13   C17   1.420791 A    
N3    O20   1.301190 A    
C31   H8    1.111951 S    
O10   C3    1.269515 A    
N4    O24   1.301315 A    
C21   C24   1.419557 A    
C32   H12   1.113638 S    
C8    C24   1.396699 A    
C22   C23   1.410642 A    
N5    O27   1.300828 A    
C32   H11   1.112924 S    
O19   C30   1.412470 S    
N7    O30   1.301142 A    
C27   N3    1.444749 S    
C29   H2    1.111349 S    
C33   H16   1.109050 S    
C25   C26   1.356487 D    
C20   C21   1.421579 A    
Zn3   O5    1.939001 S    
C1    C26   1.443826 S    
N1    O14   1.300822 A    
O11   C4    1.264718 A    
C16   C17   1.400956 A    
O12   C1    1.270954 A    
Zn4   O7    1.913386 S    
C25   N2    1.446462 S    
C9    C13   1.425310 A    
O3    C2    1.271049 A    
N2    O18   1.301659 A    
C14   C18   1.422062 A    
Zn4   O2    1.939966 S    
Zn1   O9    1.902191 S    
Zn2   O6    1.902724 S    
C11   C12   1.407719 A    
C30   H7    1.108970 S    
Zn1   O3    1.929639 S    
Zn2   O4    1.941169 S    
C7    C11   1.395876 A    
Zn4   O1    1.927703 S    
Zn3   O1    1.927556 S    
C19   N5    1.432942 S    
C17   N1    1.432079 S    
N6    O29   1.301003 A    
C29   H4    1.109177 S    
C15   C16   1.417776 A    
C31   H10   1.109279 S    
Zn4   O11   1.938804 S    
O23   C32   1.409910 S    
C12   C14   1.426071 A    
O5    C4    1.269268 A    
C11   H1    1.079630 S    
O13   C2    1.277963 A    
Zn3   O13   1.940613 S    
N5    O26   1.301007 A    
Zn2   O1    1.947393 S    
C23   N4    1.440860 S    
C20   C22   1.424554 A    
C22   O16   1.383487 S    
O32   C33   1.411284 S    
N8    O34   1.300840 A    
N6    O28   1.301043 A    
Zn1   O10   1.940254 S    
C31   H9    1.113112 S    
C33   H14   1.111976 S    
C3    C28   1.443877 S    
