data_mof_unit_53967.cif
_audit_creation_date              2013-03-05T15:46:22-0500
_audit_creation_method            fapswitch 2.2
_symmetry_space_group_name_H-M    P1
_symmetry_Int_Tables_number       1
_space_group_crystal_system       triclinic
_cell_length_a                    10.94115
_cell_length_b                    10.955657
_cell_length_c                    18.78269
_cell_angle_alpha                 90.395054
_cell_angle_beta                  90.27095
_cell_angle_gamma                 59.904339
_cell_volume                      1947.8682824

loop_
_atom_site_label
_atom_site_type_symbol
_atom_site_description
_atom_site_fract_x
_atom_site_fract_y
_atom_site_fract_z
_atom_type_partial_charge
O1    O     O_R   0.748800 0.497470 0.428000 -0.533404
O2    O     O_R   0.476420 0.724060 0.429470 -0.526611
C1    C     C_R   0.359172 0.773268 0.397929 0.536152
O3    O     O_R   0.264580 0.744340 0.416750 -0.503624
O4    O     O_R   0.309380 0.472470 0.418200 -0.493886
C2    C     C_R   0.382014 0.351252 0.389767 0.528845
O5    O     O_R   0.501710 0.260430 0.414300 -0.538289
O6    O     O_R   0.728090 0.305600 0.428960 -0.498609
C3    C     C_R   0.713578 0.415435 0.394828 0.556530
O7    O     O_R   0.738760 0.495930 0.588610 -0.526888
O8    O     O_R   0.467110 0.722640 0.578360 -0.509211
C4    C     C_R   0.344335 0.769139 0.604728 0.548606
O9    O     O_R   0.254530 0.742800 0.577360 -0.526234
O10   O     O_R   0.300070 0.471040 0.567100 -0.507760
C5    C     C_R   0.367966 0.350169 0.594971 0.547175
O11   O     O_R   0.491670 0.258900 0.574910 -0.519900
O12   O     O_R   0.718780 0.304180 0.577850 -0.495138
C6    C     C_R   0.757093 0.380185 0.612313 0.555758
Cr1   Cr    Cr6+3 0.601770 0.606860 0.505860 0.990706
Cr2   Cr    Cr6+3 0.291380 0.601660 0.495070 1.016504
Cr3   Cr    Cr6+3 0.606880 0.291510 0.499120 1.008450
O13   O     O_3   0.500010 0.500010 0.500020 -0.265433
C7    C     C_R   0.867963 0.891760 0.122997 -0.094752
C8    C     C_R   0.853417 0.004865 0.163406 -0.151785
C9    C     C_R   0.723316 0.102224 0.192329 -0.135046
C10   C     C_R   0.603295 0.091701 0.179266 0.004796
H1    H     H_    0.539773 0.124815 0.311883 0.146260
C11   C     C_R   0.351242 0.312059 0.168757 0.005618
C12   C     C_R   0.453882 0.209082 0.282226 -0.145586
C13   C     C_R   0.463858 0.202761 0.208934 -0.018328
C14   C     C_R   0.077620 0.700313 0.288236 -0.071863
C15   C     C_R   0.965103 0.818858 0.320238 -0.092371
C16   C     C_R   0.622657 0.968412 0.145783 -0.048141
C17   C     C_R   0.752420 0.871366 0.113830 0.205134
C18   C     C_R   0.239947 0.427122 0.204077 -0.159128
C19   C     C_R   0.236389 0.437666 0.277947 -0.038146
C20   C     C_R   0.887990 0.802614 0.374637 -0.110163
C21   C     C_R   0.923971 0.667723 0.397657 -0.100640
C22   C     C_R   0.036622 0.548738 0.366025 -0.048945
C23   C     C_R   0.115170 0.563850 0.311223 0.058600
C24   C     C_R   0.348029 0.328635 0.317356 -0.005534
H2    H     H_    0.938379 0.923578 0.303478 0.108739
H3    H     H_    0.970152 0.818763 0.100450 0.150898
H4    H     H_    0.943514 0.016032 0.173052 0.142924
H5    H     H_    0.717083 0.182555 0.227346 0.140133
H6    H     H_    0.136992 0.715005 0.246494 0.110501
H7    H     H_    0.536021 0.950812 0.144301 0.166986
H8    H     H_    0.152273 0.508272 0.173973 0.150828
H9    H     H_    0.801118 0.894624 0.399360 0.109810
H10   H     H_    0.865431 0.655632 0.440612 0.134254
H11   H     H_    0.064691 0.445073 0.385247 0.100450
C25   C     C_R   0.905587 0.326579 0.307792 -0.122277
H12   H     H_    0.981946 0.294007 0.350640 0.117524
C26   C     C_R   0.951158 0.308768 0.238002 -0.145637
H13   H     H_    0.062507 0.266302 0.227217 0.111871
C27   C     C_R   0.853900 0.344610 0.182409 0.036298
C28   C     C_R   0.709104 0.410790 0.196135 -0.139975
H14   H     H_    0.633384 0.442576 0.152961 0.129005
C29   C     C_R   0.662882 0.430230 0.266535 -0.177956
H15   H     H_    0.551039 0.477756 0.277708 0.113175
C30   C     C_R   0.761581 0.387404 0.322074 0.030321
C31   C     C_R   0.473772 0.769902 0.285281 -0.139975
H16   H     H_    0.576319 0.697248 0.307384 0.146733
C32   C     C_R   0.461771 0.790330 0.212114 -0.167794
H17   H     H_    0.553498 0.732071 0.178725 0.166610
C33   C     C_R   0.329714 0.881992 0.183212 0.019849
C34   C     C_R   0.213539 0.958734 0.228344 -0.142032
H18   H     H_    0.114417 0.038001 0.207142 0.120415
C35   C     C_R   0.222713 0.930832 0.300247 -0.148384
H19   H     H_    0.129141 0.983070 0.333258 0.118650
C36   C     C_R   0.351919 0.831490 0.328285 0.033484
C37   C     C_R   0.389715 0.196984 0.693353 -0.134551
H20   H     H_    0.461087 0.104235 0.662660 0.125365
C38   C     C_R   0.380641 0.184537 0.765569 -0.121656
H21   H     H_    0.442159 0.080595 0.788476 0.137543
C39   C     C_R   0.296988 0.304426 0.807781 0.033938
C40   C     C_R   0.212486 0.435506 0.776064 -0.136645
H22   H     H_    0.143623 0.527700 0.807698 0.127498
C41   C     C_R   0.223306 0.448591 0.703202 -0.127823
H23   H     H_    0.166030 0.552771 0.679947 0.132775
C42   C     C_R   0.318155 0.330112 0.662576 0.030180
C43   C     C_R   0.743295 0.475016 0.732096 -0.124263
H24   H     H_    0.702280 0.579190 0.710007 0.133896
C44   C     C_R   0.754190 0.461785 0.805026 -0.127001
H25   H     H_    0.726223 0.554984 0.836925 0.141935
C45   C     C_R   0.814677 0.328181 0.835810 0.028101
C46   C     C_R   0.848023 0.209604 0.792961 -0.127970
H26   H     H_    0.895370 0.105114 0.815752 0.132003
C47   C     C_R   0.831743 0.224000 0.719193 -0.133794
H27   H     H_    0.859645 0.132034 0.686363 0.119649
C48   C     C_R   0.784999 0.356300 0.688352 0.033833
C49   C     C_R   0.202446 0.828542 0.713752 -0.137196
H28   H     H_    0.117866 0.824722 0.685503 0.125346
C50   C     C_R   0.195341 0.838043 0.787009 -0.140626
H29   H     H_    0.102393 0.848637 0.813097 0.128130
C51   C     C_R   0.303477 0.841279 0.825452 0.035442
C52   C     C_R   0.421304 0.829838 0.789828 -0.144484
H30   H     H_    0.505667 0.833301 0.818498 0.126754
C53   C     C_R   0.427860 0.821474 0.716339 -0.149556
H31   H     H_    0.519155 0.813675 0.689781 0.115106
C54   C     C_R   0.319921 0.817845 0.677975 0.036679
O14   O     O_R   0.186690 0.923650 0.086970 -0.534836
O15   O     O_R   0.957250 0.194250 0.084630 -0.525224
C55   C     C_R   0.907468 0.318045 0.110809 0.543426
O16   O     O_R   0.934970 0.407490 0.085330 -0.440251
O17   O     O_R   0.203780 0.365190 0.067090 -0.491585
C56   C     C_R   0.327685 0.290453 0.094307 0.537684
O18   O     O_R   0.417600 0.174890 0.067840 -0.518840
O19   O     O_R   0.375320 0.946260 0.070860 -0.481208
C57   C     C_R   0.304339 0.905337 0.107259 0.556248
O20   O     O_R   0.160600 0.919630 0.926660 -0.520857
O21   O     O_R   0.933060 0.190520 0.936020 -0.508161
C58   C     C_R   0.879080 0.310248 0.905816 0.545644
O22   O     O_R   0.908880 0.403460 0.925020 -0.485774
O23   O     O_R   0.179600 0.361450 0.918490 -0.492259
C59   C     C_R   0.292024 0.283693 0.883405 0.544281
O24   O     O_R   0.391510 0.170860 0.907530 -0.523746
O25   O     O_R   0.351130 0.942530 0.922260 -0.495279
C60   C     C_R   0.276430 0.892771 0.898144 0.553643
Cr4   Cr    Cr6+3 0.062440 0.063090 0.008210 1.019007
Cr5   Cr    Cr6+3 0.062880 0.375170 0.998920 1.114684
Cr6   Cr    Cr6+3 0.374700 0.061720 0.992470 1.066127
O26   O     O_3   0.166667 0.166667 0.999870 -0.274091
N1    N     N_R   0.766839 0.755196 0.071148 0.058122
O27   O     O_R   0.884151 0.674416 0.037347 -0.341636
O28   O     O_R   0.659827 0.736612 0.060298 -0.362875

loop_
_geom_bond_atom_site_label_1
_geom_bond_atom_site_label_2
_geom_bond_distance
_ccdc_geom_bond_type
C22   H11   1.081364 S    
C46   H26   1.082587 S    
O11   Cr3   2.053940 S    
O23   Cr5   1.938620 S    
H1    C12   1.085253 S    
C51   C60   1.447685 S    
O15   Cr4   1.943784 S    
C52   H30   1.083307 S    
C5    C42   1.445068 S    
O4    Cr2   1.954898 S    
C40   H22   1.083347 S    
C14   C23   1.407693 A    
O8    Cr1   1.937762 S    
C12   C13   1.379971 A    
C38   C39   1.406544 A    
C45   C58   1.456038 S    
C3    C30   1.441101 S    
C6    C48   1.456845 S    
C44   C45   1.396901 A    
C25   C30   1.395370 A    
C21   C22   1.398680 A    
O19   Cr6   1.945505 S    
C28   C29   1.394264 A    
O17   C56   1.286686 A    
C11   C56   1.459846 S    
C5    O11   1.271230 A    
C7    H3    1.082619 S    
C59   O24   1.253738 A    
O20   C60   1.268773 A    
O25   Cr6   1.954849 S    
C35   C36   1.384979 A    
O25   C60   1.268962 A    
C55   O16   1.258327 A    
C31   C32   1.388893 A    
O22   Cr5   2.078897 S    
C18   C19   1.390584 A    
C11   C18   1.403085 A    
O6    C3    1.304695 A    
C14   H6    1.083515 S    
C7    C8    1.388251 A    
C47   C48   1.401198 A    
C37   C42   1.391594 A    
Cr4   O26   1.978516 S    
C33   C34   1.403470 A    
C29   H15   1.083741 S    
Cr3   O13   1.976443 S    
C19   C24   1.416726 A    
C50   H29   1.083202 S    
C18   H8    1.084814 S    
O21   C58   1.273335 A    
C52   C53   1.382540 A    
C25   C26   1.382062 A    
O12   C6    1.275993 A    
C39   C40   1.395347 A    
C40   C41   1.388795 A    
C26   C27   1.397463 A    
O1    Cr1   2.056059 S    
C29   C30   1.400879 A    
C38   H21   1.081772 S    
C34   H18   1.070079 S    
O10   Cr2   1.943268 S    
C19   C23   1.489266 S    
Cr1   O13   1.981446 S    
O1    C3    1.296855 A    
C8    C9    1.391295 A    
C27   C55   1.437982 S    
C37   C38   1.373199 A    
C22   C23   1.406732 A    
O21   Cr4   1.953814 S    
C45   C46   1.407656 A    
C9    C10   1.395087 A    
O5    Cr3   2.084764 S    
C2    C24   1.460279 S    
O12   Cr3   1.963527 S    
C43   C48   1.403039 A    
O20   Cr4   2.063825 S    
C34   C35   1.378798 A    
C32   C33   1.391294 A    
C1    C36   1.443612 S    
O24   Cr6   2.063605 S    
C20   C21   1.396288 A    
C20   H9    1.082593 S    
C10   C16   1.402651 A    
C53   H31   1.082784 S    
O7    Cr1   2.077600 S    
C56   O18   1.250872 A    
C7    C17   1.399423 A    
C51   C52   1.403688 A    
C31   H16   1.081335 S    
C49   C50   1.378785 A    
C16   C17   1.411276 A    
O16   Cr5   2.057835 S    
C15   C20   1.395973 A    
C44   H25   1.084029 S    
C50   C51   1.398594 A    
C49   C54   1.404759 A    
C53   C54   1.397917 A    
Cr2   O13   1.977210 S    
C10   C13   1.501826 S    
C43   C44   1.376765 A    
C46   C47   1.396015 A    
C16   H7    1.058045 S    
O14   C57   1.256902 A    
C27   C28   1.396890 A    
C1    O3    1.276902 A    
C9    H5    1.069587 S    
O14   Cr4   2.073546 S    
C25   H12   1.082414 S    
N1    O28   1.300021 A    
C58   O22   1.267668 A    
C26   H13   1.083654 S    
C17   N1    1.439848 S    
O9    Cr2   2.071282 S    
C12   C24   1.402223 A    
O2    Cr1   1.956787 S    
C14   C15   1.398685 A    
O18   Cr6   2.077202 S    
C37   H20   1.084000 S    
O6    Cr3   1.934889 S    
O8    C4    1.275057 A    
C2    O5    1.269346 A    
C21   H10   1.081758 S    
C41   C42   1.409594 A    
C32   H17   1.079766 S    
C11   C13   1.430200 A    
O2    C1    1.261309 A    
Cr6   O26   1.974395 S    
C4    C54   1.448873 S    
O19   C57   1.276714 A    
C28   H14   1.083251 S    
O4    C2    1.271299 A    
O7    C6    1.264225 A    
C8    H4    1.066997 S    
O17   Cr5   1.960153 S    
C49   H28   1.083305 S    
C39   C59   1.445586 S    
C31   C36   1.409139 A    
C35   H19   1.083338 S    
Cr5   O26   1.976543 S    
C41   H23   1.083124 S    
O3    Cr2   2.064316 S    
C4    O9    1.261147 A    
C33   C57   1.451816 S    
C43   H24   1.080373 S    
O15   C55   1.276857 A    
C15   H2    1.080985 S    
O10   C5    1.264426 A    
C47   H27   1.083200 S    
O23   C59   1.273585 A    
N1    O27   1.301720 A    
