data_mof_unit_49056.cif
_audit_creation_date              2012-10-26T18:34:38-0400
_audit_creation_method            fapswitch 2.2
_symmetry_space_group_name_H-M    P1
_symmetry_Int_Tables_number       1
_space_group_crystal_system       triclinic
_cell_length_a                    10.783806
_cell_length_b                    9.60967
_cell_length_c                    17.733123
_cell_angle_alpha                 90.347585
_cell_angle_beta                  92.094723
_cell_angle_gamma                 90.310625
_cell_volume                      1836.37149374

loop_
_atom_site_label
_atom_site_type_symbol
_atom_type_description
_atom_site_fract_x
_atom_site_fract_y
_atom_site_fract_z
_atom_type_partial_charge
C1    C     C_R   0.262417 0.499788 0.499223 0.541118
C2    C     C_R   0.498486 0.500105 0.644291 0.536494
C3    C     C_R   0.871508 0.501004 0.499008 0.016248
C4    C     C_R   0.128526 0.500044 0.498800 0.024223
C5    C     C_R   0.479426 0.623377 0.846474 0.122350
C6    C     C_R   0.514133 0.369229 0.154376 0.130361
C7    C     C_R   0.513602 0.623940 0.154003 0.131685
C8    C     C_R   0.498732 0.370087 0.845019 0.129186
C9    C     C_R   0.479436 0.623281 0.767684 -0.119337
C10   C     C_R   0.514721 0.372154 0.233163 -0.118856
C11   C     C_R   0.514184 0.623721 0.232805 -0.115284
C12   C     C_R   0.737592 0.500339 0.499920 0.543797
C13   C     C_R   0.503047 0.372783 0.766340 -0.136252
C14   C     C_R   0.494222 0.499090 0.727195 -0.054908
C15   C     C_R   0.510497 0.498544 0.272833 -0.067660
C16   C     C_R   0.408640 0.073337 0.461329 0.221106
C17   C     C_R   0.587700 0.926398 0.541573 0.223893
C18   C     C_R   0.588878 0.075870 0.540896 0.221186
C19   C     C_R   0.408658 0.924408 0.461297 0.219070
C20   C     C_R   0.489684 0.496055 0.885249 0.066468
C21   C     C_R   0.511297 0.495927 0.114516 0.043028
C22   C     C_3   0.584255 0.830849 0.892085 -0.326798
C23   C     C_1   0.497502 0.494924 0.966077 -0.009572
C24   C     C_3   0.630053 0.165361 0.119922 -0.304407
C25   C     C_3   0.401441 0.829101 0.113772 -0.320304
C26   C     C_3   0.385916 0.186549 0.904348 -0.314827
C27   C     C_3   0.306853 0.166434 0.346716 -0.271016
C28   C     C_3   0.670530 0.859107 0.666191 -0.298037
C29   C     C_3   0.805145 0.144169 0.570476 -0.285266
C30   C     C_3   0.306075 0.829032 0.346239 -0.266681
C31   C     C_1   0.504315 0.494926 0.033660 -0.037523
C32   C     C_R   0.060868 0.399006 0.457483 -0.147555
C33   C     C_R   0.939272 0.602006 0.540246 -0.143472
C34   C     C_R   0.932365 0.399754 0.457344 -0.154093
C35   C     C_R   0.067638 0.602402 0.539608 -0.140931
C36   C     C_R   0.503487 0.499626 0.355737 0.520981
Cu1   Cu    Cu3+1 0.500000 0.640660 0.500000 0.979545
Cu2   Cu    Cu3+1 0.500000 0.359340 0.500000 0.977740
H1    H     H_    0.467338 0.720776 0.738348 0.139610
H2    H     H_    0.569248 0.929120 0.923498 0.139009
H3    H     H_    0.617100 0.857189 0.835253 0.143836
H4    H     H_    0.656507 0.769851 0.923373 0.141740
H5    H     H_    0.471317 0.236685 0.063230 0.263514
H6    H     H_    0.619526 0.063037 0.090908 0.149683
H7    H     H_    0.660619 0.146600 0.179473 0.150514
H8    H     H_    0.701882 0.227066 0.091363 0.149093
H9    H     H_    0.558643 0.751759 0.064182 0.251144
H10   H     H_    0.413665 0.929994 0.084704 0.147518
H11   H     H_    0.371570 0.850864 0.171931 0.147475
H12   H     H_    0.517661 0.274743 0.263156 0.135584
H13   H     H_    0.328315 0.767884 0.082452 0.137593
H14   H     H_    0.557014 0.166488 0.856608 0.239678
H15   H     H_    0.399235 0.091329 0.938733 0.137507
H16   H     H_    0.328458 0.159737 0.852936 0.146063
H17   H     H_    0.336070 0.264002 0.938571 0.151184
H18   H     H_    0.221158 0.114962 0.446644 0.215931
H19   H     H_    0.391746 0.123744 0.321894 0.135053
H20   H     H_    0.300296 0.279278 0.334805 0.163044
H21   H     H_    0.224303 0.116343 0.318762 0.098812
H22   H     H_    0.766916 0.861882 0.565595 0.227348
H23   H     H_    0.518764 0.722119 0.262539 0.138783
H24   H     H_    0.744963 0.926989 0.691155 0.102363
H25   H     H_    0.684007 0.753293 0.689574 0.157698
H26   H     H_    0.579246 0.899641 0.683158 0.130185
H27   H     H_    0.658326 0.148078 0.644850 0.227362
H28   H     H_    0.853728 0.065523 0.605942 0.102521
H29   H     H_    0.850222 0.245649 0.583945 0.163617
H30   H     H_    0.816860 0.119694 0.509802 0.138390
H31   H     H_    0.221132 0.874341 0.447734 0.222927
H32   H     H_    0.223582 0.878927 0.319057 0.100809
H33   H     H_    0.298756 0.716145 0.333538 0.164756
H34   H     H_    0.512087 0.275436 0.735966 0.123557
H35   H     H_    0.391048 0.872034 0.321453 0.126952
H36   H     H_    0.106973 0.321832 0.424173 0.122763
H37   H     H_    0.893427 0.677895 0.574439 0.114534
H38   H     H_    0.880511 0.322222 0.424478 0.115581
H39   H     H_    0.119390 0.680463 0.572181 0.118476
H40   H     H_    0.424694 0.746956 0.935975 0.250446
N1    N     N_R   0.500000 0.852070 0.500000 -0.219394
N2    N     N_2   0.306625 0.850254 0.427113 -0.454163
N3    N     N_R   0.500000 0.147930 0.500000 -0.220766
N4    N     N_2   0.469464 0.752447 0.885682 -0.527360
N5    N     N_2   0.512857 0.237892 0.116460 -0.530769
N6    N     N_2   0.517270 0.753828 0.115659 -0.528254
N7    N     N_2   0.505325 0.240565 0.883506 -0.522637
N8    N     N_2   0.306263 0.144987 0.427447 -0.461670
N9    N     N_2   0.678524 0.852664 0.584892 -0.453819
N10   N     N_2   0.675125 0.151788 0.588076 -0.452653
O1    O     O_R   0.319640 0.618740 0.499990 -0.478942
O2    O     O_R   0.680360 0.381260 0.500010 -0.478272
O3    O     O_R   0.680360 0.618740 0.500010 -0.481183
O4    O     O_R   0.319640 0.381260 0.499990 -0.474731
O5    O     O_R   0.500000 0.618830 0.391250 -0.492706
O6    O     O_R   0.500000 0.381170 0.608750 -0.488271
O7    O     O_R   0.500000 0.618830 0.608750 -0.485992
O8    O     O_R   0.500000 0.381170 0.391250 -0.496780

loop_
_geom_bond_atom_site_label_1
_geom_bond_atom_site_label_2
_ccdc_geom_bond_type
C8    C13   A    
H5    N5    S    
C12   O3    A    
C17   N1    A    
C26   H17   S    
C30   H33   S    
C5    C20   A    
C7    C11   A    
C21   C31   S    
C8    C20   A    
C24   H7    S    
C22   N4    S    
C12   O2    A    
C2    O7    A    
C24   N5    S    
C10   C15   A    
C16   C19   A    
C32   H36   S    
C22   H3    S    
C3    C33   A    
Cu2   O4    S    
C9    H1    S    
C18   N3    A    
Cu1   O7    S    
C8    N7    S    
C36   O8    A    
C29   N10   S    
C3    C12   S    
C29   H29   S    
C11   C15   A    
C36   O5    A    
C33   H37   S    
C25   N6    S    
C30   N2    S    
C7    N6    S    
C4    C35   A    
C13   C14   A    
C16   N8    S    
C26   H16   S    
C30   H32   S    
H22   N9    S    
Cu1   O3    S    
C2    O6    A    
C27   H19   S    
C30   H35   S    
C3    C34   A    
C7    C21   A    
C6    C21   A    
C35   H39   S    
C18   N10   S    
C23   C31   T    
C27   N8    S    
C9    C14   A    
C25   H13   S    
C5    C9    A    
Cu1   Cu2   S    
C29   H30   S    
Cu1   N1    S    
H40   N4    S    
H18   N8    S    
C20   C23   S    
C22   H2    S    
Cu2   O6    S    
C28   N9    S    
C17   C18   A    
Cu1   O5    S    
H9    N6    S    
C19   N1    A    
C25   H10   S    
C4    C32   A    
C28   H26   S    
C1    O4    A    
Cu2   N3    S    
C24   H6    S    
C34   H38   S    
C10   H12   S    
C26   H15   S    
C15   C36   S    
H27   N10   S    
H14   N7    S    
C1    O1    A    
C6    N5    S    
C17   N9    S    
C11   H23   S    
C27   H20   S    
C6    C10   A    
C13   H34   S    
Cu2   O2    S    
Cu1   O1    S    
C1    C4    S    
C24   H8    S    
C27   H21   S    
C5    N4    S    
C22   H4    S    
C26   N7    S    
C16   N3    A    
C33   C35   A    
C19   N2    S    
C2    C14   S    
C25   H11   S    
C29   H28   S    
C28   H25   S    
Cu2   O8    S    
H31   N2    S    
C32   C34   A    
C28   H24   S    
