data_mof_unit_26943.cif
_audit_creation_date              2012-12-10T17:22:56-0500
_audit_creation_method            fapswitch 2.2
_symmetry_space_group_name_H-M    P1
_symmetry_Int_Tables_number       1
_space_group_crystal_system       triclinic
_cell_length_a                    10.127742
_cell_length_b                    10.514756
_cell_length_c                    10.821919
_cell_angle_alpha                 90.203426
_cell_angle_beta                  95.657991
_cell_angle_gamma                 80.987262
_cell_volume                      1132.5774935

loop_
_atom_site_label
_atom_site_type_symbol
_atom_type_description
_atom_site_fract_x
_atom_site_fract_y
_atom_site_fract_z
_atom_type_partial_charge
C1    C     C_R   0.443550 0.505787 0.267319 0.951625
C2    C     C_3   0.499925 0.123312 0.495941 -0.182316
C3    C     C_3   0.621368 0.939990 0.555141 -0.404369
C4    C     C_3   0.378828 0.059807 0.445963 -0.404290
C5    C     C_2   0.411328 0.499218 0.135167 -0.385261
C6    C     C_2   0.588554 0.471911 0.864649 -0.389841
C7    C     C_2   0.512343 0.464789 0.065830 -0.153341
C8    C     C_2   0.487604 0.467408 0.933840 -0.129868
C9    C     C_2   0.072941 0.489176 0.490118 -0.129203
C10   C     C_2   0.927065 0.510811 0.509892 -0.127439
C11   C     C_3   0.333919 0.889461 0.230991 -0.317538
C12   C     C_R   0.556416 0.488313 0.732624 0.948143
C13   C     C_3   0.666226 0.110663 0.769945 -0.318078
C14   C     C_R   0.704657 0.050952 0.354087 0.183337
C15   C     C_R   0.840529 0.998912 0.383636 -0.139594
C16   C     C_R   0.937394 0.025369 0.307965 -0.161234
C17   C     C_R   0.899400 0.103634 0.202365 -0.146318
C18   C     C_R   0.764370 0.155261 0.172015 -0.150263
C19   C     C_R   0.667186 0.129065 0.247437 -0.061346
C20   C     C_R   0.296806 0.947310 0.647540 0.181422
C21   C     C_R   0.160961 0.000667 0.620735 -0.141518
C22   C     C_R   0.065094 0.971427 0.696248 -0.161045
C23   C     C_R   0.499314 0.257810 0.496894 0.922102
C24   C     C_R   0.104053 0.888667 0.798622 -0.151378
C25   C     C_R   0.239143 0.835624 0.826192 -0.145035
C26   C     C_R   0.335366 0.865305 0.751405 -0.055357
C27   C     C_R   0.500798 0.742126 0.503473 0.927455
C28   C     C_3   0.599102 0.022689 0.434342 -0.062240
C29   C     C_3   0.401252 0.977091 0.566766 -0.062610
C30   C     C_3   0.479224 0.957694 0.386118 0.578078
C31   C     C_3   0.521052 0.042180 0.614924 0.578102
C32   C     C_3   0.500355 0.876571 0.505014 -0.184827
H1    H     H_    0.716987 0.886825 0.600750 0.154039
H2    H     H_    0.119491 0.618615 0.614084 0.169837
H3    H     H_    0.269340 0.984144 0.211094 0.157666
H4    H     H_    0.293067 0.835269 0.302662 0.168591
H5    H     H_    0.330784 0.832813 0.144383 0.192676
H6    H     H_    0.706683 0.165367 0.698402 0.168442
H7    H     H_    0.731124 0.016079 0.789455 0.157246
H8    H     H_    0.669346 0.166923 0.856762 0.195529
H9    H     H_    0.871923 0.937361 0.464394 0.123966
H10   H     H_    0.041890 0.984750 0.330919 0.124026
H11   H     H_    0.974510 0.123845 0.143835 0.127516
H12   H     H_    0.282927 0.112708 0.400629 0.154437
H13   H     H_    0.735049 0.215260 0.089840 0.123844
H14   H     H_    0.562852 0.169705 0.222933 0.123357
H15   H     H_    0.128901 0.065219 0.542195 0.124783
H16   H     H_    0.960574 0.013082 0.675501 0.123467
H17   H     H_    0.029623 0.865935 0.856718 0.128168
H18   H     H_    0.269342 0.771513 0.905477 0.128462
H19   H     H_    0.439751 0.823585 0.773727 0.118509
H20   H     H_    0.383900 0.473651 0.893710 0.192782
H21   H     H_    0.616177 0.441615 0.105874 0.186206
H22   H     H_    0.691993 0.465543 0.905261 0.143814
H23   H     H_    0.307785 0.523147 0.094670 0.142863
H24   H     H_    0.890603 0.581168 0.577218 0.159669
H25   H     H_    0.109407 0.418816 0.422796 0.160178
H26   H     H_    0.880503 0.381381 0.385915 0.168949
N1    N     N_2   0.157310 0.552180 0.551120 -0.194664
N2    N     N_2   0.842690 0.447820 0.448880 -0.194095
O1    O     O_R   0.568940 0.489500 0.307530 -0.603743
O2    O     O_3   0.532356 0.093851 0.735521 -0.600621
O3    O     O_R   0.431060 0.510500 0.692470 -0.608100
O4    O     O_R   0.348880 0.522990 0.340350 -0.624532
O5    O     O_R   0.651120 0.477010 0.659650 -0.624645
O6    O     O_R   0.610000 0.297210 0.483560 -0.633304
O7    O     O_R   0.390000 0.702790 0.516440 -0.631009
O8    O     O_R   0.389940 0.330700 0.516390 -0.600888
O9    O     O_R   0.610060 0.669300 0.483610 -0.597927
O10   O     O_3   0.467867 0.905979 0.265530 -0.599978
Zn1   Zn    Zn3+2 0.646930 0.477640 0.478080 0.945148
Zn2   Zn    Zn3+2 0.353070 0.522360 0.521920 0.943377

loop_
_geom_bond_atom_site_label_1
_geom_bond_atom_site_label_2
_ccdc_geom_bond_type
C23   O8    A    
C22   H16   S    
C17   H11   S    
O6    Zn1   S    
C11   H4    S    
C30   C32   S    
C10   H24   S    
C9    C10   S    
C8    H20   S    
C10   N2    D    
C4    C29   S    
C27   O9    A    
N1    Zn2   S    
O8    Zn2   S    
C20   C21   A    
O1    Zn1   S    
C28   C30   S    
C17   C18   A    
C27   C32   S    
C11   O10   S    
C5    C7    D    
C7    C8    S    
C29   C31   S    
C21   C22   A    
C24   C25   A    
C3    C31   S    
C31   O2    S    
C13   H6    S    
C3    C32   S    
C20   C26   A    
C6    H22   S    
C1    C5    S    
C2    C4    S    
C6    C8    D    
C23   O6    A    
C11   H3    S    
C3    C28   S    
C30   O10   S    
O7    Zn2   S    
C29   C32   S    
C9    H25   S    
C20   C29   S    
O4    Zn2   S    
C6    C12   S    
H2    N1    S    
C22   C24   A    
C19   H14   S    
C26   H19   S    
C13   H7    S    
C3    H1    S    
H26   N2    S    
C15   C16   A    
C18   H13   S    
C16   H10   S    
C24   H17   S    
C27   O7    A    
O3    Zn2   S    
C15   H9    S    
C11   H5    S    
C18   C19   A    
C12   O5    A    
C1    O4    A    
C2    C23   S    
O9    Zn1   S    
C12   O3    A    
C7    H21   S    
C25   H18   S    
C16   C17   A    
C13   H8    S    
C2    C28   S    
C4    H12   S    
N2    Zn1   S    
C14   C28   S    
C25   C26   A    
O5    Zn1   S    
C14   C19   A    
C5    H23   S    
C4    C30   S    
C13   O2    S    
C14   C15   A    
C21   H15   S    
C2    C31   S    
C9    N1    D    
C1    O1    A    
