data_mof_unit_22488.cif
_audit_creation_date              2012-12-10T19:14:27-0500
_audit_creation_method            fapswitch 2.2
_symmetry_space_group_name_H-M    P1
_symmetry_Int_Tables_number       1
_space_group_crystal_system       triclinic
_cell_length_a                    10.674407
_cell_length_b                    9.982237
_cell_length_c                    18.985829
_cell_angle_alpha                 90.58324
_cell_angle_beta                  86.827194
_cell_angle_gamma                 89.629944
_cell_volume                      2019.76915543

loop_
_atom_site_label
_atom_site_type_symbol
_atom_type_description
_atom_site_fract_x
_atom_site_fract_y
_atom_site_fract_z
_atom_type_partial_charge
C1    C     C_R   0.257941 0.499775 0.500429 0.814404
C2    C     C_3   0.069603 0.353492 0.504792 -0.334673
C3    C     C_3   0.918346 0.566308 0.567930 -0.405375
C4    C     C_3   0.928636 0.351828 0.497012 -0.366839
C5    C     C_3   0.077642 0.555557 0.429753 -0.454152
C6    C     C_3   0.120354 0.497939 0.499912 0.123666
C7    C     C_3   0.877636 0.497736 0.499585 0.111910
C8    C     C_R   0.471940 0.499839 0.369485 0.871160
C9    C     C_3   0.934708 0.574032 0.434803 -0.351435
C10   C     C_3   0.373713 0.083639 0.486157 -0.125909
C11   C     C_3   0.381812 0.925806 0.473014 -0.169718
C12   C     C_R   0.413917 0.486901 0.077849 0.319831
C13   C     C_3   0.597065 0.079074 0.446203 -0.196791
C14   C     C_3   0.608012 0.918778 0.453424 -0.193778
C15   C     C_3   0.538528 0.078950 0.566686 -0.265266
C16   C     C_3   0.518474 0.921444 0.569386 -0.275438
C17   C     C_R   0.741501 0.499365 0.499241 0.889197
C18   C     C_R   0.508586 0.500399 0.634687 0.913652
C19   C     C_R   0.395645 0.619605 0.262669 0.185771
C20   C     C_R   0.375423 0.380437 0.266853 0.174757
C21   C     C_R   0.400248 0.614553 0.189291 -0.155908
C22   C     C_R   0.375384 0.374708 0.193210 -0.155052
C23   C     C_R   0.465931 0.614038 0.824616 -0.089556
C24   C     C_R   0.399258 0.490732 0.154348 -0.016279
C25   C     C_R   0.415842 0.499665 0.299319 -0.115814
C26   C     C_R   0.443715 0.486780 0.935947 0.338902
C27   C     C_3   0.328248 0.737611 0.297450 -0.767217
C28   C     C_3   0.293074 0.282539 0.306846 -0.827170
C29   C     C_2   0.272720 0.127560 0.543999 0.935457
C30   C     C_2   0.261728 0.864501 0.500544 0.980983
C31   C     C_2   0.586828 0.127896 0.371655 1.004270
C32   C     C_2   0.638810 0.845826 0.384194 1.004042
C33   C     C_2   0.430598 0.738572 0.864947 0.990735
C34   C     C_R   0.500916 0.371199 0.821582 -0.226769
C35   C     C_2   0.512177 0.243356 0.860307 1.058318
C36   C     C_2   0.555338 0.746213 0.723973 0.972555
C37   C     C_2   0.615690 0.268994 0.714559 0.911551
C38   C     C_R   0.503872 0.619747 0.752650 -0.101317
C39   C     C_R   0.536647 0.377958 0.748914 -0.075035
C40   C     C_R   0.519173 0.499932 0.712848 -0.169029
C41   C     C_R   0.462695 0.489072 0.858776 -0.066491
C42   C     C_3   0.061826 0.576511 0.564922 -0.367425
H1    H     H_    0.913822 0.682589 0.441483 0.239873
H2    H     H_    0.695529 0.901479 0.481829 0.129648
H3    H     H_    0.394559 0.706562 0.159698 0.171503
H4    H     H_    0.352440 0.282031 0.166767 0.173893
H5    H     H_    0.085649 0.682811 0.561891 0.236793
H6    H     H_    0.115207 0.288361 0.462768 0.201092
H7    H     H_    0.098333 0.537457 0.614598 0.180063
H8    H     H_    0.087288 0.315609 0.557978 0.220119
H9    H     H_    0.885446 0.507178 0.614727 0.221719
H10   H     H_    0.884031 0.290950 0.540303 0.216061
H11   H     H_    0.876392 0.668478 0.574292 0.202022
H12   H     H_    0.894663 0.537930 0.385199 0.184753
H13   H     H_    0.907819 0.303066 0.445957 0.202306
H14   H     H_    0.124066 0.650506 0.415853 0.223163
H15   H     H_    0.104444 0.485045 0.385587 0.174996
H16   H     H_    0.321228 0.729775 0.355457 0.244872
H17   H     H_    0.371899 0.833249 0.280516 0.289959
H18   H     H_    0.230307 0.739598 0.280518 0.219846
H19   H     H_    0.300668 0.291670 0.364357 0.238507
H20   H     H_    0.193812 0.305106 0.296484 0.218673
H21   H     H_    0.312117 0.178568 0.288170 0.287478
H22   H     H_    0.225812 0.222704 0.636584 0.332926
H23   H     H_    0.340950 0.128456 0.437489 0.131766
H24   H     H_    0.076536 0.850299 0.484212 0.346620
H25   H     H_    0.667204 0.230812 0.290296 0.349207
H26   H     H_    0.766611 0.740221 0.323891 0.343616
H27   H     H_    0.297743 0.838451 0.924492 0.367353
H28   H     H_    0.363149 0.161333 0.815803 0.323758
H29   H     H_    0.712198 0.840600 0.686998 0.325890
H30   H     H_    0.660643 0.072783 0.707497 0.342351
H31   H     H_    0.381926 0.910847 0.415214 0.166883
H32   H     H_    0.639085 0.100610 0.574536 0.160506
H33   H     H_    0.601514 0.874139 0.591247 0.177502
H34   H     H_    0.492137 0.125900 0.613617 0.252094
H35   H     H_    0.438559 0.899175 0.606675 0.250324
H36   H     H_    0.690013 0.118993 0.460091 0.133329
N1    N     N_R   0.350393 0.398071 0.038918 -0.146015
N2    N     N_R   0.493512 0.573870 0.044895 -0.142173
N3    N     N_R   0.364697 0.398387 0.968823 -0.136717
N4    N     N_R   0.508832 0.573083 0.975217 -0.130797
N5    N     N_3   0.499750 0.138610 0.498490 -0.115247
N6    N     N_3   0.499750 0.861390 0.498490 -0.128988
O1    O     O_R   0.314910 0.616040 0.499990 -0.619959
O2    O     O_R   0.300504 0.206964 0.602095 -0.782099
O3    O     O_2   0.246567 0.836360 0.562957 -0.620665
O4    O     O_R   0.159552 0.867585 0.457550 -0.827112
O5    O     O_2   0.497359 0.097660 0.337847 -0.645591
O6    O     O_R   0.683833 0.204286 0.340357 -0.804065
O7    O     O_2   0.565590 0.845287 0.337340 -0.615964
O8    O     O_R   0.755904 0.784501 0.372175 -0.839979
O9    O     O_2   0.507409 0.827556 0.871625 -0.518379
O10   O     O_R   0.310472 0.750621 0.897685 -0.777021
O11   O     O_2   0.594663 0.229961 0.901772 -0.534565
O12   O     O_R   0.314910 0.383960 0.499990 -0.635322
O13   O     O_R   0.428439 0.138563 0.850654 -0.678956
O14   O     O_2   0.493401 0.849646 0.728277 -0.589858
O15   O     O_R   0.679579 0.747097 0.696402 -0.803579
O16   O     O_2   0.701718 0.297883 0.672256 -0.651146
O17   O     O_R   0.596547 0.134881 0.732237 -0.758056
O18   O     O_R   0.500100 0.616080 0.398110 -0.600628
O19   O     O_R   0.500100 0.383920 0.398110 -0.602322
O20   O     O_R   0.685320 0.616040 0.499960 -0.617223
O21   O     O_R   0.685320 0.383960 0.499960 -0.613074
O22   O     O_R   0.500130 0.616000 0.601840 -0.609298
O23   O     O_R   0.500130 0.384000 0.601840 -0.566085
O24   O     O_2   0.163414 0.095803 0.537929 -0.651205
Zn1   Zn    Zn3+2 0.500150 0.654960 0.499970 0.975050
Zn2   Zn    Zn3+2 0.500150 0.345040 0.499970 0.976847

loop_
_geom_bond_atom_site_label_1
_geom_bond_atom_site_label_2
_ccdc_geom_bond_type
C38   C40   A    
O21   Zn2   S    
C3    C42   S    
C16   H33   S    
C5    H14   S    
C14   N6    S    
C33   O10   S    
C32   O8    S    
C4    H10   S    
O19   Zn2   S    
C19   C21   A    
C17   O20   A    
C34   C35   S    
O1    Zn1   S    
C27   H18   S    
H24   O4    S    
O20   Zn1   S    
C32   O7    D    
H30   O17   S    
C15   C16   S    
C12   N1    A    
C10   N5    S    
C16   N6    S    
C23   C33   S    
C16   H35   S    
C18   C40   S    
C18   O23   A    
C2    H8    S    
C11   C30   S    
C31   O5    D    
C29   O24   D    
C19   C27   S    
H28   O13   S    
C28   H19   S    
C15   H34   S    
C26   N4    A    
C13   C14   S    
C8    C25   S    
C2    C6    S    
C34   C41   A    
C4    C7    S    
H22   O2    S    
C21   H3    S    
C1    O1    A    
C9    H1    S    
C1    C6    S    
N2    N4    A    
H27   O10   S    
C11   H31   S    
C39   C40   A    
N1    N3    A    
C3    H9    S    
C15   N5    S    
C20   C28   S    
C2    H6    S    
H29   O15   S    
H25   O6    S    
C34   C39   A    
C33   O9    D    
C2    C4    S    
C18   O22   A    
C5    C9    S    
C17   O21   A    
C31   O6    S    
N5    Zn2   S    
C29   O2    S    
C22   H4    S    
C20   C22   A    
C26   N3    A    
C4    H13   S    
C6    C42   S    
O23   Zn2   S    
C22   C24   A    
C30   O4    S    
C14   H2    S    
C10   H23   S    
C7    C9    S    
C12   C24   S    
C13   H36   S    
C13   C31   S    
C14   C32   S    
C27   H16   S    
C7    C17   S    
C35   O11   D    
C11   N6    S    
C23   C38   A    
C13   N5    S    
C3    C7    S    
N6    Zn1   S    
C23   C41   A    
C5    H15   S    
C36   C38   S    
C37   C39   S    
C27   H17   S    
C37   O17   S    
C3    H11   S    
C10   C29   S    
C5    C6    S    
O12   Zn2   S    
C1    O12   A    
C12   N2    A    
H26   O8    S    
C36   O15   S    
C42   H5    S    
C19   C25   A    
C8    O19   A    
C10   C11   S    
C42   H7    S    
C28   H21   S    
C15   H32   S    
C20   C25   A    
C21   C24   A    
O18   Zn1   S    
C36   O14   D    
C9    H12   S    
C30   O3    D    
C35   O13   S    
C8    O18   A    
C37   O16   D    
C26   C41   S    
O22   Zn1   S    
C28   H20   S    
