data_mof_unit_39902.cif
_audit_creation_date              2013-03-05T16:04:07-0500
_audit_creation_method            fapswitch 2.2
_symmetry_space_group_name_H-M    P1
_symmetry_Int_Tables_number       1
_space_group_crystal_system       triclinic
_cell_length_a                    10.828894
_cell_length_b                    9.572864
_cell_length_c                    10.769994
_cell_angle_alpha                 90.083877
_cell_angle_beta                  90.864067
_cell_angle_gamma                 89.965361
_cell_volume                      1116.32724959

loop_
_atom_site_label
_atom_site_type_symbol
_atom_site_description
_atom_site_fract_x
_atom_site_fract_y
_atom_site_fract_z
_atom_type_partial_charge
O1    O     O_R   0.319640 0.618740 0.499990 -0.587461
O2    O     O_R   0.680360 0.618740 0.500010 -0.605968
O3    O     O_R   0.319620 0.381170 0.499990 -0.553076
O4    O     O_R   0.680380 0.381170 0.500010 -0.548487
C1    C     C_R   0.262219 0.500020 0.500105 0.799112
C2    C     C_R   0.737760 0.499970 0.499835 0.772884
O5    O     O_R   0.500000 0.618810 0.319650 -0.592190
O6    O     O_R   0.500000 0.618810 0.680350 -0.594318
O7    O     O_R   0.499970 0.381240 0.319640 -0.530194
O8    O     O_R   0.500030 0.381240 0.680360 -0.531362
C3    C     C_R   0.503425 0.500019 0.262699 0.791687
C4    C     C_R   0.503800 0.500116 0.737348 0.793261
Cu1   Cu    Cu3+1 0.500000 0.640660 0.500000 0.950725
Cu2   Cu    Cu3+1 0.500000 0.359340 0.500000 1.055908
H1    H     H_    0.346951 0.373878 0.110116 0.200854
H2    H     H_    0.348148 0.372159 0.884313 0.157522
C5    C     C_R   0.705324 0.637157 0.132900 -0.158966
C6    C     C_R   0.705316 0.637449 0.873721 -0.153950
H3    H     H_    0.711126 0.636474 0.233169 0.144144
H4    H     H_    0.711147 0.636852 0.773609 0.137805
C7    C     C_R   0.799757 0.703915 0.069461 -0.108441
C8    C     C_R   0.799726 0.704105 0.940281 -0.102083
H5    H     H_    0.874021 0.754359 0.120806 0.146373
H6    H     H_    0.873953 0.754704 0.891387 0.147685
C9    C     C_R   0.607593 0.570802 0.936055 0.104265
C10   C     C_R   0.607569 0.570655 0.067363 0.092952
C11   C     C_R   0.511486 0.500119 0.129046 -0.107032
C12   C     C_R   0.511702 0.500190 0.871171 -0.077063
C13   C     C_R   0.420424 0.427655 0.062545 -0.122530
C14   C     C_R   0.420841 0.427136 0.934493 -0.149209
C15   C     C_R   0.063863 0.373315 0.499889 -0.144142
C16   C     C_R   0.936185 0.373297 0.498677 -0.131514
H7    H     H_    0.111731 0.274006 0.500574 0.188585
H8    H     H_    0.888422 0.273996 0.497101 0.188445
C17   C     C_R   0.871658 0.500123 0.499502 -0.027176
C18   C     C_R   0.128262 0.500177 0.500192 -0.030549
C19   C     C_R   0.935976 0.627100 0.500257 -0.197613
C20   C     C_R   0.063762 0.627127 0.500313 -0.176109
H9    H     H_    0.887880 0.726347 0.500741 0.163212
H10   H     H_    0.111725 0.726396 0.500617 0.165000
C21   C     C_R   0.440947 0.072505 0.407157 0.387218
C22   C     C_R   0.559393 0.072934 0.592657 0.376145
C23   C     C_R   0.441560 0.924526 0.407942 -0.085989
C24   C     C_R   0.558697 0.924876 0.592004 -0.089508
H11   H     H_    0.394161 0.867802 0.334494 0.174300
H12   H     H_    0.606398 0.868443 0.665328 0.165734
N1    N     N_R   0.500000 0.852070 0.500000 -0.211373
N2    N     N_R   0.500000 0.147940 0.500000 -0.280249
N3    N     N_R   0.379135 0.140488 0.306079 0.132351
O9    O     O_R   0.269773 0.192660 0.322345 -0.390499
O10   O     O_R   0.414435 0.114178 0.193499 -0.364857
N4    N     N_R   0.622885 0.141718 0.692423 0.141060
O11   O     O_R   0.585272 0.122925 0.805332 -0.346436
O12   O     O_R   0.734142 0.188050 0.675665 -0.378884

loop_
_geom_bond_atom_site_label_1
_geom_bond_atom_site_label_2
_geom_bond_distance
_ccdc_geom_bond_type
O5    C3    1.292028 A    
O7    Cu2   1.954057 S    
C15   H7    1.082504 S    
C16   H8    1.082460 S    
C13   C14   1.379194 A    
Cu1   Cu2   2.693038 S    
C11   C13   1.394507 A    
C21   C23   1.416634 A    
C16   C17   1.400528 A    
O6    Cu1   1.953903 S    
C15   C16   1.382475 A    
C24   N1    1.360571 A    
C3    C11   1.443396 S    
O6    C4    1.292592 A    
C18   C20   1.401337 A    
C19   H9    1.083243 S    
C22   N2    1.381021 A    
C7    C8    1.391273 A    
N4    O11   1.301027 A    
C9    C12   1.414602 A    
C20   H10   1.083208 S    
C23   H11   1.082070 S    
C10   C11   1.415228 A    
O2    C2    1.295466 A    
O3    Cu2   1.964335 S    
C22   C24   1.417371 A    
C4    C12   1.442526 S    
O1    C1    1.295815 A    
C5    C10   1.414582 A    
O8    C4    1.292525 A    
C12   C14   1.394536 A    
C17   C19   1.401253 A    
C19   C20   1.383774 A    
N4    O12   1.299327 A    
H1    C13   1.083555 S    
C6    H4    1.081015 S    
O7    C3    1.293508 A    
C7    H5    1.082586 S    
O4    Cu2   1.964586 S    
C6    C9    1.414593 A    
C8    H6    1.082573 S    
O1    Cu1   1.964464 S    
H2    C14   1.084223 S    
C1    C18   1.450626 S    
O3    C1    1.296137 A    
O5    Cu1   1.953295 S    
C2    C17   1.450028 S    
O4    C2    1.296284 A    
N3    O9    1.299198 A    
O8    Cu2   1.953446 S    
C21   N3    1.426948 S    
Cu1   N1    2.023799 S    
O2    Cu1   1.964212 S    
C15   C18   1.400760 A    
Cu2   N2    2.023703 S    
C5    H3    1.080805 S    
C9    C10   1.414196 A    
C6    C8    1.394126 A    
C23   N1    1.359099 A    
C21   N2    1.381812 A    
C5    C7    1.394300 A    
C24   H12   1.082082 S    
N3    O10   1.301020 A    
C22   N4    1.427225 S    
