data_mof_unit_32266.cif
_audit_creation_date              2012-12-11T17:41:34-0500
_audit_creation_method            fapswitch 2.2
_symmetry_space_group_name_H-M    P1
_symmetry_Int_Tables_number       1
_space_group_crystal_system       triclinic
_cell_length_a                    15.500748
_cell_length_b                    14.820249
_cell_length_c                    15.074243
_cell_angle_alpha                 109.635515
_cell_angle_beta                  121.397703
_cell_angle_gamma                 59.297704
_cell_volume                      2529.94262339

loop_
_atom_site_label
_atom_site_type_symbol
_atom_type_description
_atom_site_fract_x
_atom_site_fract_y
_atom_site_fract_z
_atom_type_partial_charge
C1    C     C_R   0.802864 0.937391 0.772891 -0.143603
C2    C     C_R   0.243130 0.007690 0.209156 -0.120278
C3    C     C_R   0.135967 0.272768 0.479140 0.153851
C4    C     C_R   0.787157 0.699636 0.433609 0.144262
C5    C     C_R   0.503578 0.325340 0.555480 0.052544
C6    C     C_R   0.498068 0.699021 0.567174 0.063697
C7    C     C_R   0.502598 0.034078 0.825871 0.050905
C8    C     C_R   0.504088 0.068306 0.205018 0.064396
C9    C     C_R   0.703929 0.695279 0.891144 -0.332490
C10   C     C_R   0.283801 0.399482 0.197675 -0.327845
C11   C     C_R   0.631558 0.797022 0.911540 -0.150671
C12   C     C_R   0.367420 0.314278 0.171636 -0.162674
C13   C     C_R   0.672807 0.872494 0.976886 0.136761
C14   C     C_R   0.339978 0.253074 0.075348 0.139671
C15   C     C_R   0.787535 0.844612 0.022870 -0.328215
C16   C     C_R   0.227510 0.279434 0.005043 -0.318728
C17   C     C_R   0.859583 0.743410 0.000370 -0.129030
C18   C     C_R   0.143972 0.364334 0.031348 -0.114341
C19   C     C_R   0.818544 0.668112 0.934297 0.637954
C20   C     C_R   0.171079 0.424984 0.127455 0.616959
C21   C     C_R   0.599948 0.997750 0.098464 -0.234300
C22   C     C_R   0.428535 0.144080 0.953933 -0.248049
C23   C     C_R   0.198004 0.273590 0.438899 -0.135688
C24   C     C_R   0.755963 0.709052 0.508892 -0.113978
C25   C     C_R   0.512889 0.081368 0.120167 0.044464
C26   C     C_R   0.509575 0.053196 0.928738 0.055940
C27   C     C_R   0.428505 0.158930 0.050258 0.044775
C28   C     C_R   0.596185 0.979050 0.001900 0.035718
C29   C     C_2   0.020734 0.344966 0.459804 -0.223747
C30   C     C_2   0.847826 0.601605 0.385317 -0.207248
C31   C     C_2   0.959293 0.415073 0.389590 -0.107004
C32   C     C_2   0.864436 0.508731 0.399404 -0.107007
C33   C     C_2   0.984611 0.951322 0.843130 -0.222239
C34   C     C_2   0.149929 0.882234 0.101470 -0.213848
C35   C     C_R   0.201465 0.888672 0.644839 -0.121402
C36   C     C_R   0.914241 0.269127 0.796558 -0.123865
C37   C     C_R   0.299542 0.798609 0.652490 -0.140262
C38   C     C_R   0.813237 0.336356 0.726281 -0.189155
C39   C     C_R   0.296572 0.711684 0.576876 0.112334
C40   C     C_R   0.712850 0.364527 0.728742 0.100678
C41   C     C_R   0.193576 0.716029 0.494379 -0.171582
C42   C     C_R   0.715662 0.322586 0.801689 -0.142187
C43   C     C_R   0.095656 0.806179 0.487301 -0.101697
C44   C     C_R   0.816937 0.255343 0.871762 -0.081726
C45   C     C_R   0.594504 0.230738 0.557168 -0.137487
C46   C     C_R   0.406959 0.781590 0.509653 -0.143773
C47   C     C_R   0.099601 0.892413 0.562396 -0.093743
C48   C     C_R   0.916189 0.229508 0.869866 -0.100577
C49   C     C_R   0.404619 0.518643 0.582612 -0.238971
C50   C     C_R   0.601362 0.534558 0.651328 -0.260454
C51   C     C_R   0.505588 0.428616 0.606218 0.059569
C52   C     C_R   0.499049 0.618500 0.604925 0.061491
C53   C     C_R   0.605666 0.441619 0.659531 0.040556
C54   C     C_R   0.400864 0.615922 0.586531 0.028297
C55   C     C_2   0.041567 0.883984 0.915421 -0.103064
C56   C     C_2   0.136093 0.894667 0.010301 -0.108703
C57   C     C_R   0.407948 0.045981 0.732239 -0.139618
C58   C     C_R   0.594040 0.016383 0.289239 -0.147117
C59   C     C_R   0.409416 0.306004 0.485192 -0.118932
C60   C     C_R   0.590719 0.710093 0.588184 -0.131844
C61   C     C_R   0.593761 0.979117 0.804734 -0.112867
C62   C     C_R   0.409911 0.086633 0.209878 -0.129393
C63   C     C_R   0.198464 0.183543 0.531420 -0.151912
C64   C     C_R   0.756655 0.800467 0.417046 -0.144257
C65   C     C_R   0.804665 0.028681 0.683842 -0.136130
C66   C     C_R   0.241918 0.915246 0.299426 -0.144376
C67   C     C_R   0.867474 0.974853 0.771778 0.155153
C68   C     C_R   0.211197 0.931458 0.199448 0.145188
H1    H     H_    0.829859 0.879891 0.821145 0.093269
H2    H     H_    0.230012 0.041603 0.147715 0.087960
H3    H     H_    0.104998 0.846153 0.103351 0.130430
H4    H     H_    0.020270 0.998732 0.844176 0.129855
H5    H     H_    0.670717 0.637704 0.842803 0.140988
H6    H     H_    0.306923 0.444991 0.272650 0.130455
H7    H     H_    0.947687 0.723251 0.034826 0.145007
H8    H     H_    0.057754 0.382287 0.977123 0.175313
H9    H     H_    0.663740 0.936740 0.151104 0.135218
H10   H     H_    0.364302 0.201609 0.897724 0.137102
H11   H     H_    0.823082 0.504195 0.436780 0.127330
H12   H     H_    0.989190 0.413960 0.338059 0.135330
H13   H     H_    0.890542 0.605186 0.348672 0.138349
H14   H     H_    0.989956 0.347629 0.511463 0.130822
H15   H     H_    0.023706 0.962087 0.556760 0.095743
H16   H     H_    0.994645 0.178753 0.925204 0.097951
H17   H     H_    0.204436 0.955474 0.702990 0.102020
H18   H     H_    0.991153 0.248346 0.794670 0.104267
H19   H     H_    0.377797 0.796617 0.717066 0.108813
H20   H     H_    0.813517 0.366302 0.670111 0.113701
H21   H     H_    0.189181 0.650207 0.435109 0.102647
H22   H     H_    0.639662 0.343299 0.805395 0.117140
H23   H     H_    0.016664 0.809209 0.423517 0.105227
H24   H     H_    0.818566 0.223896 0.928126 0.114281
H25   H     H_    0.681242 0.214656 0.598109 0.119291
H26   H     H_    0.320461 0.805096 0.486220 0.116408
H27   H     H_    0.322449 0.082719 0.720517 0.095759
H28   H     H_    0.679860 0.000875 0.316741 0.090152
H29   H     H_    0.323691 0.361934 0.461859 0.093985
H30   H     H_    0.675576 0.669432 0.642638 0.094564
H31   H     H_    0.679842 0.958509 0.859056 0.113298
H32   H     H_    0.324441 0.132881 0.160596 0.106804
H33   H     H_    0.168738 0.151329 0.558971 0.092902
H34   H     H_    0.769090 0.821588 0.363898 0.099171
H35   H     H_    0.836034 0.054338 0.651840 0.096241
H36   H     H_    0.228224 0.861812 0.319645 0.102516
H37   H     H_    0.180101 0.931031 0.007480 0.127045
H38   H     H_    0.007499 0.835595 0.915140 0.130500
N1    N     N_R   0.705410 0.966550 0.689210 -0.044687
N2    N     N_R   0.294590 0.033450 0.310790 -0.045309
N3    N     N_R   0.294590 0.188320 0.465660 -0.044003
N4    N     N_R   0.705410 0.811680 0.534340 -0.044959
N5    N     N_R   0.556610 0.157790 0.497330 -0.042429
N6    N     N_R   0.443390 0.842210 0.502670 -0.039645
N7    N     N_R   0.443390 0.997080 0.657540 -0.037976
N8    N     N_R   0.556610 0.002920 0.342460 -0.036897
N9    N     N_R   0.443390 0.203250 0.451380 -0.038984
N10   N     N_R   0.556610 0.796750 0.548620 -0.039988
N11   N     N_R   0.556610 0.951620 0.703500 -0.041768
N12   N     N_R   0.443390 0.048380 0.296500 -0.040373
N13   N     N_R   0.294590 0.131500 0.522480 -0.039724
N14   N     N_R   0.705410 0.868500 0.477520 -0.043175
N15   N     N_R   0.705410 0.023370 0.632390 -0.043942
N16   N     N_R   0.294590 0.976630 0.367610 -0.042672
Ni1   Ni    Ni4+2 0.629830 0.882720 0.617850 0.216201
Ni2   Ni    Ni4+2 0.370170 0.117280 0.382150 0.215513
Ni3   Ni    Ni4+2 0.629830 0.013030 0.487540 0.207548
Ni4   Ni    Ni4+2 0.370170 0.986970 0.512460 0.215977
O1    O     O_3   0.892045 0.569145 0.913954 -0.767186
H39   H     H_    0.850217 0.525521 0.866667 0.304117
O2    O     O_3   0.086143 0.507845 0.150544 -0.757226
H40   H     H_    0.118985 0.542413 0.220842 0.293046
H41   H     H_    0.543615 0.816756 0.877652 0.126493
H42   H     H_    0.453625 0.295352 0.226999 0.135685
H43   H     H_    0.820669 0.901761 0.074733 0.147900
H44   H     H_    0.204331 0.232585 0.930990 0.136967
H45   H     H_    0.169572 0.323822 0.382672 0.090960
H46   H     H_    0.768590 0.646782 0.542130 0.091965
H47   H     H_    0.328282 0.512929 0.558150 0.125819
H48   H     H_    0.678693 0.540114 0.680807 0.115808

loop_
_geom_bond_atom_site_label_1
_geom_bond_atom_site_label_2
_ccdc_geom_bond_type
C33   C55   D    
C41   H21   S    
C55   C56   S    
C34   C56   D    
N10   Ni1   S    
C49   H47   S    
C35   H17   S    
C66   C68   A    
N1    Ni1   S    
C20   O2    S    
C63   H33   S    
C45   H25   S    
C31   H12   S    
C39   C41   A    
C64   H34   S    
N3    N13   A    
C7    C26   S    
C9    H5    S    
C35   C37   A    
C46   N6    A    
C4    C24   A    
C39   C54   S    
C49   C54   A    
C6    C52   S    
C2    N2    A    
C3    C29   S    
C58   H28   S    
C7    C61   A    
C33   H4    S    
C8    C58   A    
C3    C23   A    
C9    C19   A    
C10   C20   A    
C49   C51   A    
N5    Ni3   S    
C50   C52   A    
C66   N16   A    
C13   C28   S    
C10   H6    S    
C65   N15   A    
C14   C27   S    
C30   C32   D    
C12   H42   S    
N6    Ni4   S    
C44   H24   S    
C24   H46   S    
C40   C42   A    
C16   H44   S    
C8    C25   S    
C41   C43   A    
C61   H31   S    
C42   C44   A    
N2    Ni2   S    
C52   C54   A    
C23   N3    A    
C50   C53   A    
C5    C59   A    
C55   H38   S    
C61   N11   A    
C6    C60   A    
C24   N4    A    
C22   H10   S    
N4    N14   A    
N8    Ni3   S    
N14   Ni3   S    
C17   C19   A    
C57   N7    A    
N7    Ni4   S    
C65   C67   A    
C5    C45   A    
C43   H23   S    
C48   H16   S    
C38   H20   S    
C51   C53   A    
N16   Ni4   S    
N15   Ni3   S    
C66   H36   S    
N4    Ni1   S    
C63   N13   A    
C31   C32   S    
C46   H26   S    
C50   H48   S    
C62   H32   S    
N12   Ni2   S    
C9    C11   A    
N8    N12   A    
C10   C12   A    
C1    N1    A    
N7    N11   A    
C59   N9    A    
C21   C28   A    
C12   C14   A    
C47   H15   S    
C22   C27   A    
C13   C15   A    
C57   H27   S    
C59   H29   S    
C14   C16   A    
C60   N10   A    
N1    N15   A    
C34   C68   S    
O1    H39   S    
N6    N10   A    
C33   C67   S    
C17   H7    S    
O2    H40   S    
C15   C17   A    
C21   C25   A    
C18   H8    S    
N9    Ni2   S    
C6    C46   A    
C26   C28   A    
C37   H19   S    
N2    N16   A    
C11   H41   S    
C45   N5    A    
N3    Ni2   S    
C15   H43   S    
C3    C63   A    
C25   C27   A    
C4    C64   A    
C2    C68   A    
C64   N14   A    
C23   H45   S    
C36   H18   S    
C30   H13   S    
C36   C38   A    
N11   Ni1   S    
C29   H14   S    
C29   C31   D    
C32   H11   S    
C38   C40   A    
C11   C13   A    
C19   O1    S    
C1    C67   A    
C36   C48   A    
C18   C20   A    
C1    H1    S    
C56   H37   S    
C62   N12   A    
N13   Ni4   S    
C37   C39   A    
C16   C18   A    
C40   C53   S    
C22   C26   A    
C60   H30   S    
C21   H9    S    
C58   N8    A    
C65   H35   S    
C5    C51   S    
N5    N9    A    
C42   H22   S    
C35   C47   A    
C2    H2    S    
C43   C47   A    
C34   H3    S    
C7    C57   A    
C4    C30   S    
C44   C48   A    
C8    C62   A    
