data_mof_unit_7054.cif
_audit_creation_date              2012-10-26T20:48:48-0400
_audit_creation_method            fapswitch 2.2
_symmetry_space_group_name_H-M    P1
_symmetry_Int_Tables_number       1
_space_group_crystal_system       triclinic
_cell_length_a                    15.11376
_cell_length_b                    14.066992
_cell_length_c                    9.074809
_cell_angle_alpha                 89.911535
_cell_angle_beta                  94.438271
_cell_angle_gamma                 90.198092
_cell_volume                      1923.55240005

loop_
_atom_site_label
_atom_site_type_symbol
_atom_type_description
_atom_site_fract_x
_atom_site_fract_y
_atom_site_fract_z
_atom_type_partial_charge
C1    C     C_R   0.330369 0.499989 0.500559 0.533863
C2    C     C_R   0.555235 0.893436 0.598866 -0.129874
C3    C     C_R   0.499656 0.500060 0.220922 0.549892
C4    C     C_R   0.500319 0.499995 0.779074 0.546434
C5    C     C_R   0.504938 0.054377 0.489940 -0.011556
C6    C     C_R   0.504433 0.945745 0.491738 -0.004931
C7    C     C_1   0.499877 0.500148 0.065604 -0.082765
C8    C     C_1   0.500071 0.500107 0.934390 -0.086761
C9    C     C_R   0.092283 0.570299 0.425476 -0.120699
C10   C     C_R   0.905294 0.415322 0.492242 -0.125002
C11   C     C_R   0.906375 0.586756 0.520674 -0.123651
C12   C     C_R   0.670014 0.500148 0.501113 0.535551
C13   C     C_R   0.099993 0.433131 0.588537 -0.125115
C14   C     C_R   0.184196 0.569963 0.424003 -0.133683
C15   C     C_R   0.813222 0.414930 0.490362 -0.136650
C16   C     C_R   0.814286 0.586451 0.518617 -0.136284
C17   C     C_R   0.191916 0.432831 0.586862 -0.142167
C18   C     C_R   0.234200 0.500542 0.503283 0.016227
C19   C     C_R   0.767011 0.500521 0.503244 0.014130
C20   C     C_R   0.049552 0.501639 0.507300 0.032023
C21   C     C_R   0.952444 0.501229 0.507207 0.033689
C22   C     C_3   0.630637 0.252615 0.698778 -0.211427
C23   C     C_R   0.563793 0.207598 0.585473 0.163275
C24   C     C_3   0.627040 0.211321 0.856050 -0.322981
C25   C     C_3   0.535921 0.220792 0.916872 -0.409655
C26   C     C_3   0.381973 0.746518 0.280468 -0.219474
C27   C     C_3   0.409529 0.758634 0.122346 -0.320139
C28   C     C_3   0.343254 0.710271 0.010597 -0.453655
C29   C     C_3   0.362795 0.252164 0.314716 -0.209682
C30   C     C_3   0.272827 0.247846 0.383954 -0.286222
C31   C     C_3   0.222034 0.154811 0.354358 -0.461167
C32   C     C_3   0.618968 0.747976 0.717438 -0.220010
C33   C     C_3   0.590664 0.763507 0.874168 -0.318226
C34   C     C_R   0.447990 0.791959 0.394112 0.147089
C35   C     C_3   0.655540 0.716492 0.989310 -0.452657
C36   C     C_R   0.437302 0.207221 0.412406 0.151215
C37   C     C_R   0.554414 0.792889 0.601485 0.143039
C38   C     C_R   0.569577 0.107647 0.572319 -0.125312
C39   C     C_R   0.451277 0.892298 0.389121 -0.130241
C40   C     C_R   0.439380 0.106921 0.409035 -0.130446
Cu1   Cu    Cu3+1 0.500000 0.596430 0.500000 0.896936
Cu2   Cu    Cu3+1 0.500000 0.403570 0.500000 0.896003
H1    H     H_    0.054509 0.623187 0.360862 0.102456
H2    H     H_    0.410798 0.927366 0.302659 0.084843
H3    H     H_    0.388483 0.071138 0.340512 0.095858
H4    H     H_    0.596761 0.929744 0.683036 0.086341
H5    H     H_    0.538027 0.189113 0.029264 0.133813
H6    H     H_    0.517561 0.296598 0.925422 0.179590
H7    H     H_    0.484366 0.182872 0.845379 0.159283
H8    H     H_    0.646735 0.135362 0.859006 0.143573
H9    H     H_    0.676440 0.249720 0.931396 0.145931
H10   H     H_    0.698222 0.240132 0.662622 0.085929
H11   H     H_    0.624326 0.329393 0.708667 0.208674
H12   H     H_    0.939585 0.348669 0.479773 0.100296
H13   H     H_    0.340010 0.632766 0.033218 0.154458
H14   H     H_    0.276193 0.741461 0.016296 0.147188
H15   H     H_    0.364113 0.720684 0.897046 0.158630
H16   H     H_    0.413890 0.835034 0.092747 0.145061
H17   H     H_    0.475755 0.726422 0.115175 0.187987
H18   H     H_    0.371514 0.671050 0.298514 0.208140
H19   H     H_    0.316052 0.780135 0.289072 0.098472
H20   H     H_    0.220270 0.135250 0.235649 0.145386
H21   H     H_    0.252195 0.096528 0.423425 0.148934
H22   H     H_    0.152695 0.163599 0.384449 0.137950
H23   H     H_    0.941672 0.653697 0.534209 0.101381
H24   H     H_    0.282578 0.258799 0.505223 0.179430
H25   H     H_    0.230566 0.306605 0.336514 0.154859
H26   H     H_    0.376742 0.326138 0.287781 0.189849
H27   H     H_    0.357427 0.216741 0.204829 0.094087
H28   H     H_    0.657026 0.638439 0.971434 0.157999
H29   H     H_    0.723345 0.746017 0.982341 0.147895
H30   H     H_    0.634680 0.730220 0.101928 0.154717
H31   H     H_    0.587388 0.840565 0.899581 0.145757
H32   H     H_    0.523771 0.732391 0.881540 0.185757
H33   H     H_    0.628032 0.671978 0.702187 0.210119
H34   H     H_    0.068391 0.380713 0.654712 0.102967
H35   H     H_    0.685706 0.780111 0.708418 0.096879
H36   H     H_    0.216048 0.622845 0.359045 0.100571
H37   H     H_    0.778355 0.347712 0.477650 0.121923
H38   H     H_    0.780304 0.653424 0.529702 0.118147
H39   H     H_    0.230051 0.380841 0.652665 0.110055
H40   H     H_    0.625408 0.072340 0.629413 0.086769
N1    N     N_R   0.500000 0.258690 0.500000 -0.217738
N2    N     N_R   0.500000 0.741310 0.500000 -0.214838
O1    O     O_R   0.371460 0.581430 0.500010 -0.517522
O2    O     O_R   0.628540 0.418570 0.499990 -0.520748
O3    O     O_R   0.628540 0.581430 0.499990 -0.522190
O4    O     O_R   0.371460 0.418570 0.500010 -0.518183
O5    O     O_R   0.500000 0.581420 0.288390 -0.507480
O6    O     O_R   0.500000 0.418580 0.711610 -0.512142
O7    O     O_R   0.500000 0.581420 0.711610 -0.506182
O8    O     O_R   0.500000 0.418580 0.288390 -0.509863

loop_
_geom_bond_atom_site_label_1
_geom_bond_atom_site_label_2
_ccdc_geom_bond_type
Cu1   O5    S    
Cu1   Cu2   S    
C14   C18   A    
C4    C8    S    
C32   H33   S    
C28   H14   S    
C7    C8    T    
C28   H15   S    
C2    H4    S    
C15   C19   A    
C29   C36   S    
C26   C27   S    
C23   N1    A    
C26   H19   S    
C3    C7    S    
C10   C15   A    
C30   C31   S    
C36   N1    A    
C32   H35   S    
C26   C34   S    
C15   H37   S    
C35   H28   S    
C37   N2    A    
Cu2   O2    S    
C25   H5    S    
C4    O6    A    
C30   H25   S    
C12   O3    A    
C4    O7    A    
C1    O4    A    
C35   H29   S    
C5    C38   A    
C38   H40   S    
C1    O1    A    
C31   H20   S    
C2    C6    A    
C34   N2    A    
C28   H13   S    
C22   H11   S    
C29   H27   S    
C10   C21   A    
C24   H8    S    
C40   H3    S    
Cu1   O3    S    
C9    H1    S    
C34   C39   A    
C31   H21   S    
C36   C40   A    
C24   C25   S    
Cu1   N2    S    
C11   C21   A    
C3    O8    A    
Cu2   O6    S    
C9    C14   A    
C29   C30   S    
Cu2   O8    S    
C29   H26   S    
C11   C16   A    
C9    C20   A    
C13   H34   S    
C17   C18   A    
C1    C18   S    
C32   C37   S    
C25   H6    S    
C30   H24   S    
C33   H31   S    
Cu1   O7    S    
C35   H30   S    
C22   C24   S    
Cu2   O4    S    
C22   H10   S    
C13   C20   A    
C22   C23   S    
C31   H22   S    
Cu2   N1    S    
C27   H16   S    
C39   H2    S    
C13   C17   A    
C23   C38   A    
Cu1   O1    S    
C12   O2    A    
C3    O5    A    
C32   C33   S    
C27   H17   S    
C2    C37   A    
C5    C6    S    
C24   H9    S    
C16   C19   A    
C12   C19   S    
C33   C35   S    
C17   H39   S    
C14   H36   S    
C10   H12   S    
C25   H7    S    
C33   H32   S    
C20   C21   S    
C5    C40   A    
C27   C28   S    
C6    C39   A    
C16   H38   S    
C26   H18   S    
C11   H23   S    
