data_mof_unit_40183.cif
_audit_creation_date              2012-12-11T14:17:46-0500
_audit_creation_method            fapswitch 2.2
_symmetry_space_group_name_H-M    P1
_symmetry_Int_Tables_number       1
_space_group_crystal_system       triclinic
_cell_length_a                    11.177192
_cell_length_b                    11.220208
_cell_length_c                    18.718816
_cell_angle_alpha                 90.554493
_cell_angle_beta                  89.240913
_cell_angle_gamma                 120.340056
_cell_volume                      2025.83244716

loop_
_atom_site_label
_atom_site_type_symbol
_atom_type_description
_atom_site_fract_x
_atom_site_fract_y
_atom_site_fract_z
_atom_type_partial_charge
C1    C     C_R   0.518552 0.456676 0.147359 0.607840
C2    C     C_R   0.542803 0.060248 0.147903 0.607279
C3    C     C_R   0.938644 0.481653 0.147318 0.610983
C4    C     C_R   0.456899 0.518302 0.852419 0.602719
C5    C     C_R   0.060422 0.542964 0.852225 0.605159
C6    C     C_R   0.481315 0.938144 0.852862 0.607267
C7    C     C_R   0.409307 0.024902 0.465106 -0.181469
C8    C     C_R   0.968771 0.384097 0.466058 -0.173815
C9    C     C_R   0.617922 0.582954 0.465878 -0.158978
C10   C     C_R   0.988517 0.391543 0.539586 -0.150426
C11   C     C_R   0.405346 0.002527 0.537875 -0.161228
C12   C     C_R   0.607406 0.592903 0.539191 -0.165169
C13   C     C_R   0.722057 0.965749 0.539164 0.115008
C14   C     C_R   0.926882 0.679507 0.578829 0.118473
C15   C     C_R   0.284553 0.252098 0.565495 0.132943
C16   C     C_R   0.051874 0.748020 0.442637 0.111283
C17   C     C_R   0.611730 0.864747 0.403660 0.120025
C18   C     C_R   0.245982 0.330715 0.429772 0.119422
C19   C     C_R   0.794357 0.935686 0.487243 -0.169122
C20   C     C_R   0.982178 0.812401 0.552892 -0.120050
C21   C     C_R   0.157834 0.180330 0.531904 -0.132602
C22   C     C_R   0.049392 0.848166 0.486299 -0.160826
C23   C     C_R   0.738731 0.881112 0.421312 -0.128025
C24   C     C_R   0.137581 0.218507 0.464741 -0.171548
C25   C     C_R   0.518918 0.456304 0.354010 0.562198
C26   C     C_R   0.540237 0.060586 0.352694 0.580173
C27   C     C_R   0.934562 0.480694 0.354950 0.573853
C28   C     C_R   0.457489 0.516709 0.646827 0.539551
C29   C     C_R   0.058214 0.540876 0.647637 0.577377
C30   C     C_R   0.480743 0.930947 0.643694 0.571503
C31   C     C_R   0.504661 0.993749 0.926026 0.044731
C32   C     C_R   0.999867 0.508994 0.924367 0.045777
C33   C     C_R   0.490281 0.493231 0.924527 0.045675
C34   C     C_R   0.995862 0.506008 0.074356 0.045727
C35   C     C_R   0.508492 0.999081 0.076102 0.047131
C36   C     C_R   0.494512 0.489334 0.074820 0.046322
C37   C     C_R   0.401392 0.003950 0.964808 -0.027126
C38   C     C_R   0.986060 0.393905 0.961086 -0.025792
C39   C     C_R   0.605894 0.595235 0.961718 -0.025163
C40   C     C_R   0.006462 0.403369 0.035863 -0.026488
C41   C     C_R   0.392558 0.984426 0.039744 -0.024876
C42   C     C_R   0.597129 0.604332 0.037013 -0.024133
C43   C     C_R   0.616167 0.999595 0.036785 -0.152699
C44   C     C_R   0.996403 0.613846 0.036757 -0.153066
C45   C     C_R   0.386128 0.381628 0.036580 -0.148175
C46   C     C_R   0.000762 0.616502 0.963433 -0.154254
C47   C     C_R   0.613011 0.994440 0.963440 -0.151132
C48   C     C_R   0.382633 0.384928 0.963190 -0.148525
C49   C     C_R   0.307419 0.034238 0.932121 0.388891
C50   C     C_R   0.956191 0.271053 0.925733 0.391404
C51   C     C_R   0.729412 0.689699 0.926597 0.389540
C52   C     C_R   0.036876 0.309962 0.068878 0.389973
C53   C     C_R   0.269738 0.955315 0.075737 0.390148
C54   C     C_R   0.691541 0.728157 0.071253 0.388858
C55   C     C_R   0.195494 0.022020 0.971042 -0.184023
C56   C     C_R   0.974289 0.173556 0.960876 -0.180310
C57   C     C_R   0.828492 0.804512 0.963006 -0.181484
C58   C     C_R   0.022962 0.197397 0.030711 -0.183969
C59   C     C_R   0.172136 0.974198 0.041144 -0.180833
C60   C     C_R   0.805085 0.827997 0.033650 -0.182825
C61   C     C_R   0.501941 0.974325 0.568355 0.015968
C62   C     C_R   0.985163 0.495976 0.578956 0.015164
C63   C     C_R   0.493446 0.488364 0.575543 -0.019863
C64   C     C_R   0.982092 0.498722 0.429198 0.007625
C65   C     C_R   0.487148 0.988153 0.420297 0.013499
C66   C     C_R   0.499921 0.492924 0.426466 0.010133
C67   C     C_R   0.592027 0.951951 0.521420 0.049432
C68   C     C_R   0.960171 0.589909 0.542406 0.026805
C69   C     C_R   0.388282 0.378132 0.535361 0.029862
C70   C     C_R   0.998096 0.612792 0.469740 0.046787
C71   C     C_R   0.553752 0.923800 0.449056 0.046900
C72   C     C_R   0.376595 0.403723 0.463265 0.055501
Cr1   Cr    Cr6+3 0.768550 0.541320 0.250660 1.076629
Cr2   Cr    Cr6+3 0.458680 0.227230 0.250660 1.081790
Cr3   Cr    Cr6+3 0.772770 0.231450 0.250660 1.074625
Cr4   Cr    Cr6+3 0.541320 0.768550 0.749340 1.082782
Cr5   Cr    Cr6+3 0.227230 0.458680 0.749340 1.079376
Cr6   Cr    Cr6+3 0.231450 0.772770 0.749340 1.108745
H1    H     H_    0.706994 0.009733 0.062438 0.177110
H2    H     H_    0.988718 0.695345 0.063787 0.178566
H3    H     H_    0.304582 0.291328 0.063147 0.178454
H4    H     H_    0.010536 0.706827 0.937590 0.177846
H5    H     H_    0.694864 0.986873 0.936235 0.178365
H6    H     H_    0.292061 0.303589 0.936978 0.178855
H7    H     H_    0.127994 0.049939 0.945850 0.128539
H8    H     H_    0.952386 0.081575 0.932412 0.135941
H9    H     H_    0.921646 0.874608 0.934987 0.136757
H10   H     H_    0.049843 0.129598 0.056392 0.128409
H11   H     H_    0.080718 0.953873 0.070353 0.137594
H12   H     H_    0.873999 0.922269 0.060518 0.132528
H13   H     H_    0.352867 0.071689 0.444083 0.146194
H14   H     H_    0.947344 0.291524 0.437700 0.144309
H15   H     H_    0.717829 0.644888 0.440447 0.150818
H16   H     H_    0.013250 0.321524 0.564944 0.144105
H17   H     H_    0.329389 0.010184 0.570273 0.191428
H18   H     H_    0.686990 0.681575 0.566979 0.143081
H19   H     H_    0.895941 0.957452 0.497306 0.102407
H20   H     H_    0.974711 0.886701 0.586323 0.098488
H21   H     H_    0.075171 0.095802 0.559403 0.101902
H22   H     H_    0.095491 0.952015 0.466558 0.115508
H23   H     H_    0.795956 0.854867 0.383402 0.119479
H24   H     H_    0.039254 0.158424 0.438553 0.108474
O1    O     O_R   0.910960 0.572410 0.171010 -0.503732
O2    O     O_R   0.427590 0.338550 0.171010 -0.508870
O3    O     O_R   0.661450 0.089040 0.171010 -0.513463
O4    O     O_R   0.572410 0.910960 0.828990 -0.505652
O5    O     O_R   0.338550 0.427590 0.828990 -0.513446
O6    O     O_R   0.089040 0.661450 0.828990 -0.502314
O7    O     O_R   0.639750 0.528530 0.175600 -0.449845
O8    O     O_R   0.471470 0.111220 0.175600 -0.449673
O9    O     O_R   0.888780 0.360250 0.175600 -0.446467
O10   O     O_R   0.528530 0.639750 0.824400 -0.450504
O11   O     O_R   0.111220 0.471470 0.824400 -0.450514
O12   O     O_R   0.360250 0.888780 0.824400 -0.446538
O13   O     O_R   0.909330 0.572400 0.331540 -0.483847
O14   O     O_R   0.427600 0.336930 0.331540 -0.491149
O15   O     O_R   0.663070 0.090670 0.331540 -0.509473
O16   O     O_R   0.572400 0.909330 0.668460 -0.476861
O17   O     O_R   0.336930 0.427600 0.668460 -0.518602
O18   O     O_R   0.090670 0.663070 0.668460 -0.469609
O19   O     O_R   0.638240 0.528520 0.324410 -0.521129
O20   O     O_R   0.471480 0.109720 0.324410 -0.509990
O21   O     O_R   0.890280 0.361760 0.324410 -0.512696
O22   O     O_R   0.528520 0.638240 0.675590 -0.506183
O23   O     O_R   0.109720 0.471480 0.675590 -0.501787
O24   O     O_R   0.361760 0.890280 0.675590 -0.497008
O25   O     O_3   0.666667 0.333333 0.250630 -0.308439
O26   O     O_3   0.333333 0.666667 0.749370 -0.312607
F1    F     F_    0.329676 0.087175 0.865120 -0.615403
F2    F     F_    0.902787 0.241696 0.858843 -0.609389
F3    F     F_    0.758809 0.667004 0.858908 -0.612240
F4    F     F_    0.090535 0.332776 0.135629 -0.614662
F5    F     F_    0.240845 0.902683 0.142932 -0.610255
F6    F     F_    0.669046 0.757782 0.138900 -0.624496
N1    N     N_3   0.792011 0.027812 0.604407 -0.564152
H25   H     H_    0.887047 0.113760 0.592452 0.208248
H26   H     H_    0.812653 0.957612 0.629841 0.229792
N2    N     N_3   0.854231 0.640753 0.646557 -0.559059
H27   H     H_    0.759445 0.549837 0.639267 0.226417
H28   H     H_    0.832970 0.716528 0.664908 0.236965
N3    N     N_3   0.307127 0.191316 0.627561 -0.631089
H29   H     H_    0.408814 0.249918 0.645851 0.252333
H30   H     H_    0.237515 0.180872 0.668256 0.271444
N4    N     N_3   0.118922 0.787148 0.373977 -0.563344
H31   H     H_    0.224209 0.854125 0.380594 0.241088
H32   H     H_    0.079138 0.840012 0.346391 0.244904
N5    N     N_3   0.549637 0.804795 0.336227 -0.580282
H33   H     H_    0.520406 0.700688 0.337045 0.247817
H34   H     H_    0.624179 0.851457 0.295701 0.279697
N6    N     N_3   0.222681 0.374051 0.361976 -0.577401
H35   H     H_    0.159443 0.416438 0.369691 0.238448
H36   H     H_    0.170301 0.287428 0.328878 0.259005

loop_
_geom_bond_atom_site_label_1
_geom_bond_atom_site_label_2
_ccdc_geom_bond_type
C2    C35   S    
C39   C51   A    
C30   O24   A    
C29   O23   A    
C3    O1    A    
C48   H6    S    
C19   C23   A    
N5    H33   S    
Cr3   O15   S    
C26   O15   A    
Cr6   O26   S    
C53   C59   A    
N1    H25   S    
C54   C60   A    
Cr3   O21   S    
C7    C11   A    
C33   C39   A    
C18   C24   A    
N5    H34   S    
C55   C59   A    
C32   C38   A    
N3    H30   S    
C21   H21   S    
C10   H16   S    
C43   H1    S    
C54   F6    S    
Cr6   O6    S    
C59   H11   S    
C9    C66   A    
C6    O12   A    
C50   F2    S    
C1    O7    A    
C46   H4    S    
C36   C42   A    
C66   C72   A    
C63   C69   A    
C65   C71   A    
Cr1   O1    S    
C16   C22   A    
C51   C57   A    
C64   C70   A    
C35   C43   A    
C24   H24   S    
C5    C32   S    
C5    O11   A    
C6    C31   S    
C4    O10   A    
Cr2   O14   S    
C15   N3    S    
C33   C48   A    
C18   C72   A    
C13   N1    S    
C10   C62   A    
Cr5   O11   S    
C29   O18   A    
C44   C46   A    
C39   C42   A    
C12   H18   S    
C19   H19   S    
C15   C69   A    
C4    O5    A    
C22   H22   S    
C38   C50   A    
C13   C19   A    
Cr4   O22   S    
C14   N2    S    
Cr5   O5    S    
C16   C70   A    
N4    H32   S    
C27   C64   S    
C25   O14   A    
C3    O9    A    
C12   C63   A    
C27   O21   A    
C57   C60   A    
C30   O16   A    
C3    C34   S    
C11   C61   A    
C40   C52   A    
C49   F1    S    
Cr4   O16   S    
C57   H9    S    
C52   F4    S    
C55   H7    S    
C69   C72   A    
Cr6   O18   S    
C14   C20   A    
C7    C65   A    
C37   C49   A    
C61   C67   A    
C56   H8    S    
Cr2   O25   S    
C44   H2    S    
Cr4   O10   S    
C7    H13   S    
C6    O4    A    
C53   F5    S    
C36   C45   A    
C17   C23   A    
C16   N4    S    
C1    O2    A    
C41   C53   A    
Cr5   O26   S    
C52   C58   A    
C8    C64   A    
C8    H14   S    
C8    C10   A    
Cr2   O20   S    
C20   C22   A    
C17   C71   A    
Cr1   O19   S    
C4    C33   S    
Cr4   O26   S    
N6    H36   S    
C21   C24   A    
Cr6   O24   S    
C9    H15   S    
Cr5   O23   S    
Cr2   O2    S    
C13   C67   A    
C45   C48   A    
C11   H17   S    
N1    H26   S    
C34   C44   A    
C29   C62   S    
Cr6   O12   S    
Cr4   O4    S    
C17   N5    S    
C26   C65   S    
C32   C46   A    
C45   H3    S    
C25   C66   S    
N4    H31   S    
Cr5   O17   S    
C28   O17   A    
C58   H10   S    
Cr2   O8    S    
C28   O22   A    
Cr1   O7    S    
N2    H28   S    
C60   H12   S    
C2    O3    A    
Cr3   O9    S    
Cr1   O13   S    
C62   C68   A    
Cr1   O25   S    
N3    H29   S    
C42   C54   A    
C38   C40   A    
Cr3   O25   S    
C23   H23   S    
C43   C47   A    
C56   C58   A    
C67   C71   A    
C49   C55   A    
C37   C41   A    
C35   C41   A    
C9    C12   A    
C50   C56   A    
N2    H27   S    
C47   H5    S    
C28   C63   S    
C31   C37   A    
C15   C21   A    
C20   H20   S    
C51   F3    S    
C30   C61   S    
C68   C70   A    
C14   C68   A    
N6    H35   S    
C34   C40   A    
C31   C47   A    
C26   O20   A    
Cr3   O3    S    
C18   N6    S    
C25   O19   A    
C1    C36   S    
C27   O13   A    
C5    O6    A    
C2    O8    A    
