data_mof_unit_25076.cif
_audit_creation_date              2012-10-26T20:07:48-0400
_audit_creation_method            fapswitch 2.2
_symmetry_space_group_name_H-M    P1
_symmetry_Int_Tables_number       1
_space_group_crystal_system       triclinic
_cell_length_a                    9.587269
_cell_length_b                    10.803618
_cell_length_c                    17.083966
_cell_angle_alpha                 86.90786
_cell_angle_beta                  92.98443
_cell_angle_gamma                 91.016908
_cell_volume                      1764.33848358

loop_
_atom_site_label
_atom_site_type_symbol
_atom_type_description
_atom_site_fract_x
_atom_site_fract_y
_atom_site_fract_z
_atom_type_partial_charge
C1    C     C_R   0.498546 0.262701 0.497497 0.588137
C2    C     C_R   0.073954 0.572599 0.447277 0.037878
C3    C     C_R   0.516839 0.499220 0.650658 0.585688
C4    C     C_R   0.483338 0.501608 0.349185 0.590400
C5    C     C_R   0.527238 0.502109 0.736244 -0.002433
C6    C     C_R   0.474610 0.503462 0.263180 -0.019439
C7    C     C_R   0.417233 0.547690 0.776280 -0.119043
C8    C     C_R   0.596242 0.495782 0.222011 -0.122046
C9    C     C_R   0.426460 0.548973 0.857596 -0.111516
C10   C     C_R   0.588854 0.499542 0.140626 -0.078863
C11   C     C_R   0.547742 0.506207 0.900331 0.228580
C12   C     C_R   0.501490 0.737288 0.502638 0.589858
C13   C     C_R   0.458520 0.509902 0.098451 0.218726
C14   C     C_R   0.661015 0.465669 0.859873 0.274387
C15   C     C_R   0.335794 0.515744 0.139715 0.248172
C16   C     C_R   0.649783 0.463037 0.778142 -0.090697
C17   C     C_R   0.344585 0.512954 0.221714 -0.085864
C18   C     C_R   0.396593 0.062621 0.451617 0.220038
C19   C     C_R   0.603899 0.937413 0.548207 0.218953
C20   C     C_R   0.400884 0.934091 0.455819 -0.136692
C21   C     C_R   0.599442 0.065932 0.544087 -0.131199
C22   C     C_R   0.503423 0.871282 0.502983 -0.015605
C23   C     C_R   0.496795 0.128722 0.497010 -0.011515
C24   C     C_R   0.073373 0.425097 0.553829 0.372467
C25   C     C_R   0.926504 0.575895 0.446774 0.366601
C26   C     C_R   0.925786 0.426495 0.552235 0.039176
Cu1   Cu    Cu3+1 0.640660 0.500020 0.500000 1.121258
Cu2   Cu    Cu3+1 0.359340 0.499980 0.500000 1.126589
H1    H     H_    0.697471 0.486455 0.252631 0.210160
H2    H     H_    0.130781 0.630515 0.405705 0.164765
H3    H     H_    0.866742 0.296387 0.013315 0.404412
H4    H     H_    0.173642 0.425357 0.982070 0.377430
H5    H     H_    0.118662 0.994852 0.352401 0.382893
H6    H     H_    0.883022 0.006052 0.644933 0.379779
H7    H     H_    0.167558 0.358113 0.760038 0.390679
H8    H     H_    0.679003 0.779476 0.318231 0.367712
H9    H     H_    0.324914 0.584200 0.744634 0.204911
H10   H     H_    0.685581 0.494052 0.111062 0.214289
H11   H     H_    0.339117 0.584479 0.886779 0.190328
H12   H     H_    0.736282 0.429950 0.747134 0.183909
H13   H     H_    0.249928 0.518134 0.253206 0.192164
H14   H     H_    0.325461 0.881985 0.420847 0.168182
H15   H     H_    0.674819 0.118079 0.579056 0.167555
H16   H     H_    0.868487 0.370420 0.594419 0.166200
N1    N     N_2   0.559872 0.503744 0.983451 -0.160089
N2    N     N_2   0.446874 0.514016 0.015184 -0.206888
N3    N     N_R   0.852070 0.500030 0.499980 -0.285717
N4    N     N_R   0.147930 0.499970 0.500020 -0.285303
O1    O     O_R   0.618740 0.319660 0.500000 -0.540500
O2    O     O_2   0.882103 0.527685 0.950867 -0.193767
O3    O     O_3   0.779500 0.306896 0.980128 -0.468398
O4    O     O_2   0.055440 0.529343 0.145300 -0.204211
O5    O     O_2   0.165758 0.639827 0.035385 -0.219227
O6    O     O_3   0.145448 0.399180 0.035492 -0.456085
O7    O     O_2   0.158459 0.189955 0.430961 -0.249000
O8    O     O_2   0.339310 0.237624 0.337559 -0.248613
O9    O     O_3   0.197396 0.033409 0.324213 -0.461730
O10   O     O_2   0.661611 0.763777 0.663020 -0.246807
O11   O     O_2   0.841227 0.808592 0.568488 -0.234611
O12   O     O_R   0.381260 0.680340 0.500000 -0.538121
O13   O     O_3   0.805741 0.967298 0.674297 -0.455344
O14   O     O_2   0.046780 0.221981 0.649178 -0.291727
O15   O     O_2   0.286839 0.281221 0.629392 -0.244462
O16   O     O_3   0.143184 0.416538 0.714907 -0.523289
O17   O     O_2   0.935450 0.806793 0.386724 -0.282853
O18   O     O_2   0.900896 0.643383 0.295325 -0.282201
O19   O     O_3   0.688874 0.719002 0.363790 -0.498393
O20   O     O_R   0.381170 0.319630 0.500010 -0.399875
O21   O     O_R   0.618830 0.680370 0.499990 -0.384939
O22   O     O_R   0.631780 0.498870 0.613920 -0.507090
O23   O     O_R   0.368220 0.501130 0.386080 -0.508170
O24   O     O_R   0.394210 0.498840 0.613930 -0.452607
O25   O     O_R   0.605790 0.501160 0.386070 -0.456373
O26   O     O_2   0.918260 0.369000 0.856716 -0.251236
S1    S     S_3+6 0.817210 0.418109 0.911434 0.087322
S2    S     S_3+6 0.170389 0.524758 0.088999 0.102788
S3    S     S_3+6 0.270650 0.135585 0.385588 0.071782
S4    S     S_3+6 0.730344 0.864582 0.614010 0.078155
S5    S     S_3+6 0.143649 0.331192 0.635622 0.068530
S6    S     S_3+6 0.859239 0.686510 0.372870 0.061686

loop_
_geom_bond_atom_site_label_1
_geom_bond_atom_site_label_2
_ccdc_geom_bond_type
C12   O21   A    
C25   S6    S    
H8    O19   S    
C26   H16   S    
O15   S5    D    
N1    N2    D    
C8    H1    S    
C19   C21   A    
C24   C26   A    
C13   N2    S    
O7    S3    D    
C11   C14   A    
C12   C22   S    
C9    H11   S    
C1    O20   A    
C7    C9    A    
C5    C16   A    
C21   H15   S    
H7    O16   S    
C25   N3    A    
Cu1   O21   S    
C15   S2    S    
O17   S6    D    
Cu2   O24   S    
O11   S4    D    
H4    O6    S    
Cu2   O12   S    
O26   S1    D    
C18   C23   A    
C24   N4    A    
O9    S3    S    
O14   S5    D    
C3    O22   A    
C4    C6    S    
H3    O3    S    
C5    C7    A    
C6    C8    A    
C2    N4    A    
H6    O13   S    
O8    S3    D    
C12   O12   A    
C19   S4    S    
C24   S5    S    
O13   S4    S    
C19   C22   A    
C7    H9    S    
C9    C11   A    
C4    O25   A    
Cu1   O22   S    
C26   N3    A    
C16   H12   S    
O6    S2    S    
C20   C22   A    
C1    C23   S    
C13   C15   A    
O16   S5    S    
C14   C16   A    
C11   N1    S    
Cu2   O23   S    
C3    C5    S    
Cu1   N3    S    
C15   C17   A    
C6    C17   A    
Cu2   N4    S    
H5    O9    S    
Cu2   O20   S    
O19   S6    S    
O3    S1    S    
O4    S2    D    
C10   C13   A    
C20   H14   S    
O18   S6    D    
C10   H10   S    
C2    H2    S    
C14   S1    S    
C21   C23   A    
C3    O24   A    
O2    S1    D    
C18   S3    S    
C2    C25   A    
C18   C20   A    
C17   H13   S    
O10   S4    D    
O5    S2    D    
C8    C10   A    
Cu1   Cu2   S    
Cu1   O25   S    
C1    O1    A    
C4    O23   A    
Cu1   O1    S    
