data_mof_unit_41242.cif
_audit_creation_date              2012-12-11T14:17:32-0500
_audit_creation_method            fapswitch 2.2
_symmetry_space_group_name_H-M    P1
_symmetry_Int_Tables_number       1
_space_group_crystal_system       triclinic
_cell_length_a                    6.94291
_cell_length_b                    13.62776
_cell_length_c                    20.41954
_cell_angle_alpha                 102.145466
_cell_angle_beta                  89.605353
_cell_angle_gamma                 90.67432
_cell_volume                      1888.62627914

loop_
_atom_site_label
_atom_site_type_symbol
_atom_type_description
_atom_site_fract_x
_atom_site_fract_y
_atom_site_fract_z
_atom_type_partial_charge
O1    O     O_R   0.506860 0.599390 0.449240 -0.544572
O2    O     O_R   0.180220 0.594600 0.586780 -0.513642
O3    O     O_R   0.004500 0.400610 0.550760 -0.532153
C1    C     C_R   0.347255 0.613945 0.614352 0.791605
O4    O     O_R   0.177490 0.611290 0.451970 -0.544004
O5    O     O_R   0.001750 0.417420 0.414990 -0.545527
C2    C     C_R   0.347296 0.637905 0.435172 0.697741
O6    O     O_R   0.509610 0.582580 0.585010 -0.532065
O7    O     O_3   0.337420 0.436370 0.488020 -0.376383
V1    V     V_3+5 0.064680 0.511800 0.502220 1.507616
O8    O     O_R   0.671710 0.405400 0.413220 -0.546935
C3    C     C_R   0.840122 0.384057 0.386550 0.733102
O9    O     O_R   0.674440 0.388710 0.548030 -0.536871
C4    C     C_R   0.842200 0.362183 0.564892 0.739606
V2    V     V_3+5 0.564010 0.488200 0.497780 1.490500
O10   O     O_3   0.841140 0.563630 0.511980 -0.360756
C5    C     C_R   0.830503 0.111089 0.612737 -0.115640
H1    H     H_    0.823380 0.161339 0.520038 0.155022
H2    H     H_    0.826611 0.985776 0.695887 0.134838
H3    H     H_    0.819781 0.032741 0.587767 0.138997
C6    C     C_R   0.847083 0.285224 0.604966 -0.062326
C7    C     C_R   0.878812 0.315582 0.928543 -0.108917
C8    C     C_R   0.881576 0.391738 0.892805 -0.066365
C9    C     C_R   0.872868 0.369002 0.823079 -0.165357
C10   C     C_R   0.860788 0.268186 0.786965 0.076569
C11   C     C_R   0.856351 0.190410 0.824083 0.066429
C12   C     C_R   0.853431 0.241939 0.715418 0.073418
C13   C     C_R   0.840266 0.138950 0.682884 0.122289
C14   C     C_R   0.836257 0.064372 0.720415 -0.190704
C15   C     C_R   0.844490 0.089463 0.789813 -0.186398
C16   C     C_R   0.857962 0.314180 0.674754 -0.204219
C17   C     C_R   0.832879 0.183905 0.574064 -0.121712
C18   C     C_R   0.865708 0.215259 0.894980 -0.098273
H4    H     H_    0.867524 0.393581 0.695469 0.140261
H5    H     H_    0.887450 0.334906 0.982719 0.154404
H6    H     H_    0.876234 0.432269 0.799173 0.142632
H7    H     H_    0.891490 0.469258 0.919366 0.151721
H8    H     H_    0.841241 0.028623 0.816426 0.118767
C19   C     C_2   0.005753 0.288768 0.284643 -0.117234
C20   C     C_2   0.842771 0.315631 0.319819 -0.284730
H9    H     H_    0.143072 0.317389 0.306207 0.136324
H10   H     H_    0.704069 0.287435 0.299866 0.131468
C21   C     C_2   0.013435 0.220659 0.217023 -0.104941
C22   C     C_2   0.857984 0.183289 0.180389 -0.289419
H11   H     H_    0.156262 0.201428 0.196649 0.137536
H12   H     H_    0.713789 0.201715 0.199107 0.128030
C23   C     C_2   0.203706 0.779761 0.787638 -0.156827
C24   C     C_2   0.365250 0.813191 0.821024 -0.350734
H13   H     H_    0.065784 0.805166 0.809999 0.169056
H14   H     H_    0.504428 0.785730 0.801333 0.156662
C25   C     C_2   0.198743 0.704205 0.723240 0.291236
C26   C     C_2   0.353195 0.683325 0.681033 -0.332333
H15   H     H_    0.490162 0.720774 0.694490 0.137877
C27   C     C_R   0.418605 0.887742 0.388055 0.277958
H16   H     H_    0.415052 0.835006 0.480093 0.140103
H17   H     H_    0.450688 0.012019 0.301490 0.174499
C28   C     C_R   0.360317 0.715110 0.395310 -0.084076
C29   C     C_R   0.314752 0.686406 0.072332 -0.213446
C30   C     C_R   0.294146 0.611117 0.108447 0.453065
C31   C     C_R   0.309905 0.633711 0.178105 -0.206121
C32   C     C_R   0.347095 0.733235 0.213686 0.033156
C33   C     C_R   0.369337 0.809666 0.176057 0.069317
C34   C     C_R   0.362409 0.759390 0.285178 0.062921
C35   C     C_R   0.400968 0.861150 0.317461 0.079917
C36   C     C_R   0.421783 0.934210 0.278783 -0.152797
C37   C     C_R   0.406092 0.909108 0.209609 -0.189834
C38   C     C_R   0.341334 0.687722 0.325845 -0.213604
C39   C     C_R   0.399290 0.814464 0.426157 -0.186881
C40   C     C_R   0.352649 0.785218 0.105335 -0.140371
H18   H     H_    0.312282 0.609526 0.305400 0.106557
H19   H     H_    0.300477 0.667932 0.018285 0.143773
H20   H     H_    0.291806 0.571486 0.202496 0.146142
H21   H     H_    0.423450 0.968995 0.182550 0.114224
O11   O     O_R   0.203230 0.917310 0.915020 -0.541845
O12   O     O_R   0.535500 0.888690 0.048040 -0.541221
O13   O     O_R   0.711080 0.082610 0.085000 -0.545398
C41   C     C_R   0.365738 0.862279 0.065026 0.709226
O14   O     O_R   0.532630 0.905370 0.913230 -0.546945
O15   O     O_R   0.708190 0.099410 0.949230 -0.537830
C42   C     C_R   0.364982 0.883751 0.886724 0.760960
O16   O     O_R   0.206120 0.900510 0.050790 -0.540754
O17   O     O_3   0.375360 0.063570 0.011990 -0.368206
V3    V     V_3+5 0.648170 0.988200 0.997780 1.447782
O18   O     O_R   0.038240 0.111390 0.951940 -0.535831
C43   C     C_R   0.870505 0.137723 0.934971 0.698057
O19   O     O_R   0.041120 0.094710 0.086750 -0.540245
C44   C     C_R   0.872167 0.115723 0.113529 0.749495
V4    V     V_3+5 0.148810 0.011930 0.002180 1.464007
O20   O     O_3   0.871750 0.936430 0.988010 -0.374971
Br1   Br    Br    0.951827 0.637580 0.705803 -0.612394
Br2   Br    Br    0.470911 0.022654 0.435987 -0.614294
Cl1   Cl    Cl    0.246299 0.487257 0.066065 -0.678766

loop_
_geom_bond_atom_site_label_1
_geom_bond_atom_site_label_2
_ccdc_geom_bond_type
C40   C41   S    
C1    O6    A    
H16   C39   S    
C19   H9    S    
C7    H5    S    
C6    C16   A    
C9    H6    S    
C1    C26   S    
C4    C6    S    
C13   C14   A    
C25   Br1   S    
O5    C3    A    
O14   C42   A    
C29   H19   S    
C27   C39   A    
C31   H20   S    
H17   C36   S    
C5    H3    S    
C15   H8    S    
C32   C34   A    
C18   C43   S    
O8    V2    S    
O14   V3    S    
C8    C9    A    
O1    V2    S    
C22   C44   S    
O7    V1    S    
C20   H10   S    
C30   C31   A    
O11   C42   A    
O9    C4    A    
C28   C38   A    
O13   V3    S    
C22   H12   S    
V3    O20   S    
C6    C17   A    
C34   C38   A    
C33   C37   A    
C12   C16   A    
C25   C26   D    
C9    C10   A    
C23   H13   S    
C19   C20   D    
O4    C2    A    
O19   C44   A    
C19   C21   S    
C29   C30   A    
C8    H7    S    
C37   H21   S    
C33   C40   A    
C31   C32   A    
C3    C20   S    
O2    C1    A    
C21   C22   D    
C14   C15   A    
C21   H11   S    
C11   C18   A    
C23   C24   D    
C41   O16   A    
C16   H4    S    
O18   C43   A    
O12   C41   A    
O13   C44   A    
O3    C4    A    
C11   C15   A    
O6    V2    S    
O9    V2    S    
H1    C17   S    
C28   C39   A    
O2    V1    S    
O15   C43   A    
C26   H15   S    
C7    C18   A    
O1    C2    A    
C5    C13   A    
O18   V4    S    
O5    V1    S    
C23   C25   S    
O8    C3    A    
C29   C40   A    
C10   C12   A    
C38   H18   S    
C35   C36   A    
C24   C42   S    
C10   C11   A    
C27   Br2   S    
O3    V1    S    
V1    O10   S    
O15   V3    S    
O12   V3    S    
C27   C35   A    
O17   V4    S    
C24   H14   S    
O19   V4    S    
C30   Cl1   S    
C36   C37   A    
O7    V2    S    
C32   C33   A    
O16   V4    S    
C34   C35   A    
O4    V1    S    
V4    O20   S    
O17   V3    S    
C12   C13   A    
C5    C17   A    
C7    C8    A    
O11   V4    S    
C2    C28   S    
V2    O10   S    
H2    C14   S    
