data_mof_unit_41254.cif
_audit_creation_date              2012-12-10T20:50:10-0500
_audit_creation_method            fapswitch 2.2
_symmetry_space_group_name_H-M    P1
_symmetry_Int_Tables_number       1
_space_group_crystal_system       monoclinic
_cell_length_a                    18.707136
_cell_length_b                    8.931915
_cell_length_c                    8.083426
_cell_angle_alpha                 90.0
_cell_angle_beta                  89.496337
_cell_angle_gamma                 90.0
_cell_volume                      1350.61189983

loop_
_atom_site_label
_atom_site_type_symbol
_atom_type_description
_atom_site_fract_x
_atom_site_fract_y
_atom_site_fract_z
_atom_type_partial_charge
C1    C     C_R   0.500000 0.217886 0.500000 0.941038
C2    C     C_R   0.255837 0.411349 0.354670 -0.304111
C3    C     C_R   0.180375 0.390102 0.654279 0.446465
C4    C     C_R   0.819625 0.390101 0.345721 0.446465
C5    C     C_R   0.811268 0.343981 0.643723 0.444166
C6    C     C_R   0.188732 0.343981 0.356277 0.444166
C7    C     C_R   0.148792 0.336283 0.506089 -0.146283
C8    C     C_R   0.851208 0.336282 0.493911 -0.146283
C9    C     C_R   0.287918 0.457078 0.501587 -0.166838
C10   C     C_R   0.712082 0.457078 0.498413 -0.166838
C11   C     C_R   0.927530 0.291589 0.496779 0.291023
C12   C     C_R   0.500000 0.782116 0.500000 0.942484
C13   C     C_R   0.072470 0.291590 0.503221 0.291024
C14   C     C_3   0.108329 0.515591 0.839744 0.160672
C15   C     C_3   0.151594 0.617090 0.954292 -0.362806
C16   C     C_3   0.104446 0.738008 0.032302 -0.976769
C17   C     C_3   0.891671 0.515591 0.160255 0.160672
C18   C     C_3   0.848405 0.617089 0.045707 -0.362806
C19   C     C_3   0.895553 0.738006 0.967696 -0.976769
C20   C     C_3   0.819341 0.147021 0.824927 0.140911
C21   C     C_3   0.748976 0.140409 0.923996 -0.359155
C22   C     C_3   0.736485 0.985889 0.999234 -0.950936
C23   C     C_R   0.363940 0.495773 0.500641 0.908231
C24   C     C_3   0.180659 0.147022 0.175071 0.140911
C25   C     C_3   0.251024 0.140410 0.076004 -0.359157
C26   C     C_3   0.263514 0.985891 0.000764 -0.950936
C27   C     C_R   0.636060 0.495773 0.499358 0.908231
C28   C     C_1   0.500000 0.065177 0.500000 -0.200306
C29   C     C_1   0.500000 0.934841 0.500000 -0.202223
C30   C     C_R   0.250269 0.444544 0.650945 -0.297619
C31   C     C_R   0.749731 0.444544 0.349054 -0.297620
C32   C     C_R   0.744162 0.411349 0.645330 -0.304111
H1    H     H_    0.275177 0.476069 0.766304 0.174218
H2    H     H_    0.136617 0.806897 0.118195 0.264773
H3    H     H_    0.059981 0.686357 0.104257 0.269441
H4    H     H_    0.942217 0.484139 0.095907 0.188467
H5    H     H_    0.907630 0.578636 0.273497 0.097593
H6    H     H_    0.824188 0.549596 0.945638 0.273596
H7    H     H_    0.804555 0.671320 0.117179 0.201930
H8    H     H_    0.917965 0.811758 0.064987 0.270050
H9    H     H_    0.863383 0.806895 0.881803 0.264773
H10   H     H_    0.940019 0.686355 0.895741 0.269440
H11   H     H_    0.862418 0.096741 0.900647 0.192727
H12   H     H_    0.724823 0.476068 0.233696 0.174218
H13   H     H_    0.815641 0.077280 0.710636 0.098500
H14   H     H_    0.749979 0.224658 0.025083 0.263365
H15   H     H_    0.703508 0.166524 0.841494 0.207200
H16   H     H_    0.735217 0.899311 0.900649 0.264492
H17   H     H_    0.684438 0.984630 0.066335 0.272440
H18   H     H_    0.779406 0.958987 0.088515 0.274957
H19   H     H_    0.137582 0.096742 0.099351 0.192728
H20   H     H_    0.184358 0.077281 0.289363 0.098500
H21   H     H_    0.250021 0.224660 0.974918 0.263365
H22   H     H_    0.296491 0.166524 0.158507 0.207200
H23   H     H_    0.715893 0.421922 0.762236 0.175734
H24   H     H_    0.264782 0.899312 0.099347 0.264492
H25   H     H_    0.315562 0.984631 0.933663 0.272441
H26   H     H_    0.220594 0.958990 0.911483 0.274957
H27   H     H_    0.284106 0.421923 0.237764 0.175734
H28   H     H_    0.057782 0.484140 0.904092 0.188467
H29   H     H_    0.092369 0.578637 0.726502 0.097594
H30   H     H_    0.175811 0.549598 0.054362 0.273596
H31   H     H_    0.195444 0.671321 0.882820 0.201931
H32   H     H_    0.082035 0.811759 0.935011 0.270051
N1    N     N_1   0.500000 0.500000 0.073640 -0.038912
N2    N     N_1   0.500000 0.500000 0.926360 -0.038912
N3    N     N_R   0.037139 0.284767 0.357762 -0.132103
N4    N     N_R   0.962861 0.284767 0.642237 -0.132103
N5    N     N_R   0.966230 0.283546 0.354718 -0.143234
N6    N     N_R   0.033770 0.283546 0.645281 -0.143234
O1    O     O_R   0.500000 0.285350 0.636850 -0.614752
O2    O     O_3   0.854350 0.380679 0.194153 -0.622639
O3    O     O_3   0.839409 0.297152 0.792800 -0.625587
O4    O     O_3   0.160590 0.297153 0.207200 -0.625587
O5    O     O_R   0.500000 0.714650 0.363150 -0.612205
O6    O     O_R   0.500000 0.714650 0.636850 -0.612205
O7    O     O_R   0.500000 0.285350 0.363150 -0.614752
O8    O     O_R   0.398140 0.500000 0.636920 -0.618354
O9    O     O_R   0.601860 0.500000 0.363080 -0.618353
O10   O     O_R   0.601860 0.500000 0.636920 -0.621761
O11   O     O_R   0.398140 0.500000 0.363080 -0.621761
O12   O     O_3   0.145650 0.380680 0.805847 -0.622639
Zn1   Zn    Zn3+2 0.500000 0.500000 0.682780 0.972615
Zn2   Zn    Zn3+2 0.500000 0.500000 0.317220 0.972615

loop_
_geom_bond_atom_site_label_1
_geom_bond_atom_site_label_2
_ccdc_geom_bond_type
C10   C27   S    
C24   H20   S    
C22   H16   S    
C12   C29   S    
C1    O7    A    
C4    C8    A    
C20   H11   S    
C1    O1    A    
C28   C29   T    
C25   H21   S    
C3    C7    A    
C16   H3    S    
O9    Zn2   S    
O5    Zn2   S    
C13   N6    A    
C15   C16   S    
C18   C19   S    
C16   H2    S    
N2    Zn1   S    
C10   C31   A    
C1    C28   S    
C17   H4    S    
C32   H23   S    
C20   H13   S    
C19   H10   S    
C22   H18   S    
C5    C32   A    
C24   H19   S    
C21   C22   S    
C2    C6    A    
O10   Zn1   S    
O8    Zn1   S    
O6    Zn1   S    
C6    O4    S    
O1    Zn1   S    
C31   H12   S    
C25   H22   S    
C27   O10   A    
C2    H27   S    
C9    C23   S    
N1    Zn2   S    
O7    Zn2   S    
C25   C26   S    
C14   H29   S    
N3    N5    A    
C3    C30   A    
C18   H7    S    
C3    O12   S    
C17   C18   S    
C17   H5    S    
C24   C25   S    
C26   H26   S    
C9    C30   A    
C22   H17   S    
C12   O6    A    
C14   O12   S    
C4    O2    S    
O11   Zn2   S    
C11   N4    A    
C21   H14   S    
C13   N3    A    
C23   O11   A    
C30   H1    S    
C26   H24   S    
C5    C8    A    
C11   N5    A    
C6    C7    A    
C14   H28   S    
C27   O9    A    
C18   H6    S    
C24   O4    S    
C8    C11   S    
C15   H30   S    
C20   O3    S    
C23   O8    A    
C5    O3    S    
C26   H25   S    
C4    C31   A    
C19   H8    S    
C10   C32   A    
C7    C13   S    
C20   C21   S    
C17   O2    S    
N4    N6    A    
N1    N2    T    
C12   O5    A    
C15   H31   S    
C14   C15   S    
C16   H32   S    
C2    C9    A    
C19   H9    S    
C21   H15   S    
