data_mof_unit_36053.cif
_audit_creation_date              2012-12-11T17:39:38-0500
_audit_creation_method            fapswitch 2.2
_symmetry_space_group_name_H-M    P1
_symmetry_Int_Tables_number       1
_space_group_crystal_system       triclinic
_cell_length_a                    15.096316
_cell_length_b                    14.931048
_cell_length_c                    14.96545
_cell_angle_alpha                 108.590542
_cell_angle_beta                  110.111363
_cell_angle_gamma                 109.891178
_cell_volume                      2590.58008556

loop_
_atom_site_label
_atom_site_type_symbol
_atom_type_description
_atom_site_fract_x
_atom_site_fract_y
_atom_site_fract_z
_atom_type_partial_charge
C1    C     C_R   0.909261 0.974767 0.721620 -0.118247
C2    C     C_R   0.996860 0.325713 0.534757 0.051917
C3    C     C_R   0.363643 0.302802 0.802144 0.143726
C4    C     C_R   0.638821 0.942220 0.439859 0.063324
C5    C     C_R   0.752270 0.686916 0.279308 -0.158431
C6    C     C_R   0.246957 0.027176 0.434747 -0.102549
C7    C     C_R   0.090418 0.793075 0.598611 -0.140349
C8    C     C_R   0.908102 0.002298 0.200935 -0.151838
C9    C     C_R   0.089075 0.094296 0.289205 -0.139937
C10   C     C_R   0.909556 0.705320 0.512092 -0.137760
C11   C     C_R   0.751897 0.779493 0.187412 -0.123102
C12   C     C_R   0.090282 0.315989 0.555411 -0.128768
C13   C     C_R   0.256483 0.941774 0.534019 -0.138101
C14   C     C_R   0.726331 0.676886 0.177327 0.124882
C15   C     C_R   0.284118 0.961619 0.460470 0.050311
C16   C     C_R   0.000024 0.705180 0.578381 0.066681
C17   C     C_R   0.995787 0.062152 0.194344 0.068203
C18   C     C_R   0.506672 0.613038 0.303086 -0.141835
C19   C     C_R   0.477480 0.692500 0.304347 -0.183130
C20   C     C_R   0.451880 0.737943 0.382991 0.126617
C21   C     C_R   0.446369 0.695506 0.453584 -0.208505
C22   C     C_R   0.474384 0.614939 0.451107 -0.165054
C23   C     C_R   0.301818 0.208406 0.799414 -0.145416
C24   C     C_R   0.507695 0.576122 0.378098 0.265002
C25   C     C_R   0.363442 0.849847 0.411839 -0.256449
C26   C     C_R   0.368697 0.951296 0.444494 0.073501
C27   C     C_R   0.459220 0.045330 0.469312 0.008837
C28   C     C_R   0.540275 0.034444 0.455031 -0.255151
C29   C     C_R   0.537995 0.935164 0.426604 0.066608
C30   C     C_R   0.449631 0.840945 0.404206 0.032743
C31   C     C_R   0.456933 0.215539 0.477757 -0.181824
C32   C     C_R   0.486900 0.324560 0.538366 -0.080767
C33   C     C_R   0.549498 0.379515 0.652406 -0.097332
C34   C     C_R   0.699140 0.998915 0.406162 -0.169718
C35   C     C_R   0.579770 0.324566 0.706192 -0.098750
C36   C     C_R   0.546161 0.214302 0.646135 -0.144274
C37   C     C_R   0.484466 0.158969 0.531434 0.128232
C38   C     C_R   0.690374 0.232468 0.222377 -0.125297
C39   C     C_R   0.788200 0.312078 0.320539 -0.117191
C40   C     C_R   0.791819 0.336791 0.420944 0.098275
C41   C     C_R   0.696089 0.281919 0.421800 -0.142657
C42   C     C_R   0.599219 0.200162 0.323295 -0.075936
C43   C     C_R   0.596225 0.175811 0.223804 -0.120270
C44   C     C_R   0.896275 0.526830 0.556361 -0.211163
C45   C     C_R   0.300713 0.300665 0.708595 -0.126018
C46   C     C_R   0.996403 0.623627 0.614680 0.041436
C47   C     C_R   0.091528 0.625367 0.678718 0.032859
C48   C     C_R   0.087732 0.525523 0.657661 -0.241705
C49   C     C_R   0.991539 0.426517 0.572785 0.066357
C50   C     C_R   0.893170 0.427910 0.523585 0.014503
C51   C     C_R   0.288158 0.752865 0.751036 -0.200933
C52   C     C_R   0.377318 0.859730 0.813150 -0.122836
C53   C     C_R   0.377075 0.942168 0.890622 -0.114153
C54   C     C_R   0.287422 0.918056 0.906027 -0.125135
C55   C     C_R   0.196284 0.812301 0.841287 -0.138693
C56   C     C_R   0.698785 0.909677 0.500276 -0.127179
C57   C     C_R   0.195177 0.729458 0.761769 0.119396
C58   C     C_2   0.532109 0.473498 0.883362 -0.140768
C59   C     C_2   0.479585 0.378798 0.880028 -0.194166
C60   C     C_2   0.634903 0.567663 0.979628 -0.127550
C61   C     C_2   0.671618 0.573489 0.077578 -0.182009
C62   C     C_R   0.394280 0.280128 0.107359 -0.082059
C63   C     C_R   0.293594 0.217303 0.094868 -0.171901
C64   C     C_R   0.206249 0.234206 0.050218 0.111738
C65   C     C_R   0.221850 0.316356 0.020803 -0.137195
C66   C     C_R   0.323654 0.380770 0.036023 -0.092562
C67   C     C_R   0.907524 0.221037 0.468366 -0.129312
C68   C     C_R   0.409597 0.362502 0.079193 -0.096084
C69   C     C_R   0.091836 0.160628 0.121471 -0.235564
C70   C     C_R   0.992091 0.093249 0.108956 0.059756
C71   C     C_R   0.894172 0.049518 0.009973 0.027009
C72   C     C_R   0.901099 0.057542 0.922646 -0.237858
C73   C     C_R   0.001892 0.099049 0.927858 0.056219
C74   C     C_R   0.098156 0.164247 0.031870 0.027694
C75   C     C_R   0.729803 0.868105 0.926888 -0.160748
C76   C     C_R   0.629298 0.804155 0.914258 -0.152388
C77   C     C_R   0.582665 0.854321 0.962850 -0.094543
C78   C     C_R   0.091937 0.063116 0.812503 -0.136087
C79   C     C_R   0.633082 0.968536 0.018498 -0.132754
C80   C     C_R   0.731933 0.033066 0.028367 -0.180299
C81   C     C_R   0.783132 0.982907 0.986952 0.116598
C82   C     C_R   0.002147 0.052218 0.824826 0.054630
H1    H     H_    0.824862 0.943404 0.699319 0.093797
H2    H     H_    0.253773 0.056338 0.378895 0.097169
H3    H     H_    0.175135 0.825860 0.653610 0.129131
H4    H     H_    0.824214 0.977226 0.155121 0.134134
H5    H     H_    0.172513 0.153565 0.319847 0.089830
H6    H     H_    0.826220 0.658878 0.491648 0.126384
H7    H     H_    0.741286 0.801066 0.123837 0.107636
H8    H     H_    0.277005 0.896906 0.573858 0.103002
H9    H     H_    0.533110 0.583958 0.247049 0.135821
H10   H     H_    0.482247 0.724045 0.249215 0.125089
H11   H     H_    0.174691 0.381117 0.604630 0.091187
H12   H     H_    0.427728 0.729912 0.515405 0.123958
H13   H     H_    0.475121 0.586528 0.509330 0.131370
H14   H     H_    0.294366 0.779379 0.396094 0.135177
H15   H     H_    0.612166 0.107667 0.478758 0.135781
H16   H     H_    0.410851 0.174922 0.389342 0.107063
H17   H     H_    0.462311 0.366732 0.496953 0.142609
H18   H     H_    0.574890 0.464753 0.698953 0.103273
H19   H     H_    0.629698 0.367398 0.794434 0.127944
H20   H     H_    0.570352 0.172651 0.688726 0.111249
H21   H     H_    0.520610 0.113696 0.147818 0.094545
H22   H     H_    0.332140 0.176718 0.851189 0.098702
H23   H     H_    0.687302 0.215285 0.145165 0.099495
H24   H     H_    0.860600 0.355918 0.318474 0.110912
H25   H     H_    0.696949 0.301855 0.498423 0.131639
H26   H     H_    0.526082 0.155864 0.323535 0.112591
H27   H     H_    0.820725 0.525171 0.515809 0.161892
H28   H     H_    0.161600 0.526034 0.702730 0.123713
H29   H     H_    0.288090 0.690887 0.688786 0.116006
H30   H     H_    0.445886 0.879027 0.799778 0.131327
H31   H     H_    0.445925 0.024953 0.937979 0.095786
H32   H     H_    0.287136 0.982085 0.965677 0.105119
H33   H     H_    0.671042 0.024755 0.347470 0.111739
H34   H     H_    0.124922 0.795998 0.849887 0.114294
H35   H     H_    0.492094 0.489989 0.820241 0.114123
H36   H     H_    0.518745 0.358390 0.939540 0.121319
H37   H     H_    0.665120 0.641236 0.973704 0.120962
H38   H     H_    0.646489 0.501451 0.086447 0.121995
H39   H     H_    0.488408 0.412727 0.091696 0.103299
H40   H     H_    0.460889 0.265858 0.140052 0.138974
H41   H     H_    0.282770 0.153705 0.117152 0.110504
H42   H     H_    0.155335 0.330289 0.986214 0.114192
H43   H     H_    0.335903 0.444522 0.013983 0.115288
H44   H     H_    0.328728 0.351640 0.675524 0.088974
H45   H     H_    0.166906 0.206019 0.199349 0.131317
H46   H     H_    0.825550 0.019300 0.846870 0.125698
H47   H     H_    0.767554 0.828477 0.892712 0.118805
H48   H     H_    0.588517 0.715778 0.868550 0.104097
H49   H     H_    0.506552 0.804644 0.955992 0.123285
H50   H     H_    0.596091 0.006756 0.055081 0.118958
H51   H     H_    0.771886 0.121436 0.073730 0.114720
H52   H     H_    0.671594 0.855548 0.530720 0.113457
H53   H     H_    0.823389 0.194491 0.442118 0.117693
H54   H     H_    0.177186 0.111355 0.873185 0.122472
H55   H     H_    0.742627 0.622768 0.300447 0.125376
N1    N     N_R   0.941940 0.944580 0.650780 -0.041027
N2    N     N_R   0.206190 0.054080 0.497260 -0.040600
N3    N     N_R   0.056380 0.847410 0.553580 -0.042256
N4    N     N_R   0.944890 0.999100 0.292900 -0.042361
N5    N     N_R   0.058060 0.055420 0.349220 -0.039818
N6    N     N_R   0.943200 0.791100 0.497260 -0.040094
N7    N     N_R   0.795540 0.849750 0.292910 -0.044568
N8    N     N_R   0.205730 0.996760 0.553580 -0.040688
N9    N     N_R   0.056800 0.208900 0.502740 -0.040127
N10   N     N_R   0.204460 0.150250 0.707090 -0.043238
N11   N     N_R   0.794270 0.003240 0.446420 -0.038891
N12   N     N_R   0.204920 0.207570 0.650770 -0.044403
N13   N     N_R   0.793810 0.945920 0.502740 -0.040354
N14   N     N_R   0.943620 0.152590 0.446420 -0.041663
N15   N     N_R   0.055110 0.000900 0.707100 -0.041872
N16   N     N_R   0.795080 0.792430 0.349230 -0.037812
Ni1   Ni    Ni4+2 0.869690 0.869690 0.500000 0.222917
Ni2   Ni    Ni4+2 0.130310 0.130310 0.500000 0.214843
Ni3   Ni    Ni4+2 0.129250 0.998840 0.629170 0.214883
Ni4   Ni    Ni4+2 0.870750 0.001160 0.370830 0.214578
I1    I     I_    0.569944 0.470887 0.388603 -0.589078

loop_
_geom_bond_atom_site_label_1
_geom_bond_atom_site_label_2
_ccdc_geom_bond_type
C28   H15   S    
C39   H24   S    
C66   C68   A    
C40   C41   A    
C13   H8    S    
C41   C42   A    
C48   H28   S    
C35   C36   A    
N3    N6    A    
C13   N8    A    
C2    C12   A    
C78   N15   A    
C20   C30   S    
C53   C54   A    
C10   H6    S    
C26   C27   A    
C62   C63   A    
C72   H46   S    
C18   C24   A    
C18   H9    S    
N14   Ni4   S    
C36   C37   A    
N10   N12   A    
N11   N13   A    
C34   H33   S    
C77   H49   S    
C7    N3    A    
C80   C81   A    
C11   C14   A    
C24   I1    S    
C31   H16   S    
C21   H12   S    
C52   H30   S    
C58   C60   S    
N7    N16   A    
C60   H37   S    
C36   H20   S    
C18   C19   A    
C73   C74   A    
C65   H42   S    
C12   N9    A    
C6    N2    A    
C3    C23   A    
C78   C82   A    
C44   C50   A    
C19   H10   S    
C6    C15   A    
C54   C55   A    
N8    Ni3   S    
C76   H48   S    
N9    Ni2   S    
N15   Ni3   S    
C53   H31   S    
C70   C71   A    
C51   C57   A    
N5    Ni2   S    
C11   N7    A    
C45   N12   A    
C4    C29   S    
C10   N6    A    
C44   H27   S    
N1    Ni1   S    
C17   C70   S    
N16   Ni1   S    
C21   C22   A    
C4    C56   A    
C61   H38   S    
C34   N11   A    
C44   C46   A    
C77   C79   A    
C38   C39   A    
C4    C34   A    
C6    H2    S    
C67   N14   A    
C51   C52   A    
C47   C48   A    
C76   C77   A    
C2    C67   A    
C16   C46   S    
C39   C40   A    
C75   C81   A    
C15   C26   S    
N1    N15   A    
C25   C26   A    
C63   C64   A    
C14   C61   S    
C23   N10   A    
C3    C45   A    
C58   H35   S    
C80   H51   S    
C31   C37   A    
C60   C61   D    
C67   H53   S    
C75   C76   A    
C29   C30   A    
C2    C49   S    
C47   C57   S    
C11   H7    S    
C63   H41   S    
C31   C32   A    
N2    Ni2   S    
C45   H44   S    
C69   C74   A    
N10   Ni3   S    
C5    C14   A    
C8    N4    A    
N3    Ni3   S    
N6    Ni1   S    
N4    Ni4   S    
C48   C49   A    
C49   C50   A    
C59   H36   S    
C13   C15   A    
N13   Ni1   S    
C22   C24   A    
C79   C80   A    
C58   C59   D    
C42   C43   A    
C56   N13   A    
C28   C29   A    
C73   C82   S    
C62   H40   S    
C52   C53   A    
C9    C17   A    
C25   C30   A    
C46   C47   A    
N2    N8    A    
C51   H29   S    
C41   H25   S    
C7    C16   A    
C72   C73   A    
C35   H19   S    
C68   H39   S    
C56   H52   S    
C9    N5    A    
C66   H43   S    
C5    H55   S    
C1    H1    S    
C8    C17   A    
C32   H17   S    
C62   C68   A    
C33   H18   S    
C32   C33   A    
C19   C20   A    
C55   C57   A    
C1    C82   A    
C38   C43   A    
C10   C16   A    
N4    N5    A    
C64   C65   A    
C7    H3    S    
C78   H54   S    
C38   H23   S    
C40   C50   S    
C79   H50   S    
C54   H32   S    
C33   C35   A    
C8    H4    S    
N11   Ni4   S    
C23   H22   S    
N12   Ni2   S    
C69   C70   A    
C12   H11   S    
C43   H21   S    
N9    N14   A    
C5    N16   A    
C22   H13   S    
C75   H47   S    
C71   C72   A    
C20   C21   A    
C69   H45   S    
C25   H14   S    
C65   C66   A    
C55   H34   S    
C27   C28   A    
C64   C74   S    
N7    Ni4   S    
C42   H26   S    
C9    H5    S    
C1    N1    A    
C27   C37   S    
C71   C81   S    
C3    C59   S    
