data_mof_unit_48539.cif
_audit_creation_date              2012-12-10T21:09:53-0500
_audit_creation_method            fapswitch 2.2
_symmetry_space_group_name_H-M    P1
_symmetry_Int_Tables_number       1
_space_group_crystal_system       triclinic
_cell_length_a                    12.890256
_cell_length_b                    17.49698
_cell_length_c                    16.801619
_cell_angle_alpha                 91.522072
_cell_angle_beta                  96.87717
_cell_angle_gamma                 89.018141
_cell_volume                      3760.48260713

loop_
_atom_site_label
_atom_site_type_symbol
_atom_type_description
_atom_site_fract_x
_atom_site_fract_y
_atom_site_fract_z
_atom_type_partial_charge
C1    C     C_R   0.501371 0.352988 0.498997 0.885484
C2    C     C_R   0.497423 0.647423 0.500968 0.888733
C3    C     C_R   0.481152 0.730930 0.500186 -0.167833
C4    C     C_R   0.492936 0.269996 0.495730 -0.165454
C5    C     C_R   0.503945 0.767715 0.431109 -0.243116
C6    C     C_R   0.427879 0.238154 0.546688 -0.280292
C7    C     C_R   0.480505 0.845067 0.419257 0.048561
C8    C     C_R   0.406602 0.160499 0.542613 0.061962
C9    C     C_R   0.432519 0.885578 0.478534 -0.067486
C10   C     C_R   0.452797 0.114131 0.486732 -0.036546
C11   C     C_1   0.428243 0.966654 0.478076 -0.007749
C12   C     C_1   0.434402 0.034388 0.481180 0.005549
C13   C     C_R   0.454242 0.438630 0.825037 0.005346
C14   C     C_R   0.573589 0.544822 0.176583 0.016597
C15   C     C_R   0.450233 0.443672 0.740994 -0.154888
C16   C     C_R   0.573628 0.539816 0.260839 -0.150466
C17   C     C_R   0.557697 0.552647 0.754287 0.597915
C18   C     C_R   0.422154 0.463787 0.244218 0.595447
C19   C     C_R   0.558675 0.553675 0.839332 -0.101686
C20   C     C_R   0.420003 0.463900 0.159167 -0.083296
C21   C     C_R   0.505576 0.496054 0.875694 0.035098
C22   C     C_R   0.499541 0.501988 0.124732 0.007425
C23   C     C_R   0.297928 0.502890 0.484368 0.877485
C24   C     C_R   0.701979 0.494508 0.515393 0.872867
C25   C     C_1   0.503673 0.496784 0.963761 -0.036144
C26   C     C_1   0.502276 0.499277 0.036689 -0.054803
C27   C     C_R   0.814219 0.484179 0.524229 -0.127550
C28   C     C_R   0.185604 0.505326 0.473975 -0.101254
C29   C     C_R   0.018974 0.530226 0.397161 0.085583
C30   C     C_R   0.980765 0.448260 0.597130 0.106173
C31   C     C_R   0.127217 0.542614 0.409273 0.083220
C32   C     C_R   0.870637 0.442750 0.587300 0.048918
C33   C     C_R   0.136854 0.468699 0.531443 -0.334264
C34   C     C_R   0.864575 0.515597 0.464476 -0.305149
C35   C     C_R   0.029762 0.474388 0.531502 0.082886
C36   C     C_R   0.970452 0.505547 0.463329 0.086165
C37   C     C_R   0.403755 0.849596 0.545967 0.513455
C38   C     C_R   0.523932 0.143853 0.438789 0.510919
C39   C     C_R   0.433372 0.773042 0.560253 -0.035354
C40   C     C_R   0.542848 0.222902 0.441132 -0.029503
H1    H     H_    0.820140 0.548786 0.418327 0.165073
H2    H     H_    0.184395 0.438056 0.577915 0.175817
H3    H     H_    0.540592 0.735024 0.386416 0.165720
H4    H     H_    0.391082 0.274566 0.588774 0.163124
H5    H     H_    0.410154 0.400470 0.702118 0.160508
H6    H     H_    0.630458 0.569316 0.302370 0.156578
N1    N     N_R   0.500030 0.500030 0.707230 -0.138711
N2    N     N_R   0.499970 0.499970 0.292770 -0.147266
O1    O     O_R   0.500000 0.389130 0.566570 -0.633138
O2    O     O_R   0.500000 0.610870 0.433430 -0.626659
O3    O     O_R   0.499990 0.389100 0.433480 -0.609742
O4    O     O_R   0.500010 0.610900 0.566520 -0.571381
O5    O     O_R   0.346360 0.500000 0.555540 -0.638273
O6    O     O_R   0.653640 0.500000 0.444460 -0.627489
O7    O     O_R   0.346350 0.499970 0.422460 -0.560744
O8    O     O_R   0.653650 0.500030 0.577540 -0.614313
Zn1   Zn    Zn3+2 0.500000 0.500020 0.588860 0.950438
Zn2   Zn    Zn3+2 0.500000 0.499980 0.411140 0.953243
O9    O     O_3   0.609834 0.607469 0.717209 -0.619719
C41   C     C_3   0.717781 0.589662 0.722808 -0.273880
H7    H     H_    0.747265 0.606411 0.666504 0.193652
H8    H     H_    0.737082 0.527910 0.731683 0.135934
H9    H     H_    0.761013 0.624524 0.771360 0.158684
O10   O     O_3   0.338680 0.435829 0.278638 -0.609311
C42   C     C_3   0.346454 0.355581 0.285051 -0.258190
H10   H     H_    0.423839 0.330398 0.274889 0.115705
H11   H     H_    0.284643 0.328663 0.242330 0.161190
H12   H     H_    0.330589 0.340225 0.346019 0.196349
C43   C     C_3   0.619552 0.614305 0.890357 -0.377342
C44   C     C_3   0.724851 0.581575 0.928393 -0.336625
C45   C     C_3   0.800548 0.645106 0.957750 -0.918578
H13   H     H_    0.827491 0.673932 0.906006 0.256178
H14   H     H_    0.761708 0.688225 0.993945 0.272957
H15   H     H_    0.869620 0.620666 0.994884 0.251464
H16   H     H_    0.712107 0.545377 0.979350 0.218970
H17   H     H_    0.761663 0.544394 0.884738 0.212614
H18   H     H_    0.632300 0.664585 0.853924 0.231351
H19   H     H_    0.573427 0.636599 0.937961 0.186595
C46   C     C_3   0.328227 0.429129 0.106238 -0.374501
C47   C     C_3   0.352281 0.346739 0.080111 -0.350640
C48   C     C_3   0.254508 0.309059 0.036910 -0.909897
H20   H     H_    0.191428 0.309395 0.076551 0.261205
H21   H     H_    0.226430 0.339846 0.981298 0.261136
H22   H     H_    0.272162 0.248706 0.020957 0.250264
H23   H     H_    0.414831 0.346424 0.040254 0.232200
H24   H     H_    0.381691 0.312135 0.132541 0.215671
H25   H     H_    0.257554 0.430480 0.138185 0.227909
H26   H     H_    0.307125 0.464265 0.052378 0.197378
C49   C     C_3   0.815685 0.388526 0.638394 -0.421619
C50   C     C_3   0.857364 0.305597 0.632906 -0.369950
C51   C     C_3   0.780309 0.248426 0.658765 -0.910065
H27   H     H_    0.764838 0.261499 0.721359 0.266320
H28   H     H_    0.705415 0.250473 0.618498 0.262567
H29   H     H_    0.813744 0.189668 0.655643 0.248095
H30   H     H_    0.872437 0.291177 0.570634 0.227916
H31   H     H_    0.932429 0.298302 0.671741 0.218156
H32   H     H_    0.823020 0.409073 0.701821 0.179426
H33   H     H_    0.731091 0.386023 0.618296 0.231381
C52   C     C_3   0.176214 0.602553 0.360997 -0.413975
C53   C     C_3   0.214506 0.671391 0.414297 -0.364062
C54   C     C_3   0.245110 0.737087 0.364235 -0.864380
H34   H     H_    0.311402 0.719382 0.331006 0.271849
H35   H     H_    0.177900 0.755253 0.320902 0.250580
H36   H     H_    0.268562 0.786766 0.404211 0.248086
H37   H     H_    0.151509 0.691939 0.449713 0.213148
H38   H     H_    0.282970 0.654680 0.456562 0.209930
H39   H     H_    0.240013 0.577404 0.329567 0.248081
H40   H     H_    0.119235 0.626864 0.313708 0.192122
C55   C     C_3   0.958490 0.538721 0.313745 -0.449428
C56   C     C_3   0.893713 0.467703 0.285509 -0.323478
C57   C     C_3   0.885046 0.454956 0.194643 -0.905585
H41   H     H_    0.861905 0.508796 0.163618 0.264035
H42   H     H_    0.961517 0.435179 0.176842 0.261190
H43   H     H_    0.825810 0.410724 0.175549 0.251511
H44   H     H_    0.930345 0.415632 0.313875 0.238742
H45   H     H_    0.813561 0.474982 0.302585 0.221006
H46   H     H_    0.908183 0.590659 0.313318 0.175408
H47   H     H_    0.012790 0.545927 0.268326 0.220467
C58   C     C_3   0.044252 0.431039 0.677772 -0.444799
C59   C     C_3   0.095647 0.503458 0.717173 -0.345082
C60   C     C_3   0.156408 0.486609 0.798591 -0.901615
H48   H     H_    0.103062 0.466001 0.840396 0.257712
H49   H     H_    0.217642 0.442517 0.791548 0.263450
H50   H     H_    0.194624 0.539453 0.824755 0.255957
H51   H     H_    0.150448 0.527458 0.678737 0.238316
H52   H     H_    0.034366 0.547472 0.725526 0.217088
H53   H     H_    0.995099 0.409425 0.721526 0.210150
H54   H     H_    0.103411 0.385396 0.670144 0.184230
O11   O     O_3   0.352586 0.890807 0.601591 -0.615103
C61   C     C_3   0.246445 0.900319 0.570600 -0.356144
H55   H     H_    0.236731 0.947053 0.526801 0.169358
H56   H     H_    0.201239 0.916642 0.620711 0.187706
H57   H     H_    0.211641 0.846967 0.542112 0.145893
O12   O     O_3   0.570309 0.095769 0.385996 -0.621645
C62   C     C_3   0.663128 0.064534 0.426417 -0.387943
H58   H     H_    0.702642 0.029160 0.382946 0.193303
H59   H     H_    0.646578 0.026817 0.475463 0.170095
H60   H     H_    0.718519 0.109566 0.450777 0.168317
C63   C     C_3   0.416271 0.740964 0.640892 -0.332153
C64   C     C_3   0.313435 0.697537 0.637455 -0.337101
C65   C     C_3   0.293922 0.673074 0.720840 -0.875277
H61   H     H_    0.352737 0.629418 0.743728 0.265568
H62   H     H_    0.297572 0.723005 0.763260 0.258493
H63   H     H_    0.214897 0.648470 0.717849 0.242900
H64   H     H_    0.247310 0.734671 0.612901 0.216091
H65   H     H_    0.314969 0.646026 0.597876 0.232417
H66   H     H_    0.483608 0.705553 0.665110 0.253107
H67   H     H_    0.415472 0.788106 0.686474 0.227995
C66   C     C_3   0.617708 0.254589 0.386997 -0.380392
C67   C     C_3   0.718450 0.282921 0.435503 -0.343884
C68   C     C_3   0.794021 0.312370 0.380865 -0.904286
H68   H     H_    0.819162 0.265331 0.341486 0.259435
H69   H     H_    0.755422 0.358227 0.343220 0.269749
H70   H     H_    0.864050 0.335846 0.417773 0.253255
H71   H     H_    0.701017 0.329798 0.477671 0.224339
H72   H     H_    0.756829 0.235467 0.470782 0.216727
H73   H     H_    0.639278 0.210662 0.342774 0.241430
H74   H     H_    0.579853 0.300879 0.349988 0.208086
C69   C     C_3   0.504431 0.886084 0.344662 -0.357870
C70   C     C_3   0.549483 0.836282 0.280056 -0.393724
C71   C     C_3   0.565933 0.883340 0.207525 -0.856256
H75   H     H_    0.490565 0.908571 0.180610 0.261552
H76   H     H_    0.622148 0.929901 0.225430 0.265320
H77   H     H_    0.597826 0.845983 0.161614 0.249388
H78   H     H_    0.626237 0.811686 0.305015 0.219625
H79   H     H_    0.494807 0.789273 0.259809 0.224473
H80   H     H_    0.430701 0.913347 0.316986 0.210989
H81   H     H_    0.560760 0.932084 0.363762 0.230583
C72   C     C_3   0.336326 0.128746 0.599439 -0.400542
C73   C     C_3   0.401604 0.095145 0.672924 -0.303428
C74   C     C_3   0.332170 0.067989 0.733652 -0.866928
H82   H     H_    0.285173 0.116514 0.754933 0.243891
H83   H     H_    0.278759 0.022934 0.706263 0.278131
H84   H     H_    0.381618 0.043962 0.786002 0.251524
H85   H     H_    0.449561 0.046011 0.654105 0.247038
H86   H     H_    0.455204 0.139361 0.702403 0.214840
H87   H     H_    0.284243 0.174863 0.619620 0.186723
H88   H     H_    0.284388 0.084544 0.568165 0.201700
C75   C     C_3   0.411853 0.367723 0.857936 -0.411562
C76   C     C_3   0.501384 0.310304 0.880377 -0.322134
C77   C     C_3   0.460890 0.231376 0.896022 -0.906615
H89   H     H_    0.414963 0.234013 0.947617 0.270022
H90   H     H_    0.411235 0.208962 0.842193 0.266499
H91   H     H_    0.527916 0.191311 0.910040 0.250282
H92   H     H_    0.550715 0.304291 0.830500 0.222922
H93   H     H_    0.551353 0.331496 0.934724 0.217831
H94   H     H_    0.370190 0.382967 0.910172 0.211852
H95   H     H_    0.353361 0.340815 0.812069 0.190252
C78   C     C_3   0.647711 0.597908 0.141370 -0.373274
C79   C     C_3   0.701747 0.656832 0.201475 -0.370034
C80   C     C_3   0.767342 0.712655 0.161551 -0.901937
H96   H     H_    0.831062 0.681470 0.134908 0.266896
H97   H     H_    0.717668 0.744476 0.114637 0.257965
H98   H     H_    0.803070 0.754526 0.207155 0.250936
H99   H     H_    0.641748 0.689755 0.230740 0.219613
H100  H     H_    0.754338 0.627065 0.247930 0.215616
H101  H     H_    0.707333 0.562747 0.114653 0.200861
H102  H     H_    0.602216 0.630228 0.092489 0.209297

loop_
_geom_bond_atom_site_label_1
_geom_bond_atom_site_label_2
_ccdc_geom_bond_type
C78   H102  S    
C62   H60   S    
C38   C40   A    
C74   H82   S    
C79   C80   S    
C48   H22   S    
C72   C73   S    
C43   H18   S    
C57   H41   S    
C24   C27   S    
C15   N1    A    
C8    C72   S    
C16   N2    A    
C46   H25   S    
C71   H75   S    
C55   H46   S    
C62   H58   S    
C73   H86   S    
C77   H89   S    
C59   C60   S    
C52   H40   S    
C74   H83   S    
C29   C36   A    
C63   H66   S    
C53   H37   S    
C54   H34   S    
C30   C35   A    
C41   H9    S    
C33   H2    S    
C29   C55   S    
C19   C21   A    
C65   H62   S    
C59   H52   S    
C7    C69   S    
C30   C58   S    
C24   O6    A    
O1    Zn1   S    
C69   H81   S    
C41   H8    S    
C68   H70   S    
C56   C57   S    
C60   H50   S    
C47   H24   S    
C2    O2    A    
C71   H76   S    
C14   C78   S    
C66   C67   S    
C73   C74   S    
C4    C40   A    
C37   O11   S    
C42   H11   S    
C68   H68   S    
C44   C45   S    
C31   C52   S    
C66   H74   S    
C18   C20   A    
C79   H100  S    
C58   H54   S    
C38   O12   S    
C5    H3    S    
C3    C39   A    
O9    C41   S    
C54   H35   S    
C67   H72   S    
C43   H19   S    
C43   C44   S    
C34   H1    S    
C10   C12   S    
C72   H87   S    
C46   H26   S    
C48   H21   S    
C55   H47   S    
C23   O5    A    
C73   H85   S    
C77   H90   S    
C27   C34   A    
C37   C39   A    
C74   H84   S    
C39   C63   S    
C63   H67   S    
C80   H96   S    
O2    Zn2   S    
C50   H30   S    
C64   C65   S    
C4    C6    A    
C76   H92   S    
C65   H63   S    
C16   H6    S    
C51   H27   S    
C5    C7    A    
O5    Zn1   S    
C59   H51   S    
C17   C19   A    
C6    C8    A    
C75   H95   S    
C25   C26   T    
C13   C75   S    
C48   H20   S    
C46   C47   S    
C49   H32   S    
C41   H7    S    
C35   C36   A    
C61   H56   S    
C80   H97   S    
C47   H23   S    
C51   H28   S    
C9    C11   S    
C69   C70   S    
C58   C59   S    
C42   H12   S    
C9    C37   A    
C13   C21   A    
C57   H42   S    
O3    Zn2   S    
C70   H78   S    
C50   H31   S    
C1    O3    A    
C60   H48   S    
C2    O4    A    
C79   H99   S    
C17   O9    S    
C20   C22   A    
C28   C33   A    
C54   H36   S    
C70   H79   S    
C67   H71   S    
C13   C15   A    
C32   C49   S    
C44   H17   S    
C14   C16   A    
C19   C43   S    
C61   H57   S    
C23   C28   S    
O8    Zn1   S    
C15   H5    S    
C64   H65   S    
C56   H45   S    
C72   H88   S    
C44   H16   S    
C71   H77   S    
C76   C77   S    
C45   H14   S    
O11   C61   S    
O6    Zn2   S    
C77   H91   S    
C78   H101  S    
C62   H59   S    
C21   C25   S    
C20   C46   S    
C27   C32   A    
C28   C31   A    
C17   N1    A    
C47   C48   S    
C3    C5    A    
C18   N2    A    
C64   H64   S    
C45   H15   S    
C63   C64   S    
N2    Zn2   S    
O12   C62   S    
C23   O7    A    
C24   O8    A    
C52   H39   S    
C53   H38   S    
C52   C53   S    
C10   C38   A    
C49   H33   S    
C76   H93   S    
C1    C4    S    
O10   C42   S    
C14   C22   A    
C2    C3    S    
C80   H98   S    
C45   H13   S    
C29   C31   A    
C65   H61   S    
C70   C71   S    
C51   H29   S    
C30   C32   A    
C18   O10   S    
C50   C51   S    
C1    O1    A    
C53   C54   S    
C33   C35   A    
C69   H80   S    
C40   C66   S    
C61   H55   S    
C57   H43   S    
C34   C36   A    
C68   H69   S    
C78   C79   S    
C60   H49   S    
O4    Zn1   S    
C75   C76   S    
C7    C9    A    
C75   H94   S    
C8    C10   A    
C42   H10   S    
C22   C26   S    
O7    Zn2   S    
N1    Zn1   S    
C67   C68   S    
C6    H4    S    
C49   C50   S    
C55   C56   S    
C66   H73   S    
C56   H44   S    
C11   C12   T    
C58   H53   S    
