data_mof_unit_10582.cif
_audit_creation_date              2012-12-11T16:56:07-0500
_audit_creation_method            fapswitch 2.2
_symmetry_space_group_name_H-M    P1
_symmetry_Int_Tables_number       1
_space_group_crystal_system       triclinic
_cell_length_a                    6.959201
_cell_length_b                    14.570911
_cell_length_c                    16.13018
_cell_angle_alpha                 90.491011
_cell_angle_beta                  89.672074
_cell_angle_gamma                 89.954508
_cell_volume                      1635.54344342

loop_
_atom_site_label
_atom_site_type_symbol
_atom_type_description
_atom_site_fract_x
_atom_site_fract_y
_atom_site_fract_z
_atom_type_partial_charge
O1    O     O_R   0.505830 0.583360 0.413880 -0.555274
O2    O     O_R   0.175830 0.595460 0.585520 -0.544912
O3    O     O_R   0.005520 0.416640 0.586120 -0.543852
C1    C     C_R   0.344117 0.617490 0.614444 0.739729
O4    O     O_R   0.176120 0.594390 0.414490 -0.538713
O5    O     O_R   0.005810 0.415570 0.413870 -0.540818
C2    C     C_R   0.345155 0.617369 0.386893 0.698760
O6    O     O_R   0.505540 0.584430 0.586130 -0.539464
O7    O     O_3   0.339200 0.441330 0.500000 -0.353647
V1    V     V_3+5 0.064350 0.510880 0.500000 1.435324
O8    O     O_R   0.676100 0.404540 0.414480 -0.523090
C3    C     C_R   0.845262 0.383850 0.384849 0.716705
O9    O     O_R   0.675810 0.405610 0.585510 -0.504434
C4    C     C_R   0.844346 0.382725 0.612856 0.750841
V2    V     V_3+5 0.564340 0.489120 0.500000 1.486799
O10   O     O_3   0.839360 0.558670 0.500000 -0.390696
C5    C     C_2   0.732815 0.199342 0.779122 -0.251020
C6    C     C_2   0.883610 0.191833 0.830975 0.168461
H1    H     H_    0.616486 0.149869 0.783456 0.089992
C7    C     C_2   0.706777 0.275451 0.718444 0.409699
C8    C     C_2   0.857985 0.309478 0.675481 -0.270828
H2    H     H_    0.000157 0.280721 0.684421 0.147264
C9    C     C_R   0.816098 0.267360 0.174260 -0.142243
C10   C     C_R   0.882912 0.178737 0.188137 -0.189308
C11   C     C_R   0.956842 0.160218 0.268751 0.319574
C12   C     C_R   0.944670 0.228605 0.331834 -0.153305
H3    H     H_    0.996534 0.212820 0.393302 0.140098
C13   C     C_R   0.859420 0.314968 0.317342 -0.146187
C14   C     C_R   0.810004 0.334789 0.235268 -0.073747
C15   C     C_3   0.647120 0.385039 0.193750 0.650517
C16   C     C_3   0.649300 0.306562 0.128049 0.683374
C17   C     C_R   0.504920 0.748655 0.689299 -0.021523
C18   C     C_R   0.351693 0.686565 0.682622 -0.121960
C19   C     C_R   0.212820 0.686901 0.746646 -0.239688
H4    H     H_    0.097424 0.637154 0.745354 0.120593
C20   C     C_R   0.231869 0.745300 0.816817 0.534282
C21   C     C_R   0.380481 0.810738 0.820501 -0.175897
C22   C     C_R   0.519283 0.809087 0.757454 -0.097097
C23   C     C_3   0.727459 0.783755 0.768160 0.834147
C24   C     C_3   0.713436 0.724797 0.689745 -0.494847
H5    H     H_    0.739540 0.650226 0.698369 0.146326
H6    H     H_    0.790061 0.753719 0.635287 0.173519
C25   C     C_R   0.493499 0.756301 0.318678 0.082824
C26   C     C_R   0.351949 0.688002 0.321296 -0.154654
C27   C     C_R   0.206982 0.692295 0.260526 -0.130068
H7    H     H_    0.089613 0.643829 0.261519 0.109216
C28   C     C_R   0.218731 0.755361 0.194608 -0.170312
H8    H     H_    0.109147 0.753849 0.147243 0.122813
C29   C     C_R   0.376576 0.815623 0.187287 -0.096843
C30   C     C_R   0.506413 0.817267 0.253318 0.054369
C31   C     C_3   0.720229 0.821511 0.257653 -0.370290
C32   C     C_3   0.706068 0.755726 0.330862 0.197766
H9    H     H_    0.772484 0.891256 0.274563 0.201573
H10   H     H_    0.789562 0.790227 0.202025 0.124569
H11   H     H_    0.776299 0.688155 0.320608 0.064870
O11   O     O_R   0.229930 0.912420 0.917160 -0.507045
O12   O     O_R   0.559420 0.902500 0.088780 -0.545395
O13   O     O_R   0.729660 0.081330 0.089380 -0.532469
C33   C     C_R   0.390183 0.880850 0.117471 0.683296
O14   O     O_R   0.559650 0.901420 0.917750 -0.521987
O15   O     O_R   0.729880 0.080250 0.917130 -0.546851
C34   C     C_R   0.391199 0.878662 0.889512 0.746670
O16   O     O_R   0.229700 0.913500 0.089410 -0.547190
O17   O     O_3   0.396250 0.055540 0.003280 -0.368087
V3    V     V_3+5 0.671130 0.986010 0.003260 1.504704
O18   O     O_R   0.059600 0.091310 0.917720 -0.544605
C35   C     C_R   0.891044 0.115368 0.891399 0.651126
O19   O     O_R   0.059370 0.092380 0.088750 -0.543153
C36   C     C_R   0.890618 0.112242 0.118740 0.688658
V4    V     V_3+5 0.171120 0.007820 0.003230 1.496808
O20   O     O_3   0.896130 0.938240 0.003240 -0.348611
O21   O     O_3   0.481731 0.250244 0.121029 -0.561711
C37   C     C_3   0.416216 0.208846 0.195160 -0.160624
H12   H     H_    0.283132 0.244036 0.215817 0.175331
H13   H     H_    0.518741 0.209337 0.247429 0.125752
H14   H     H_    0.380033 0.136157 0.181667 0.166625
O22   O     O_3   0.110496 0.735379 0.884041 -0.529179
C38   C     C_3   0.187501 0.668086 0.936669 -0.213204
H15   H     H_    0.331507 0.688578 0.960186 0.125461
H16   H     H_    0.195631 0.600016 0.904974 0.144887
H17   H     H_    0.090842 0.660875 0.991153 0.173092
O23   O     O_3   0.747371 0.733253 0.841794 -0.613967
H18   H     H_    0.807530 0.673126 0.828881 0.291630
O24   O     O_3   0.868525 0.854616 0.763620 -0.530483
C39   C     C_3   0.807329 0.933457 0.720674 -0.246165
H19   H     H_    0.695020 0.970898 0.756688 0.125558
H20   H     H_    0.755367 0.916186 0.657420 0.138725
H21   H     H_    0.931672 0.980420 0.713813 0.154511
O25   O     O_3   0.024806 0.258721 0.830851 -0.646761
H22   H     H_    0.115236 0.247192 0.876803 0.304106
O26   O     O_3   0.757042 0.798614 0.405624 -0.616627
H23   H     H_    0.739913 0.751633 0.449221 0.295951
O27   O     O_3   0.523987 0.308264 0.703128 -0.631630
H24   H     H_    0.432354 0.276567 0.740463 0.297209
O28   O     O_3   0.035883 0.076700 0.289950 -0.642803
H25   H     H_    0.027724 0.033482 0.242499 0.273606
O29   O     O_3   0.702025 0.469783 0.157863 -0.536766
C40   C     C_3   0.733698 0.537100 0.219284 -0.188545
H26   H     H_    0.773972 0.601895 0.188074 0.139172
H27   H     H_    0.854128 0.517829 0.260515 0.102914
H28   H     H_    0.601141 0.550840 0.255723 0.149593
O30   O     O_3   0.479024 0.390757 0.242263 -0.673888
H29   H     H_    0.378331 0.416069 0.205602 0.292895
O31   O     O_3   0.707761 0.337437 0.049645 -0.609886
H30   H     H_    0.730528 0.281732 0.015071 0.290063

loop_
_geom_bond_atom_site_label_1
_geom_bond_atom_site_label_2
_ccdc_geom_bond_type
C7    O27   S    
C24   H5    S    
O27   H24   S    
C37   H12   S    
O28   H25   S    
C1    O6    A    
O29   C40   S    
C28   C29   A    
O18   V4    S    
C39   H19   S    
C15   O29   S    
C12   H3    S    
C21   C22   A    
C3    C13   S    
C9    C14   A    
C4    C8    S    
C13   C14   A    
C23   O24   S    
C20   O22   S    
O5    C3    A    
C15   C16   S    
C38   H16   S    
C25   C32   S    
O12   C33   A    
V2    O10   S    
C5    C7    S    
O14   C34   A    
C19   H4    S    
C29   C30   A    
O8    V2    S    
O19   C36   A    
C9    C10   A    
V4    O20   S    
O1    V2    S    
O17   V4    S    
O7    V1    S    
C32   H11   S    
O22   C38   S    
C24   H6    S    
O18   C35   A    
O9    C4    A    
C37   H13   S    
O31   H30   S    
C10   C36   S    
C30   C31   S    
C27   C28   A    
C39   H20   S    
C31   C32   S    
O24   C39   S    
O26   H23   S    
O4    C2    A    
C38   H15   S    
C11   C12   A    
V3    O20   S    
O23   H18   S    
C31   H9    S    
C9    C16   S    
O2    C1    A    
C25   C26   A    
C14   C15   S    
O15   V3    S    
O15   C35   A    
O13   V3    S    
C28   H8    S    
O16   V4    S    
C15   O30   S    
C5    C6    D    
O13   C36   A    
C2    C26   S    
C10   C11   A    
O3    C4    A    
C16   O21   S    
O14   V3    S    
C11   O28   S    
O6    V2    S    
O11   V4    S    
O9    V2    S    
C37   H14   S    
O11   C34   A    
O2    V1    S    
C23   C24   S    
C26   C27   A    
C39   H21   S    
C1    C18   S    
C20   C21   A    
O1    C2    A    
C6    O25   S    
C12   C13   A    
C23   O23   S    
O12   V3    S    
O21   C37   S    
O5    V1    S    
O8    C3    A    
C25   C30   A    
C40   H28   S    
C33   O16   A    
C17   C22   A    
C29   C33   S    
C31   H10   S    
C16   O31   S    
C6    C35   S    
O4    V1    S    
O3    V1    S    
V1    O10   S    
C17   C18   A    
C38   H17   S    
C22   C23   S    
O17   V3    S    
C5    H1    S    
C18   C19   A    
C19   C20   A    
C17   C24   S    
O7    V2    S    
O30   H29   S    
C40   H27   S    
C27   H7    S    
C7    C8    D    
O19   V4    S    
C40   H26   S    
C21   C34   S    
C32   O26   S    
O25   H22   S    
C8    H2    S    
