data_mof_unit_26930.cif
_audit_creation_date              2012-12-10T19:12:19-0500
_audit_creation_method            fapswitch 2.2
_symmetry_space_group_name_H-M    P1
_symmetry_Int_Tables_number       1
_space_group_crystal_system       triclinic
_cell_length_a                    7.787227
_cell_length_b                    9.084678
_cell_length_c                    17.024117
_cell_angle_alpha                 89.46108
_cell_angle_beta                  94.408578
_cell_angle_gamma                 90.075746
_cell_volume                      1200.7450568

loop_
_atom_site_label
_atom_site_type_symbol
_atom_type_description
_atom_site_fract_x
_atom_site_fract_y
_atom_site_fract_z
_atom_type_partial_charge
C1    C     C_R   0.499919 0.220043 0.500014 0.865775
C2    C     C_R   0.500081 0.779957 0.499986 0.865757
C3    C     C_R   0.522026 0.497963 0.651322 0.950771
C4    C     C_R   0.477974 0.502035 0.348677 0.950724
C5    C     C_R   0.537421 0.498469 0.737541 -0.326386
C6    C     C_R   0.462575 0.501476 0.262456 -0.326438
C7    C     C_R   0.449932 0.605811 0.778188 0.241504
C8    C     C_R   0.550128 0.394156 0.221826 0.241610
C9    C     C_R   0.465815 0.607797 0.860581 0.375277
C10   C     C_R   0.534209 0.392095 0.139434 0.375261
C11   C     C_R   0.561918 0.496482 0.902848 0.068762
C12   C     C_R   0.438014 0.503328 0.097148 0.068699
C13   C     C_R   0.654006 0.393080 0.862223 0.305626
C14   C     C_R   0.345852 0.606697 0.137757 0.305651
C15   C     C_R   0.641766 0.393234 0.779674 0.258680
C16   C     C_R   0.358124 0.606613 0.220305 0.258669
C17   C     C_1   0.499908 0.065391 0.500005 -0.075761
C18   C     C_1   0.500092 0.934608 0.499995 -0.075775
Cu1   Cu    Cu3+1 0.669080 0.500010 0.500000 1.119945
Cu2   Cu    Cu3+1 0.330920 0.499990 0.500000 1.119939
N1    N     N_1   0.076820 0.499970 0.500010 -0.005143
N2    N     N_1   0.923180 0.500030 0.499990 -0.005141
N3    N     N_2   0.570072 0.486820 0.986152 -0.094739
N4    N     N_2   0.429861 0.512961 0.013843 -0.094721
O1    O     O_R   0.642760 0.288400 0.500000 -0.556579
O2    O     O_R   0.357240 0.711600 0.500000 -0.556594
O3    O     O_R   0.357190 0.288380 0.500000 -0.585705
O4    O     O_R   0.642810 0.711620 0.500000 -0.585698
O5    O     O_R   0.658410 0.498660 0.613920 -0.556101
O6    O     O_R   0.341590 0.501340 0.386080 -0.556081
O7    O     O_R   0.372840 0.498650 0.613930 -0.551937
O8    O     O_R   0.627160 0.501350 0.386070 -0.551918
Cl1   Cl    Cl    0.674871 0.256027 0.272915 -0.496105
Cl2   Cl    Cl    0.325282 0.744024 0.727117 -0.496189
O9    O     O_3   0.618644 0.284056 0.100601 -0.488138
C19   C     C_3   0.500945 0.169734 0.080787 -0.062172
H1    H     H_    0.571118 0.079589 0.053661 0.192712
H2    H     H_    0.396878 0.207669 0.036850 0.158826
H3    H     H_    0.444684 0.123207 0.133873 0.182440
O10   O     O_3   0.381413 0.715818 0.899442 -0.488168
C20   C     C_3   0.499105 0.830165 0.919219 -0.062177
H4    H     H_    0.603536 0.792172 0.962960 0.158706
H5    H     H_    0.429054 0.920122 0.946567 0.192634
H6    H     H_    0.554876 0.876958 0.866078 0.182756
Cl3   Cl    Cl    0.779669 0.258845 0.915764 -0.443624
Cl4   Cl    Cl    0.220046 0.740804 0.084195 -0.443470
Cl5   Cl    Cl    0.749963 0.255570 0.729661 -0.477997
Cl6   Cl    Cl    0.249824 0.744246 0.270294 -0.477964

loop_
_geom_bond_atom_site_label_1
_geom_bond_atom_site_label_2
_ccdc_geom_bond_type
C3    O7    A    
N3    N4    D    
C8    C10   A    
C10   O9    S    
Cu2   O3    S    
C2    C18   S    
C9    C11   A    
C20   H4    S    
C12   N4    S    
C1    C17   S    
O9    C19   S    
C15   Cl5   S    
C16   Cl6   S    
C19   H2    S    
C17   C18   T    
C14   Cl4   S    
Cu2   O6    S    
N1    N2    T    
C1    O1    A    
Cu1   O4    S    
C20   H5    S    
C3    O5    A    
C4    O8    A    
C10   C12   A    
Cu1   O8    S    
C11   N3    S    
C19   H1    S    
C7    Cl2   S    
C12   C14   A    
C5    C7    A    
C8    Cl1   S    
C13   C15   A    
Cu1   O1    S    
C20   H6    S    
C14   C16   A    
C5    C15   A    
C4    C6    S    
C2    O4    A    
C6    C16   A    
Cu1   O5    S    
C7    C9    A    
C11   C13   A    
Cu1   N2    S    
Cu2   N1    S    
C13   Cl3   S    
C2    O2    A    
C1    O3    A    
O10   C20   S    
C6    C8    A    
C3    C5    S    
C19   H3    S    
C9    O10   S    
C4    O6    A    
Cu1   Cu2   S    
Cu2   O2    S    
Cu2   O7    S    
