data_mof_unit_21616.cif
_audit_creation_date              2012-10-26T18:49:07-0400
_audit_creation_method            fapswitch 2.2
_symmetry_space_group_name_H-M    P1
_symmetry_Int_Tables_number       1
_space_group_crystal_system       triclinic
_cell_length_a                    10.768991
_cell_length_b                    10.919838
_cell_length_c                    9.681934
_cell_angle_alpha                 90.02562
_cell_angle_beta                  90.097813
_cell_angle_gamma                 90.559223
_cell_volume                      1138.49718539

loop_
_atom_site_label
_atom_site_type_symbol
_atom_type_description
_atom_site_fract_x
_atom_site_fract_y
_atom_site_fract_z
_atom_type_partial_charge
C1    C     C_R   0.503234 0.265394 0.499964 0.590401
C2    C     C_2   0.425568 0.431517 0.077698 -0.000471
C3    C     C_R   0.259725 0.500692 0.500056 0.620428
C4    C     C_R   0.498734 0.734700 0.500123 0.613473
C5    C     C_R   0.739554 0.509907 0.500465 0.560913
C6    C     C_3   0.064853 0.374487 0.468934 0.076541
C7    C     C_3   0.921530 0.383210 0.464381 -0.249825
C8    C     C_3   0.073712 0.545902 0.645156 -0.170872
C9    C     C_3   0.072399 0.594246 0.385561 0.060575
C10   C     C_3   0.121491 0.504420 0.501104 -0.040423
C11   C     C_3   0.877306 0.514062 0.502141 -0.057230
C12   C     C_3   0.930802 0.551208 0.647944 0.122716
C13   C     C_3   0.928980 0.603899 0.392465 -0.228842
C14   C     C_2   0.501991 0.933004 0.386468 -0.101992
C15   C     C_2   0.492582 0.866690 0.502391 -0.029355
C16   C     C_2   0.496497 0.066951 0.386569 -0.119472
C17   C     C_2   0.510212 0.133443 0.501988 -0.062858
C18   C     C_2   0.422827 0.434582 0.921890 -0.007135
Cu1   Cu    Cu3+1 0.500030 0.500020 0.638630 1.066506
Cu2   Cu    Cu3+1 0.499970 0.499980 0.361370 1.014043
H1    H     H_    0.897974 0.697879 0.416460 0.226990
H2    H     H_    0.097623 0.346101 0.364807 0.121049
H3    H     H_    0.556980 0.560516 0.106138 0.214884
H4    H     H_    0.889005 0.358618 0.358574 0.123676
H5    H     H_    0.876865 0.315698 0.535163 0.193796
H6    H     H_    0.105497 0.482396 0.727149 0.177185
H7    H     H_    0.897641 0.482245 0.724426 0.173939
H8    H     H_    0.093796 0.551310 0.284071 0.121393
H9    H     H_    0.889751 0.581728 0.288859 0.117781
H10   H     H_    0.059425 0.191911 0.790578 0.384692
H11   H     H_    0.904458 0.789526 0.912535 0.372775
H12   H     H_    0.116505 0.634909 0.673874 0.219552
H13   H     H_    0.027837 0.823631 0.221299 0.339338
H14   H     H_    0.511944 0.888254 0.286918 0.166206
H15   H     H_    0.477008 0.907763 0.602496 0.126328
H16   H     H_    0.482544 0.111551 0.287540 0.155985
H17   H     H_    0.529057 0.092549 0.601495 0.115060
H18   H     H_    0.353280 0.378403 0.870245 0.172311
H19   H     H_    0.567344 0.549172 0.894113 0.230810
H20   H     H_    0.361218 0.369606 0.129044 0.142915
N1    N     N_2   0.498630 0.498660 0.846910 -0.346351
N2    N     N_2   0.498590 0.498630 0.153040 -0.341335
O1    O     O_R   0.500020 0.321960 0.617040 -0.475214
O2    O     O_2   0.245711 0.252200 0.611198 -0.286515
O3    O     O_3   0.033407 0.264186 0.736371 -0.568061
O4    O     O_2   0.948841 0.801725 0.638425 -0.205431
O5    O     O_2   0.746695 0.718190 0.705604 -0.279120
O6    O     O_3   0.926726 0.706063 0.881744 -0.539294
O7    O     O_2   0.194848 0.785131 0.514668 -0.224754
O8    O     O_2   0.254172 0.737903 0.277709 -0.272953
O9    O     O_3   0.046935 0.849166 0.317274 -0.449657
O10   O     O_R   0.499980 0.321920 0.382900 -0.510084
O11   O     O_R   0.317710 0.500000 0.617070 -0.483767
O12   O     O_R   0.317670 0.499960 0.382930 -0.481360
O13   O     O_R   0.500020 0.678080 0.617100 -0.462821
O14   O     O_R   0.499980 0.678040 0.382960 -0.478524
O15   O     O_R   0.682330 0.500040 0.617070 -0.470382
O16   O     O_R   0.682290 0.500000 0.382930 -0.520603
O17   O     O_2   0.072406 0.132163 0.518743 -0.189722
S1    S     S_3+6 0.108558 0.251911 0.584869 -0.009481
S2    S     S_3+6 0.884286 0.699621 0.714634 -0.005294
S3    S     S_3+6 0.146881 0.743884 0.376432 0.046937

loop_
_geom_bond_atom_site_label_1
_geom_bond_atom_site_label_2
_ccdc_geom_bond_type
O5    S2    D    
Cu2   N2    S    
C11   C12   S    
O3    S1    S    
C14   H14   S    
C6    C7    S    
C2    H20   S    
C2    C18   S    
C11   C13   S    
C9    C10   S    
H10   O3    S    
C1    C17   S    
Cu1   Cu2   S    
C7    H5    S    
C5    O15   A    
C8    C12   S    
Cu1   O11   S    
C4    C15   S    
C18   H18   S    
C13   H1    S    
O17   S1    D    
H19   N1    S    
C3    C10   S    
C17   H17   S    
C16   H16   S    
C7    C11   S    
C12   S2    S    
C3    O11   A    
Cu1   N1    S    
O6    S2    S    
H3    N2    S    
C5    O16   A    
C2    N2    D    
O9    S3    S    
C13   H9    S    
C1    O10   A    
O2    S1    D    
C5    C11   S    
H11   O6    S    
C4    O13   A    
O8    S3    D    
C3    O12   A    
C14   C16   S    
H13   O9    S    
C6    C10   S    
O4    S2    D    
Cu2   O16   S    
C9    S3    S    
C8    H12   S    
C6    S1    S    
C4    O14   A    
C8    H6    S    
Cu2   O12   S    
C18   N1    D    
Cu1   O13   S    
C15   H15   S    
C9    C13   S    
Cu2   O10   S    
Cu2   O14   S    
O7    S3    D    
C12   H7    S    
C14   C15   D    
C1    O1    A    
C8    C10   S    
Cu1   O15   S    
C7    H4    S    
C9    H8    S    
Cu1   O1    S    
C16   C17   D    
C6    H2    S    
