data_mof_unit_49519.cif
_audit_creation_date              2012-12-10T19:45:41-0500
_audit_creation_method            fapswitch 2.2
_symmetry_space_group_name_H-M    P1
_symmetry_Int_Tables_number       1
_space_group_crystal_system       triclinic
_cell_length_a                    10.822357
_cell_length_b                    14.667915
_cell_length_c                    14.915029
_cell_angle_alpha                 64.807773
_cell_angle_beta                  103.825369
_cell_angle_gamma                 103.13041
_cell_volume                      2059.0525617

loop_
_atom_site_label
_atom_site_type_symbol
_atom_type_description
_atom_site_fract_x
_atom_site_fract_y
_atom_site_fract_z
_atom_type_partial_charge
C1    C     C_R   0.476164 0.119835 0.312920 0.834790
C2    C     C_R   0.523835 0.880166 0.687080 0.834800
C3    C     C_R   0.870781 0.001187 0.496471 -0.062137
C4    C     C_R   0.129220 0.998817 0.503523 -0.062138
C5    C     C_R   0.906153 0.964146 0.434237 0.026315
C6    C     C_R   0.093848 0.035854 0.565758 0.026300
C7    C     C_R   0.447314 0.187283 0.207222 -0.091756
C8    C     C_R   0.552702 0.812721 0.792777 -0.091761
C9    C     C_R   0.317638 0.222075 0.043150 0.165135
C10   C     C_R   0.682426 0.777936 0.956825 0.165134
C11   C     C_R   0.352245 0.154576 0.141376 -0.207222
C12   C     C_R   0.647788 0.845433 0.858605 -0.207242
C13   C     C_R   0.506970 0.288009 0.174708 -0.162545
C14   C     C_R   0.493059 0.711992 0.825302 -0.162556
C15   C     C_R   0.463259 0.361034 0.080994 0.071532
C16   C     C_R   0.536801 0.638972 0.919009 0.071544
C17   C     C_R   0.374811 0.325301 0.011825 0.066228
C18   C     C_R   0.625265 0.674709 0.988163 0.066219
C19   C     C_R   0.511606 0.467024 0.051884 0.014054
C20   C     C_R   0.488474 0.532981 0.948124 0.014053
C21   C     C_R   0.418843 0.489448 0.878202 0.128584
C22   C     C_R   0.581270 0.510560 0.121798 0.128583
C23   C     C_R   0.262795 0.999085 0.502035 0.811795
C24   C     C_R   0.737205 0.000915 0.497964 0.811802
C25   C     C_R   0.354174 0.390730 0.911353 -0.193325
C26   C     C_R   0.645937 0.609277 0.088632 -0.193333
C27   C     C_R   0.738873 0.298155 0.644814 -0.291160
C28   C     C_R   0.261143 0.701859 0.355162 -0.291173
C29   C     C_R   0.695798 0.211169 0.624363 0.094852
C30   C     C_R   0.304204 0.788835 0.375632 0.094845
C31   C     C_R   0.509192 0.279826 0.518823 0.059490
C32   C     C_R   0.490816 0.720179 0.481168 0.059527
C33   C     C_R   0.547294 0.370564 0.536812 -0.013118
C34   C     C_R   0.452729 0.629452 0.463158 -0.013119
C35   C     C_R   0.666487 0.378948 0.599612 0.151628
C36   C     C_R   0.333540 0.621072 0.400351 0.151609
C37   C     C_R   0.474504 0.453981 0.492090 0.089353
C38   C     C_R   0.525530 0.546042 0.507865 0.089338
C39   C     C_R   0.646964 0.551293 0.568446 -0.200203
C40   C     C_R   0.353085 0.448741 0.431487 -0.200202
C41   C     C_R   0.714446 0.468698 0.614773 -0.156451
C42   C     C_R   0.285600 0.531335 0.385164 -0.156497
C43   C     C_R   0.339975 0.035139 0.795080 -0.108655
C44   C     C_R   0.659992 0.964754 0.204941 -0.108660
C45   C     C_R   0.247989 0.999824 0.729024 0.165319
C46   C     C_R   0.751972 0.000110 0.270978 0.165344
C47   C     C_R   0.188267 0.070091 0.639114 0.086140
C48   C     C_R   0.811732 0.929871 0.360901 0.086143
C49   C     C_R   0.218434 0.174609 0.618794 -0.174251
C50   C     C_R   0.781614 0.825340 0.381247 -0.174304
C51   C     C_R   0.309214 0.208967 0.685818 -0.123840
C52   C     C_R   0.690847 0.790941 0.314240 -0.123865
C53   C     C_R   0.370952 0.139406 0.773281 -0.106210
C54   C     C_R   0.629065 0.860474 0.226768 -0.106227
C55   C     C_R   0.964679 0.037375 0.560773 -0.196652
C56   C     C_R   0.035324 0.962635 0.439217 -0.196659
Cu1   Cu    Cu3+1 0.466270 0.918260 0.475690 0.968813
Cu2   Cu    Cu3+1 0.533730 0.081740 0.524310 0.968806
H1    H     H_    0.441793 0.166243 0.824781 0.155049
H2    H     H_    0.558234 0.833607 0.175283 0.155046
H3    H     H_    0.806605 0.475928 0.661579 0.156618
H4    H     H_    0.193452 0.524112 0.338344 0.156623
H5    H     H_    0.829618 0.303147 0.693871 0.160920
H6    H     H_    0.170402 0.696870 0.306099 0.160925
H7    H     H_    0.692923 0.618518 0.581965 0.141156
H8    H     H_    0.307142 0.381528 0.417942 0.141162
H9    H     H_    0.172466 0.229440 0.550553 0.139500
H10   H     H_    0.827615 0.770533 0.449493 0.139514
H11   H     H_    0.332425 0.289633 0.669575 0.161158
H12   H     H_    0.667680 0.710266 0.330504 0.161181
H13   H     H_    0.297899 0.362476 0.855712 0.194322
H14   H     H_    0.702249 0.637533 0.144262 0.194327
H15   H     H_    0.695322 0.923430 0.833742 0.174188
H16   H     H_    0.304705 0.076580 0.166230 0.174187
N1    N     N_R   0.584450 0.204570 0.560790 -0.181838
N2    N     N_R   0.415550 0.795430 0.439210 -0.181845
O1    O     O_R   0.455540 0.022090 0.338120 -0.590948
O2    O     O_R   0.544460 0.977910 0.661880 -0.590955
O3    O     O_R   0.512510 0.160150 0.379180 -0.561466
O4    O     O_R   0.487490 0.839850 0.620820 -0.561453
O5    O     O_R   0.291160 0.930970 0.479480 -0.586949
O6    O     O_R   0.708840 0.069030 0.520520 -0.586948
O7    O     O_R   0.348130 0.069020 0.520540 -0.588321
O8    O     O_R   0.651870 0.930980 0.479460 -0.588317
I1    I     I_    0.176233 0.161031 0.949062 -0.376236
I2    I     I_    0.823880 0.838990 0.050884 -0.376200
I3    I     I_    0.431048 0.546308 0.723097 -0.434878
I4    I     I_    0.569168 0.453708 0.276927 -0.434894
H17   H     H_    0.577015 0.731524 0.531122 0.137623
H18   H     H_    0.422985 0.268472 0.468879 0.137593
H19   H     H_    0.247217 0.850503 0.342436 0.129412
H20   H     H_    0.752781 0.149497 0.657565 0.129410
H21   H     H_    0.386735 0.981648 0.863891 0.154987
H22   H     H_    0.613207 0.018221 0.136122 0.154986
I5    I     I_    0.198326 0.840293 0.771017 -0.384876
I6    I     I_    0.801584 0.159655 0.228934 -0.384866
H23   H     H_    0.937226 0.064388 0.609573 0.156167
H24   H     H_    0.062777 0.935625 0.390416 0.156165
H25   H     H_    0.408516 0.693102 0.777856 0.197969
H26   H     H_    0.591510 0.306883 0.222165 0.197984

loop_
_geom_bond_atom_site_label_1
_geom_bond_atom_site_label_2
_ccdc_geom_bond_type
C21   I3    S    
C52   H12   S    
C27   C29   A    
C1    O1    A    
C5    C56   A    
C36   C42   A    
C19   C20   A    
C18   C26   A    
C41   H3    S    
C6    C55   A    
C53   H1    S    
C14   H25   S    
C39   C41   A    
C54   H2    S    
C15   C19   A    
C23   O7    A    
Cu1   N2    S    
C37   C40   A    
Cu2   O6    S    
C38   C39   A    
C33   C35   A    
C30   N2    A    
C24   O6    A    
C9    I1    S    
C3    C55   A    
C43   C53   A    
C52   C54   A    
C49   C51   A    
C50   C52   A    
C31   C33   A    
C25   H13   S    
C56   H24   S    
C49   H9    S    
C42   H4    S    
C16   C20   A    
C40   C42   A    
C40   H8    S    
C12   H15   S    
C4    C56   A    
C39   H7    S    
Cu1   O4    S    
C3    C24   S    
C44   C46   A    
Cu2   N1    S    
C45   C47   A    
C5    C48   S    
C46   C48   A    
C6    C47   S    
Cu1   O1    S    
C19   C22   A    
C44   H22   S    
C4    C6    A    
C4    C23   S    
C27   C35   A    
C33   C37   A    
C51   C53   A    
C34   C38   A    
C7    C11   A    
C37   C38   A    
C2    O2    A    
C9    C11   A    
C31   N1    A    
C32   H17   S    
C8    C12   A    
C31   H18   S    
C55   H23   S    
Cu1   O8    S    
C26   H14   S    
C43   C45   A    
C10   C12   A    
Cu2   O3    S    
C28   H6    S    
C9    C17   A    
C22   I4    S    
C13   C15   A    
C1    O3    A    
C14   C16   A    
C45   I5    S    
C15   C17   A    
C21   C25   A    
C10   I2    S    
C8    C14   A    
C23   O5    A    
C1    C7    S    
C2    C8    S    
C30   H19   S    
C3    C5    A    
C11   H16   S    
C32   N2    A    
C29   N1    A    
C47   C49   A    
C17   C25   A    
C13   H26   S    
C28   C30   A    
C24   O8    A    
Cu2   O7    S    
Cu1   Cu2   S    
C10   C18   A    
C48   C50   A    
C43   H21   S    
C34   C36   A    
C35   C41   A    
Cu1   O5    S    
C2    O4    A    
Cu2   O2    S    
C44   C54   A    
C7    C13   A    
C46   I6    S    
C20   C21   A    
C28   C36   A    
C16   C18   A    
C22   C26   A    
C27   H5    S    
C51   H11   S    
C50   H10   S    
C29   H20   S    
C32   C34   A    
