data_mof_unit_18824.cif
_audit_creation_date              2012-12-10T17:43:34-0500
_audit_creation_method            fapswitch 2.2
_symmetry_space_group_name_H-M    P1
_symmetry_Int_Tables_number       1
_space_group_crystal_system       triclinic
_cell_length_a                    14.99978
_cell_length_b                    10.628186
_cell_length_c                    9.912683
_cell_angle_alpha                 89.9295
_cell_angle_beta                  89.956407
_cell_angle_gamma                 91.68891
_cell_volume                      1579.59620276

loop_
_atom_site_label
_atom_site_type_symbol
_atom_type_description
_atom_site_fract_x
_atom_site_fract_y
_atom_site_fract_z
_atom_type_partial_charge
C1    C     C_R   0.502345 0.260729 0.500098 0.852355
C2    C     C_R   0.907231 0.493302 0.376053 0.117271
C3    C     C_R   0.953141 0.480768 0.746039 -0.226557
C4    C     C_R   0.045767 0.480160 0.746061 -0.219360
C5    C     C_R   0.092382 0.484575 0.623637 0.119117
C6    C     C_R   0.046147 0.487816 0.499829 0.060341
C7    C     C_R   0.092674 0.491934 0.376072 0.119168
C8    C     C_R   0.046393 0.494901 0.253560 -0.219017
C9    C     C_R   0.953789 0.495650 0.253554 -0.220434
C10   C     C_R   0.184647 0.487272 0.622810 -0.264798
C11   C     C_R   0.230645 0.493583 0.500029 -0.074555
C12   C     C_R   0.326684 0.498461 0.500052 0.879263
C13   C     C_R   0.184905 0.494508 0.377088 -0.268317
C14   C     C_R   0.651907 0.137367 0.624209 -0.173077
C15   C     C_R   0.721896 0.074546 0.684350 -0.131585
C16   C     C_R   0.721976 0.943610 0.684208 -0.137606
C17   C     C_R   0.652105 0.875038 0.623827 -0.189496
C18   C     C_R   0.580040 0.937315 0.563697 0.094452
C19   C     C_R   0.579916 0.069232 0.563925 0.097978
C20   C     C_R   0.508471 0.128691 0.499886 -0.086112
C21   C     C_R   0.441078 0.061870 0.432447 -0.215315
C22   C     C_R   0.441221 0.933334 0.432209 -0.198155
C23   C     C_R   0.502652 0.739453 0.499885 0.874386
C24   C     C_R   0.508742 0.872018 0.499414 -0.100206
C25   C     C_R   0.382348 0.335968 0.140394 -0.160823
C26   C     C_R   0.324057 0.255629 0.070361 -0.202260
C27   C     C_R   0.324060 0.255601 0.930716 -0.195278
C28   C     C_R   0.382388 0.335867 0.860289 -0.158167
C29   C     C_R   0.442007 0.419165 0.927860 0.168571
C30   C     C_R   0.442003 0.419220 0.072460 0.171569
C31   C     C_R   0.555589 0.577165 0.071322 -0.116413
C32   C     C_R   0.555566 0.577143 0.928195 -0.116273
C33   C     C_R   0.673296 0.499488 0.499950 0.864997
C34   C     C_R   0.815129 0.496782 0.377042 -0.251397
C35   C     C_R   0.769181 0.495532 0.499922 -0.073174
C36   C     C_R   0.814771 0.489207 0.622721 -0.279979
C37   C     C_R   0.906890 0.485770 0.623598 0.121522
C38   C     C_R   0.953403 0.488470 0.499815 0.061597
H1    H     H_    0.779466 0.501130 0.282077 0.161880
H2    H     H_    0.655658 0.239047 0.623769 0.153571
H3    H     H_    0.776658 0.127685 0.729984 0.139816
H4    H     H_    0.776791 0.894999 0.729768 0.137563
H5    H     H_    0.387526 0.881265 0.382080 0.154068
H6    H     H_    0.601018 0.640225 0.124919 0.146680
H7    H     H_    0.378720 0.329864 0.247357 0.199320
H8    H     H_    0.278773 0.192774 0.124974 0.148565
H9    H     H_    0.278750 0.192750 0.876422 0.152241
H10   H     H_    0.378830 0.329701 0.753317 0.203819
H11   H     H_    0.778815 0.487422 0.717722 0.162157
H12   H     H_    0.600960 0.640217 0.874244 0.143890
H13   H     H_    0.917768 0.478304 0.841452 0.141049
H14   H     H_    0.080908 0.477268 0.841489 0.144593
H15   H     H_    0.220412 0.485350 0.717831 0.166800
H16   H     H_    0.220851 0.498387 0.282105 0.167623
H17   H     H_    0.081776 0.497674 0.158150 0.144205
H18   H     H_    0.918671 0.498956 0.158132 0.140759
H19   H     H_    0.387301 0.109501 0.382419 0.139249
N1    N     N_R   0.499150 0.498800 0.142780 -0.122522
N2    N     N_R   0.499120 0.498720 0.857170 -0.122144
O1    O     O_R   0.500000 0.316780 0.614690 -0.640916
O2    O     O_R   0.499990 0.316750 0.385360 -0.628893
O3    O     O_R   0.367850 0.499980 0.614680 -0.639911
O4    O     O_R   0.367840 0.499960 0.385350 -0.644916
O5    O     O_R   0.500010 0.683250 0.614640 -0.614076
O6    O     O_R   0.500000 0.683220 0.385310 -0.611393
O7    O     O_R   0.632160 0.500040 0.614650 -0.639029
O8    O     O_R   0.632150 0.500020 0.385320 -0.619817
Zn1   Zn    Zn3+2 0.500010 0.500020 0.653130 0.930423
Zn2   Zn    Zn3+2 0.499990 0.499980 0.346870 0.938045
H20   H     H_    0.656001 0.773619 0.622999 0.143065

loop_
_geom_bond_atom_site_label_1
_geom_bond_atom_site_label_2
_ccdc_geom_bond_type
C14   C19   A    
C7    C13   A    
O7    Zn1   S    
C23   C24   S    
C6    C38   A    
N1    Zn2   S    
C21   H19   S    
C29   C30   A    
C16   H4    S    
N2    Zn1   S    
C12   O3    A    
C2    C38   A    
C19   C20   A    
O3    Zn1   S    
C11   C12   S    
C23   O6    A    
C17   C18   A    
C17   H20   S    
C9    H18   S    
C31   C32   A    
C21   C22   A    
C36   H11   S    
C11   C13   A    
C32   H12   S    
C26   C27   A    
C37   C38   A    
C4    H14   S    
C18   C24   A    
C30   N1    A    
C31   N1    A    
C5    C10   A    
C23   O5    A    
C33   C35   S    
C14   H2    S    
C8    H17   S    
C33   O7    A    
C34   C35   A    
C6    C7    A    
O5    Zn1   S    
O4    Zn2   S    
C5    C6    A    
C2    C34   A    
C22   C24   A    
C7    C8    A    
C10   C11   A    
C26   H8    S    
C15   H3    S    
C27   H9    S    
C15   C16   A    
C28   C29   A    
C16   C17   A    
C25   H7    S    
C27   C28   A    
C18   C19   A    
C20   C21   A    
O1    Zn1   S    
C36   C37   A    
C13   H16   S    
C31   H6    S    
C1    O1    A    
O2    Zn2   S    
C25   C30   A    
O6    Zn2   S    
C12   O4    A    
C3    H13   S    
C14   C15   A    
C4    C5    A    
C1    C20   S    
C35   C36   A    
C32   N2    A    
C25   C26   A    
C2    C9    A    
C33   O8    A    
C34   H1    S    
C10   H15   S    
C28   H10   S    
C3    C4    A    
C29   N2    A    
C3    C37   A    
C8    C9    A    
O8    Zn2   S    
C22   H5    S    
C1    O2    A    
