data_mof_unit_24270.cif
_audit_creation_date              2012-10-26T18:27:11-0400
_audit_creation_method            fapswitch 2.2
_symmetry_space_group_name_H-M    P1
_symmetry_Int_Tables_number       1
_space_group_crystal_system       triclinic
_cell_length_a                    15.061618
_cell_length_b                    10.910992
_cell_length_c                    9.734887
_cell_angle_alpha                 89.616158
_cell_angle_beta                  89.586176
_cell_angle_gamma                 90.37612
_cell_volume                      1599.69140036

loop_
_atom_site_label
_atom_site_type_symbol
_atom_type_description
_atom_site_fract_x
_atom_site_fract_y
_atom_site_fract_z
_atom_type_partial_charge
Br1   Br    Br    0.351955 0.144248 0.312120 -0.545072
Br2   Br    Br    0.254321 0.720713 0.668716 -0.533595
C1    C     C_R   0.498194 0.265505 0.500158 0.579131
C2    C     C_R   0.187387 0.431062 0.412366 -0.145708
C3    C     C_R   0.232519 0.507536 0.502006 0.010395
C4    C     C_R   0.329090 0.503317 0.500489 0.604486
C5    C     C_R   0.186296 0.586791 0.590769 0.134981
C6    C     C_2   0.464701 0.937927 0.390678 -0.004088
C7    C     C_2   0.481480 0.866962 0.501784 -0.093915
C8    C     C_2   0.448563 0.069364 0.411092 0.151485
C9    C     C_2   0.499646 0.133239 0.498220 -0.092353
C10   C     C_2   0.501966 0.401198 0.923035 -0.023878
C11   C     C_2   0.485184 0.403675 0.075823 0.023215
C12   C     C_R   0.904552 0.565351 0.596194 -0.007009
C13   C     C_R   0.496053 0.734892 0.499508 0.570112
C14   C     C_R   0.670918 0.495518 0.499560 0.534339
C15   C     C_R   0.812436 0.563223 0.592529 -0.147925
C16   C     C_R   0.767586 0.489070 0.499277 0.009913
C17   C     C_R   0.815075 0.411230 0.409475 -0.014069
C18   C     C_R   0.909022 0.418332 0.407575 0.036475
C19   C     C_R   0.953557 0.495125 0.502693 0.045295
C20   C     C_3   0.557509 0.596847 0.103452 -0.204182
C21   C     C_3   0.767368 0.316349 0.322909 -0.389934
C22   C     C_3   0.078513 0.701379 0.826995 -0.354092
C23   C     C_R   0.959795 0.349701 0.314042 -0.127092
C24   C     C_3   0.463377 0.890228 0.245309 -0.330856
C25   C     C_R   0.051777 0.354806 0.316257 -0.116566
C26   C     C_R   0.095533 0.429234 0.410691 0.004743
C27   C     C_R   0.047141 0.500971 0.504969 0.021787
C28   C     C_R   0.092080 0.577824 0.600805 0.046003
C29   C     C_R   0.040266 0.640017 0.701943 0.013502
C30   C     C_R   0.947589 0.635697 0.694591 -0.115165
Cu1   Cu    Cu3+1 0.500020 0.500020 0.638630 0.977679
Cu2   Cu    Cu3+1 0.499980 0.499980 0.361370 0.951368
H1    H     H_    0.774980 0.620448 0.662636 0.119372
H2    H     H_    0.908173 0.685550 0.769111 0.108676
H3    H     H_    0.597901 0.632532 0.188607 0.170231
H4    H     H_    0.607120 0.565572 0.026485 0.105297
H5    H     H_    0.517842 0.674941 0.064945 0.087869
H6    H     H_    0.798592 0.225287 0.337146 0.117364
H7    H     H_    0.696981 0.302139 0.352617 0.157397
H8    H     H_    0.770858 0.343371 0.212841 0.132554
H9    H     H_    0.102351 0.794967 0.800270 0.191566
H10   H     H_    0.027918 0.711632 0.909720 0.111026
H11   H     H_    0.132143 0.644681 0.871653 0.178943
H12   H     H_    0.478778 0.907276 0.603545 0.108068
H13   H     H_    0.451016 0.964517 0.169598 0.161916
H14   H     H_    0.529159 0.851426 0.218896 0.113731
H15   H     H_    0.410145 0.820220 0.233873 0.181062
H16   H     H_    0.549700 0.088724 0.560508 0.045674
H17   H     H_    0.514968 0.313402 0.875929 0.144172
H18   H     H_    0.468449 0.573674 0.888702 0.238807
H19   H     H_    0.461644 0.319509 0.123550 0.167835
H20   H     H_    0.929395 0.291917 0.237555 0.116512
H21   H     H_    0.088944 0.300227 0.243376 0.136700
H22   H     H_    0.224380 0.372794 0.342849 0.170792
N1    N     N_2   0.499020 0.498660 0.846910 -0.354936
N2    N     N_2   0.499000 0.498630 0.153040 -0.239056
O1    O     O_R   0.500020 0.321960 0.617040 -0.505620
O2    O     O_R   0.499980 0.321920 0.382900 -0.480995
O3    O     O_R   0.370270 0.499990 0.617090 -0.451924
O4    O     O_R   0.370240 0.499950 0.382940 -0.479532
O5    O     O_R   0.500020 0.678080 0.617100 -0.484374
O6    O     O_R   0.499980 0.678040 0.382960 -0.516823
O7    O     O_R   0.629760 0.500050 0.617060 -0.499639
O8    O     O_R   0.629730 0.500010 0.382910 -0.522074

loop_
_geom_bond_atom_site_label_1
_geom_bond_atom_site_label_2
_ccdc_geom_bond_type
C20   N2    S    
C17   C21   S    
C13   O6    A    
C3    C5    A    
C27   C28   A    
C14   O7    A    
C23   C25   A    
C6    C24   S    
C9    H16   S    
C29   C30   A    
C21   H7    S    
C24   H14   S    
Cu1   O5    S    
C1    O2    A    
Cu2   O8    S    
C17   C18   A    
Cu2   O6    S    
Cu1   Cu2   S    
C7    C13   S    
C22   C29   S    
Cu1   O7    S    
C7    H12   S    
Cu1   O1    S    
C5    C28   A    
C2    H22   S    
Cu2   O2    S    
C10   C11   S    
C12   C15   A    
C4    O4    A    
C3    C4    S    
C21   H8    S    
C19   C27   A    
C24   H13   S    
C10   N1    D    
C30   H2    S    
C12   C19   A    
C6    C8    S    
C26   C27   A    
C2    C26   A    
C15   C16   A    
C11   H19   S    
C28   C29   A    
C22   H10   S    
C25   H21   S    
C14   O8    A    
C8    C9    D    
C22   H11   S    
C21   H6    S    
C20   H4    S    
Cu2   O4    S    
C10   H17   S    
C1    C9    S    
C23   H20   S    
C4    O3    A    
Cu1   O3    S    
C16   C17   A    
H18   N1    S    
C24   H15   S    
C25   C26   A    
Cu2   N2    S    
C22   H9    S    
C13   O5    A    
C6    C7    D    
Cu1   N1    S    
C11   N2    D    
C15   H1    S    
C18   C19   A    
C20   H3    S    
C20   H5    S    
C14   C16   S    
Br1   C8    S    
Br2   C5    S    
C12   C30   A    
C2    C3    A    
C18   C23   A    
C1    O1    A    
