data_mof_unit_59927.cif
_audit_creation_date              2012-12-11T15:14:56-0500
_audit_creation_method            fapswitch 2.2
_symmetry_space_group_name_H-M    P1
_symmetry_Int_Tables_number       1
_space_group_crystal_system       triclinic
_cell_length_a                    10.970049
_cell_length_b                    11.017022
_cell_length_c                    18.437591
_cell_angle_alpha                 89.330538
_cell_angle_beta                  90.538445
_cell_angle_gamma                 119.506829
_cell_volume                      1939.14817302

loop_
_atom_site_label
_atom_site_type_symbol
_atom_type_description
_atom_site_fract_x
_atom_site_fract_y
_atom_site_fract_z
_atom_type_partial_charge
C1    C     C_R   0.517698 0.458174 0.645432 0.536462
C2    C     C_R   0.460431 0.517732 0.353805 0.534581
C3    C     C_R   0.481561 0.942571 0.146049 0.543690
C4    C     C_R   0.065062 0.543933 0.355791 0.548465
C5    C     C_3   0.418646 0.030738 0.464410 -0.114375
C6    C     C_3   0.579480 0.630256 0.017334 -0.122791
C7    C     C_3   0.050557 0.419011 0.482894 -0.122676
C8    C     C_3   0.402073 0.026364 0.023549 -0.117417
C9    C     C_3   0.624286 0.591661 0.474763 -0.118295
C10   C     C_3   0.971139 0.388701 0.034920 -0.114089
C11   C     C_3   0.050962 0.439176 0.962438 -0.117241
C12   C     C_R   0.884125 0.457712 0.863203 0.550876
C13   C     C_3   0.536563 0.619571 0.530022 -0.133867
C14   C     C_3   0.382274 0.914094 0.968218 -0.135699
C15   C     C_3   0.119707 0.539288 0.538284 -0.149907
C16   C     C_3   0.457726 0.578180 0.961619 -0.149096
C17   C     C_3   0.389534 0.953060 0.538025 -0.114719
C18   C     C_3   0.566698 0.137954 0.491120 -0.156317
C19   C     C_3   0.627724 0.533163 0.984856 -0.133411
C20   C     C_3   0.905639 0.373273 0.515538 -0.133192
C21   C     C_3   0.536941 0.132280 0.984171 -0.128134
C22   C     C_3   0.591112 0.456344 0.515992 -0.125605
C23   C     C_R   0.574016 0.117276 0.636407 0.548691
C24   C     C_3   0.862290 0.428364 0.006981 -0.155416
C25   C     C_3   0.138940 0.586947 0.993645 -0.154395
C26   C     C_3   0.403703 0.534060 0.483191 -0.123116
C27   C     C_3   0.472300 0.872553 0.016546 -0.124439
C28   C     C_3   0.097480 0.636653 0.485308 -0.123592
C29   C     C_3   0.362486 0.459542 0.014503 -0.123346
C30   C     C_3   0.448114 0.862027 0.508259 -0.154995
C31   C     C_3   0.537158 0.058800 0.563439 0.060849
C32   C     C_3   0.505437 0.481624 0.930878 0.063393
C33   C     C_3   0.976054 0.494254 0.569180 0.062368
C34   C     C_R   0.519537 0.455858 0.855345 0.539484
C35   C     C_3   0.516770 0.018573 0.930634 0.055829
C36   C     C_3   0.502264 0.484587 0.569469 0.056919
C37   C     C_3   0.943493 0.479752 0.935981 0.061549
C38   C     C_3   0.057708 0.536683 0.064496 0.062202
C39   C     C_3   0.491632 0.504888 0.429405 0.056437
C40   C     C_3   0.493339 0.986231 0.070464 0.055478
C41   C     C_3   0.026867 0.516034 0.431347 0.062283
C42   C     C_3   0.484418 0.510547 0.068814 0.063660
C43   C     C_3   0.478721 0.941248 0.436124 0.060695
C44   C     C_3   0.596049 0.968419 0.534514 -0.109887
C45   C     C_R   0.936683 0.480410 0.644688 0.548757
C46   C     C_3   0.410563 0.362456 0.982758 -0.110891
C47   C     C_3   0.952758 0.591109 0.517225 -0.110224
C48   C     C_3   0.607141 0.978020 0.977802 -0.106160
C49   C     C_3   0.370095 0.398757 0.523806 -0.107281
C50   C     C_3   0.030902 0.627371 0.966207 -0.110111
C51   C     C_3   0.949672 0.576173 0.037591 -0.113810
C52   C     C_3   0.458142 0.370511 0.469340 -0.125087
C53   C     C_3   0.627272 0.090929 0.032363 -0.127193
C54   C     C_3   0.883418 0.470843 0.462387 -0.147650
C55   C     C_3   0.532279 0.414361 0.037951 -0.147318
C56   C     C_R   0.542402 0.059981 0.854755 0.545974
C57   C     C_3   0.625828 0.047470 0.461978 -0.111986
C58   C     C_R   0.456101 0.521246 0.144304 0.539139
C59   C     C_R   0.457641 0.882448 0.363495 0.552731
C60   C     C_R   0.117393 0.574806 0.136903 0.553665
Cr1   Cr    Cr6+3 0.769930 0.543130 0.750000 1.004597
Cr2   Cr    Cr6+3 0.773200 0.230070 0.750000 1.010018
Cr3   Cr    Cr6+3 0.456870 0.226800 0.750000 1.010759
Cr4   Cr    Cr6+3 0.543130 0.769930 0.250000 1.007414
Cr5   Cr    Cr6+3 0.230070 0.773200 0.250000 1.008483
Cr6   Cr    Cr6+3 0.226800 0.456870 0.250000 1.006512
H1    H     H_    0.673931 0.947614 0.562483 0.127079
H2    H     H_    0.792581 0.446469 0.426560 0.106669
H3    H     H_    0.559374 0.349482 0.073778 0.107537
H4    H     H_    0.724663 0.087692 0.430844 0.134865
H5    H     H_    0.339947 0.047359 0.434440 0.118767
H6    H     H_    0.651708 0.739304 0.033968 0.122444
H7    H     H_    0.088024 0.346616 0.466136 0.123031
H8    H     H_    0.320192 0.047878 0.044582 0.115284
H9    H     H_    0.727711 0.668630 0.452258 0.115338
H10   H     H_    0.954075 0.293297 0.064365 0.119502
H11   H     H_    0.091309 0.382549 0.929797 0.127235
H12   H     H_    0.338804 0.252655 0.967105 0.126443
H13   H     H_    0.570149 0.714916 0.561825 0.110307
H14   H     H_    0.288632 0.849110 0.935050 0.110725
H15   H     H_    0.210626 0.563638 0.574036 0.106275
H16   H     H_    0.430686 0.643193 0.925871 0.106933
H17   H     H_    0.292603 0.915054 0.570547 0.127631
H18   H     H_    0.620218 0.248622 0.478002 0.099971
H19   H     H_    0.735930 0.570442 0.966609 0.123837
H20   H     H_    0.833301 0.265359 0.533355 0.122325
H21   H     H_    0.559916 0.233841 0.960791 0.113063
H22   H     H_    0.667594 0.429124 0.539396 0.111115
H23   H     H_    0.914489 0.663455 0.532902 0.126751
H24   H     H_    0.750200 0.369111 0.015945 0.098833
H25   H     H_    0.251439 0.642542 0.986247 0.098170
H26   H     H_    0.328179 0.563336 0.460638 0.111177
H27   H     H_    0.447416 0.769857 0.038973 0.112725
H28   H     H_    0.171892 0.744888 0.468601 0.124710
H29   H     H_    0.253832 0.423967 0.031604 0.126325
H30   H     H_    0.390901 0.750869 0.519746 0.099214
H31   H     H_    0.689020 0.955882 0.957388 0.121494
H32   H     H_    0.266027 0.321806 0.545685 0.121513
H33   H     H_    0.051657 0.725726 0.938630 0.127541
H34   H     H_    0.906980 0.632453 0.068780 0.134528
H35   H     H_    0.425974 0.274583 0.438424 0.114049
H36   H     H_    0.721568 0.157921 0.064557 0.113703
O1    O     O_R   0.913270 0.574260 0.668550 -0.517563
O2    O     O_R   0.574260 0.913270 0.331450 -0.514765
O3    O     O_R   0.086730 0.660990 0.168550 -0.515794
O4    O     O_R   0.339010 0.425740 0.331450 -0.518297
O5    O     O_R   0.640160 0.530400 0.673300 -0.507885
O6    O     O_R   0.890240 0.359840 0.826700 -0.500252
O7    O     O_R   0.469600 0.109760 0.673300 -0.498064
O8    O     O_R   0.640160 0.530400 0.826700 -0.520077
O9    O     O_R   0.890240 0.359840 0.673300 -0.518150
O10   O     O_R   0.469600 0.109760 0.826700 -0.504887
O11   O     O_R   0.530400 0.640160 0.173300 -0.512049
O12   O     O_R   0.660990 0.086730 0.831450 -0.519850
O13   O     O_R   0.359840 0.890240 0.326700 -0.510957
O14   O     O_R   0.109760 0.469600 0.173300 -0.507277
O15   O     O_R   0.530400 0.640160 0.326700 -0.514977
O16   O     O_R   0.359840 0.890240 0.173300 -0.512701
O17   O     O_R   0.109760 0.469600 0.326700 -0.505441
O18   O     O_3   0.666667 0.333333 0.750000 -0.294533
O19   O     O_3   0.333333 0.666667 0.250000 -0.295098
O20   O     O_R   0.425740 0.339010 0.668550 -0.521600
O21   O     O_R   0.913270 0.574260 0.831450 -0.522184
O22   O     O_R   0.660990 0.086730 0.668550 -0.524766
O23   O     O_R   0.425740 0.339010 0.831450 -0.522873
O24   O     O_R   0.574260 0.913270 0.168550 -0.515983
O25   O     O_R   0.086730 0.660990 0.331450 -0.523765
O26   O     O_R   0.339010 0.425740 0.168550 -0.525550

loop_
_geom_bond_atom_site_label_1
_geom_bond_atom_site_label_2
_ccdc_geom_bond_type
C27   C48   S    
C21   C53   S    
C13   H13   S    
C28   C47   S    
C58   O26   A    
C13   C26   S    
C37   C50   S    
C29   C42   S    
C33   C45   S    
C60   O3    A    
C42   C58   S    
C21   H21   S    
C3    O24   A    
C7    H7    S    
C6    H6    S    
C48   H31   S    
C50   H33   S    
Cr6   O14   S    
C59   O2    A    
Cr5   O25   S    
C22   C52   S    
Cr1   O1    S    
Cr2   O12   S    
C42   C55   S    
C9    C22   S    
C29   H29   S    
Cr2   O6    S    
C4    C41   S    
Cr1   O8    S    
C26   H26   S    
Cr4   O19   S    
C28   C41   S    
C9    C39   S    
C28   H28   S    
Cr3   O10   S    
C11   C37   S    
C9    C13   S    
C1    O20   A    
C30   H30   S    
C11   H11   S    
C49   H32   S    
C25   C50   S    
C10   H10   S    
C2    C39   S    
Cr2   O9    S    
C35   C48   S    
C20   H20   S    
C46   C55   S    
C58   O11   A    
C18   H18   S    
Cr5   O16   S    
C4    O17   A    
Cr5   O19   S    
C14   C27   S    
C45   O1    A    
C53   H36   S    
Cr2   O18   S    
C43   C59   S    
C24   C51   S    
C7    C15   S    
C39   C52   S    
C5    C43   S    
Cr1   O18   S    
C17   C30   S    
C47   H23   S    
C30   C44   S    
Cr6   O4    S    
C19   C32   S    
Cr5   O3    S    
C2    O15   A    
C50   C51   S    
C48   C53   S    
C23   O7    A    
C52   H35   S    
C25   H25   S    
C31   C44   S    
C13   C36   S    
C15   H15   S    
C26   C49   S    
C14   C35   S    
C12   O6    A    
C5    C18   S    
C10   C24   S    
C16   C29   S    
C2    O4    A    
Cr4   O15   S    
C17   H17   S    
C32   C34   S    
Cr3   O7    S    
C6    C19   S    
C3    O16   A    
C25   C38   S    
C26   C39   S    
C18   C57   S    
C44   C57   S    
C49   C52   S    
C8    H8    S    
C8    C21   S    
Cr6   O19   S    
Cr3   O23   S    
C5    C17   S    
C7    C20   S    
C55   H3    S    
C1    O5    A    
C47   C54   S    
C38   C60   S    
C20   C33   S    
C20   C54   S    
C3    C40   S    
C40   C53   S    
C22   H22   S    
Cr6   O17   S    
C6    C42   S    
C33   C47   S    
C30   C43   S    
C60   O14   A    
C16   C32   S    
Cr3   O20   S    
C8    C40   S    
C14   H14   S    
C46   H12   S    
C19   C55   S    
C51   H34   S    
Cr4   O2    S    
C8    C14   S    
Cr4   O11   S    
C4    O25   A    
C35   C56   S    
C32   C46   S    
Cr2   O22   S    
C15   C33   S    
C19   H19   S    
C24   H24   S    
C45   O9    A    
C23   O22   A    
C38   C51   S    
C24   C37   S    
C22   C36   S    
Cr4   O24   S    
Cr1   O21   S    
C29   C46   S    
C10   C38   S    
C21   C35   S    
Cr5   O13   S    
C5    H5    S    
C27   C40   S    
Cr3   O18   S    
C15   C28   S    
C12   O21   A    
C34   O23   A    
C17   C31   S    
Cr6   O26   S    
C7    C41   S    
Cr1   O5    S    
C41   C54   S    
C27   H27   S    
C10   C11   S    
C43   C57   S    
C57   H4    S    
C6    C16   S    
C56   O12   A    
C54   H2    S    
C59   O13   A    
C16   H16   S    
C12   C37   S    
C11   C25   S    
C44   H1    S    
C18   C31   S    
C9    H9    S    
C34   O8    A    
C56   O10   A    
C36   C49   S    
C1    C36   S    
C23   C31   S    
