data_mof_unit_45328.cif
_audit_creation_date              2013-03-05T16:48:42-0500
_audit_creation_method            fapswitch 2.2
_symmetry_space_group_name_H-M    P1
_symmetry_Int_Tables_number       1
_space_group_crystal_system       triclinic
_cell_length_a                    27.775967
_cell_length_b                    8.984345
_cell_length_c                    8.083985
_cell_angle_alpha                 90.235392
_cell_angle_beta                  90.002408
_cell_angle_gamma                 90.001766
_cell_volume                      2017.33229595

loop_
_atom_site_label
_atom_site_type_symbol
_atom_site_description
_atom_site_fract_x
_atom_site_fract_y
_atom_site_fract_z
_atom_type_partial_charge
O1    O     O_R   0.500000 0.285350 0.636850 -0.614423
O2    O     O_R   0.500000 0.714650 0.363150 -0.614436
O3    O     O_R   0.500000 0.714650 0.636850 -0.604024
O4    O     O_R   0.500000 0.285350 0.363150 -0.604040
C1    C     C_R   0.499974 0.217816 0.499780 0.944130
C2    C     C_R   0.499974 0.782184 0.500220 0.944117
O5    O     O_R   0.428760 0.500000 0.636860 -0.600791
O6    O     O_R   0.571240 0.500000 0.363140 -0.597504
O7    O     O_R   0.571240 0.500000 0.636860 -0.597533
O8    O     O_R   0.428760 0.500000 0.363140 -0.600780
C3    C     C_R   0.405871 0.500005 0.499998 0.921481
C4    C     C_R   0.594330 0.500025 0.500007 0.915183
Zn1   Zn    Zn3+2 0.500000 0.500000 0.682780 1.062642
Zn2   Zn    Zn3+2 0.500000 0.500000 0.317220 1.062644
C5    C     C_R   0.177526 0.371549 0.538288 0.573321
C6    C     C_R   0.823755 0.632267 0.516046 0.570924
C7    C     C_R   0.177513 0.628302 0.462321 0.573300
C8    C     C_R   0.823744 0.367649 0.485052 0.570941
O9    O     O_2   0.202308 0.247767 0.579143 -0.524478
O10   O     O_2   0.799196 0.761739 0.525078 -0.521071
O11   O     O_2   0.202278 0.752080 0.421336 -0.524484
O12   O     O_2   0.799173 0.238199 0.475923 -0.521033
N1    N     N_R   0.201549 0.499927 0.500259 -0.347718
N2    N     N_R   0.799583 0.499968 0.500497 -0.346585
C9    C     C_R   0.278047 0.594392 0.607517 -0.103200
C10   C     C_R   0.722863 0.434304 0.369415 -0.108110
C11   C     C_R   0.278026 0.405533 0.392752 -0.103200
C12   C     C_R   0.722814 0.565754 0.631116 -0.108029
C13   C     C_R   0.328066 0.596545 0.607122 0.113960
C14   C     C_R   0.672856 0.430252 0.369730 0.126961
C15   C     C_R   0.328047 0.403460 0.392971 0.113918
C16   C     C_R   0.672811 0.569911 0.630495 0.127001
C17   C     C_R   0.252992 0.499944 0.500181 0.197406
C18   C     C_R   0.747998 0.499993 0.500350 0.195271
C19   C     C_R   0.101853 0.499928 0.500471 -0.068168
C20   C     C_R   0.899413 0.499932 0.500657 -0.070437
C21   C     C_R   0.127210 0.368428 0.536104 -0.099443
C22   C     C_R   0.874058 0.634201 0.520551 -0.098433
C23   C     C_R   0.127199 0.631426 0.464728 -0.099448
C24   C     C_R   0.874050 0.365678 0.480717 -0.098427
C25   C     C_R   0.101837 0.238406 0.573384 -0.236530
C26   C     C_R   0.899404 0.766262 0.549280 -0.236577
C27   C     C_R   0.101817 0.761451 0.427563 -0.236501
C28   C     C_R   0.899390 0.233600 0.452057 -0.236625
C29   C     C_R   0.353480 0.500017 0.500009 -0.155760
C30   C     C_R   0.647078 0.500079 0.500056 -0.168515
H1    H     H_    0.258388 0.332400 0.310008 0.183725
H2    H     H_    0.742371 0.616343 0.732756 0.183908
H3    H     H_    0.258425 0.667491 0.690333 0.183709
H4    H     H_    0.742459 0.383702 0.267882 0.183881
H5    H     H_    0.120517 0.137976 0.610194 0.219450
H6    H     H_    0.880657 0.869002 0.577585 0.216306
H7    H     H_    0.120486 0.861882 0.390684 0.219466
H8    H     H_    0.880639 0.130865 0.423743 0.216332
C31   C     C_R   0.975450 0.363447 0.492464 -0.056552
C32   C     C_R   0.025846 0.635762 0.483351 -0.053826
C33   C     C_R   0.975455 0.636399 0.508869 -0.056597
C34   C     C_R   0.025848 0.364092 0.517872 -0.053841
C35   C     C_R   0.950209 0.499924 0.500674 -0.070417
C36   C     C_R   0.051080 0.499928 0.500570 -0.067389
C37   C     C_R   0.949431 0.233144 0.453002 0.745798
C38   C     C_R   0.051824 0.763656 0.434920 0.737404
C39   C     C_R   0.949444 0.766699 0.548370 0.745876
C40   C     C_R   0.051840 0.236202 0.566222 0.737449
C41   C     C_1   0.499941 0.065059 0.499687 -0.134805
C42   C     C_1   0.499942 0.934940 0.500313 -0.134782
N3    N     N_1   0.500000 0.500000 0.073640 0.002523
N4    N     N_1   0.500000 0.500000 0.926360 0.002528
I1    I     I_    0.361723 0.244014 0.235618 -0.235347
I2    I     I_    0.640935 0.694348 0.827292 -0.234783
I3    I     I_    0.361765 0.756055 0.764345 -0.235352
I4    I     I_    0.641042 0.306047 0.172636 -0.234840
F1    F     F_    0.971847 0.110359 0.394260 -0.541010
F2    F     F_    0.029321 0.885807 0.375618 -0.547368
F3    F     F_    0.971870 0.889464 0.607143 -0.540999
F4    F     F_    0.029353 0.114054 0.625615 -0.547342

loop_
_geom_bond_atom_site_label_1
_geom_bond_atom_site_label_2
_geom_bond_distance
_ccdc_geom_bond_type
C31   C35   1.413789 A    
C20   C35   1.410919 A    
C11   C17   1.396850 A    
C5    O9    1.350074 S    
C7    N1    1.368563 A    
C2    C42   1.372413 S    
O1    C1    1.261132 A    
C19   C21   1.406302 A    
C22   C26   1.398197 A    
C10   H4    1.083346 S    
C33   C35   1.413781 A    
C34   C36   1.414732 A    
C32   C33   1.414804 A    
C7    C23   1.397912 A    
C8    C24   1.397855 A    
C5    C21   1.397957 A    
C20   C24   1.405519 A    
O7    Zn1   2.013292 S    
C27   H7    1.083567 S    
N1    C17   1.428893 S    
Zn2   N3    1.969097 S    
C8    N2    1.370417 A    
O3    Zn1   1.965404 S    
C6    O10   1.350216 S    
O3    C2    1.262378 A    
C5    N1    1.368552 A    
C12   C18   1.396703 A    
C6    N2    1.370440 A    
C21   C25   1.398199 A    
O2    C2    1.261132 A    
C10   C18   1.396732 A    
C33   C39   1.411164 A    
C9    C13   1.389470 A    
C11   C15   1.389514 A    
N3    N4    1.190609 T    
C12   C16   1.389405 A    
C4    C30   1.465132 S    
O8    Zn2   2.013295 S    
C16   I2    2.133157 S    
C34   C40   1.413476 A    
C37   F1    1.351241 S    
N2    C18   1.432838 S    
C32   C36   1.414718 A    
C13   C29   1.412126 A    
C19   C36   1.410267 A    
C19   C23   1.406295 A    
C15   I1    2.128464 S    
O5    C3    1.276018 A    
C24   C28   1.398193 A    
O6    C4    1.278844 A    
C40   F4    1.352529 S    
C1    C41   1.372414 S    
C10   C14   1.389469 A    
C32   C38   1.413476 A    
C3    C29   1.455216 S    
O1    Zn1   1.962410 S    
C11   H1    1.083058 S    
C12   H2    1.083350 S    
O6    Zn2   2.013261 S    
C8    O12   1.350228 S    
C16   C30   1.418056 A    
C14   C30   1.418049 A    
O4    C1    1.262378 A    
C14   I4    2.133057 S    
C28   C37   1.389956 A    
C20   C22   1.405517 A    
C39   F3    1.351259 S    
C31   C37   1.411190 A    
O4    Zn2   1.965405 S    
O2    Zn2   1.962409 S    
O7    C4    1.278797 A    
C9    H3    1.083045 S    
C9    C17   1.396822 A    
O8    C3    1.276038 A    
C28   H8    1.083432 S    
O5    Zn1   2.013264 S    
C23   C27   1.398174 A    
C41   C42   1.169066 T    
C15   C29   1.412128 A    
C31   C34   1.414841 A    
C26   H6    1.083428 S    
C38   F2    1.352498 S    
C25   C40   1.390059 A    
C26   C39   1.389940 A    
C25   H5    1.083568 S    
C27   C38   1.390018 A    
C6    C22   1.397821 A    
C13   I3    2.128421 S    
Zn1   N4    1.969097 S    
C7    O11   1.350066 S    
