data_mof_unit_51860.cif
_audit_creation_date              2012-12-10T17:47:17-0500
_audit_creation_method            fapswitch 2.2
_symmetry_space_group_name_H-M    P1
_symmetry_Int_Tables_number       1
_space_group_crystal_system       triclinic
_cell_length_a                    11.67565
_cell_length_b                    14.762221
_cell_length_c                    14.571626
_cell_angle_alpha                 65.238021
_cell_angle_beta                  103.797844
_cell_angle_gamma                 102.581599
_cell_volume                      2194.91462416

loop_
_atom_site_label
_atom_site_type_symbol
_atom_type_description
_atom_site_fract_x
_atom_site_fract_y
_atom_site_fract_z
_atom_type_partial_charge
C1    C     C_R   0.478960 0.119369 0.311854 0.792570
C2    C     C_R   0.636255 0.603612 0.097626 -0.031780
C3    C     C_R   0.655763 0.262533 0.695568 -0.316736
C4    C     C_R   0.344237 0.737467 0.304432 -0.316736
C5    C     C_R   0.637033 0.188815 0.656468 0.075291
C6    C     C_R   0.362967 0.811185 0.343532 0.075291
C7    C     C_R   0.533382 0.293446 0.500463 0.028571
C8    C     C_R   0.466618 0.706554 0.499537 0.028571
C9    C     C_R   0.539898 0.369248 0.538719 -0.026874
C10   C     C_R   0.460102 0.630753 0.461281 -0.026874
C11   C     C_R   0.609052 0.354166 0.637105 0.094041
C12   C     C_R   0.521040 0.880631 0.688146 0.792571
C13   C     C_R   0.390948 0.645834 0.362895 0.094042
C14   C     C_R   0.484113 0.459590 0.481900 -0.002727
C15   C     C_R   0.515887 0.540410 0.518100 -0.002727
C16   C     C_R   0.284243 0.999827 0.500533 0.831414
C17   C     C_R   0.715757 0.000173 0.499467 0.831413
C18   C     C_R   0.602385 0.527826 0.609558 -0.065468
C19   C     C_R   0.397615 0.472174 0.390442 -0.065468
C20   C     C_R   0.637855 0.432374 0.673121 -0.036586
C21   C     C_R   0.362145 0.567626 0.326879 -0.036586
C22   C     C_1   0.162628 0.999419 0.501161 -0.185031
C23   C     C_R   0.394244 0.326766 0.003160 0.105670
C24   C     C_1   0.837372 0.000581 0.498839 -0.185031
C25   C     C_1   0.059947 0.999478 0.500683 -0.043124
C26   C     C_1   0.940053 0.000522 0.499317 -0.043124
C27   C     C_R   0.457036 0.186808 0.203504 -0.042884
C28   C     C_R   0.542964 0.813192 0.796496 -0.042884
C29   C     C_R   0.344551 0.224373 0.033125 -0.211729
C30   C     C_R   0.655449 0.775627 0.966875 -0.211729
C31   C     C_R   0.375473 0.155386 0.132231 -0.210404
C32   C     C_R   0.624527 0.844614 0.867769 -0.210403
C33   C     C_R   0.508964 0.287167 0.174493 -0.267135
C34   C     C_R   0.605756 0.673234 0.996840 0.105671
C35   C     C_R   0.491036 0.712833 0.825507 -0.267135
C36   C     C_R   0.474762 0.360221 0.076457 0.065969
C37   C     C_R   0.525238 0.639779 0.923543 0.065969
C38   C     C_R   0.284836 0.366443 0.820189 0.111592
C39   C     C_R   0.181326 0.411815 0.767738 -0.147963
C40   C     C_R   0.105700 0.383318 0.691450 -0.129104
C41   C     C_R   0.133115 0.309919 0.666340 -0.125805
C42   C     C_R   0.237483 0.266343 0.715963 -0.137941
C43   C     C_R   0.313590 0.294881 0.792024 -0.162448
C44   C     C_R   0.715164 0.633557 0.179811 0.111592
C45   C     C_R   0.517180 0.465031 0.050421 0.051771
C46   C     C_R   0.686410 0.705119 0.207976 -0.162448
C47   C     C_R   0.762517 0.733657 0.284036 -0.137941
C48   C     C_R   0.866885 0.690080 0.333660 -0.125806
C49   C     C_R   0.894300 0.616682 0.308550 -0.129103
C50   C     C_R   0.818674 0.588185 0.232262 -0.147963
C51   C     C_R   0.678047 0.614756 0.630036 0.089530
C52   C     C_R   0.676958 0.630777 0.718551 -0.132203
C53   C     C_R   0.759380 0.704690 0.743197 -0.118473
C54   C     C_R   0.844046 0.762380 0.680467 -0.117455
C55   C     C_R   0.845388 0.747037 0.592345 -0.123538
C56   C     C_R   0.482820 0.534969 0.949579 0.051772
C57   C     C_R   0.762208 0.674057 0.566887 -0.150530
C58   C     C_R   0.321953 0.385244 0.369964 0.089530
C59   C     C_R   0.237792 0.325942 0.433113 -0.150530
C60   C     C_R   0.154612 0.252963 0.407655 -0.123539
C61   C     C_R   0.155955 0.237620 0.319533 -0.117454
C62   C     C_R   0.240620 0.295310 0.256802 -0.118474
C63   C     C_R   0.323042 0.369223 0.281449 -0.132203
C64   C     C_R   0.716594 0.418082 0.773865 0.107904
C65   C     C_R   0.840409 0.444730 0.779581 -0.119845
C66   C     C_R   0.912826 0.436133 0.873639 -0.133787
C67   C     C_R   0.409202 0.497874 0.876980 -0.289907
C68   C     C_R   0.862389 0.400170 0.962394 -0.122829
C69   C     C_R   0.739427 0.372585 0.957328 -0.128177
C70   C     C_R   0.666728 0.381449 0.863423 -0.165018
C71   C     C_R   0.283406 0.581918 0.226135 0.107904
C72   C     C_R   0.333271 0.618551 0.136577 -0.165017
C73   C     C_R   0.260573 0.627415 0.042672 -0.128177
C74   C     C_R   0.137611 0.599830 0.037605 -0.122828
C75   C     C_R   0.087174 0.563867 0.126360 -0.133787
C76   C     C_R   0.159591 0.555270 0.220419 -0.119845
C77   C     C_R   0.590798 0.502126 0.123020 -0.289907
C78   C     C_R   0.363745 0.396388 0.902374 -0.031780
Cu1   Cu    Cu3+1 0.469550 0.918260 0.475690 0.938056
Cu2   Cu    Cu3+1 0.530450 0.081740 0.524310 0.938056
H1    H     H_    0.424616 0.694449 0.768554 0.143794
H2    H     H_    0.497761 0.304183 0.422608 0.141861
H3    H     H_    0.328888 0.881858 0.296712 0.126356
H4    H     H_    0.671111 0.118142 0.703288 0.126356
H5    H     H_    0.707312 0.246756 0.771601 0.155178
H6    H     H_    0.292688 0.753244 0.228399 0.155178
H7    H     H_    0.158992 0.468818 0.786388 0.115236
H8    H     H_    0.025739 0.418003 0.651832 0.120972
H9    H     H_    0.073932 0.287417 0.607799 0.120065
H10   H     H_    0.259382 0.210346 0.695529 0.137450
H11   H     H_    0.393716 0.259984 0.829895 0.125286
H12   H     H_    0.575384 0.305551 0.231446 0.143794
H13   H     H_    0.606284 0.740016 0.170105 0.125286
H14   H     H_    0.740618 0.789654 0.304471 0.137450
H15   H     H_    0.926068 0.712583 0.392201 0.120065
H16   H     H_    0.974261 0.581997 0.348168 0.120972
H17   H     H_    0.841008 0.531182 0.213612 0.115236
H18   H     H_    0.613350 0.585063 0.768729 0.140124
H19   H     H_    0.758872 0.716113 0.811751 0.144050
H20   H     H_    0.908970 0.818601 0.700428 0.127151
H21   H     H_    0.911919 0.790563 0.544411 0.135799
H22   H     H_    0.765806 0.660781 0.500268 0.134235
H23   H     H_    0.667367 0.921785 0.846027 0.143310
H24   H     H_    0.234194 0.339219 0.499732 0.134235
H25   H     H_    0.088081 0.209437 0.455588 0.135799
H26   H     H_    0.091030 0.181399 0.299572 0.127151
H27   H     H_    0.241128 0.283887 0.188249 0.144050
H28   H     H_    0.386650 0.414936 0.231270 0.140124
H29   H     H_    0.880070 0.473953 0.711008 0.118408
H30   H     H_    0.007914 0.458031 0.877844 0.121186
H31   H     H_    0.918574 0.393873 0.035019 0.126778
H32   H     H_    0.700448 0.344864 0.026061 0.142405
H33   H     H_    0.571728 0.361380 0.860084 0.136334
H34   H     H_    0.332633 0.078215 0.153973 0.143311
H35   H     H_    0.428272 0.638620 0.139916 0.136334
H36   H     H_    0.299552 0.655136 0.973939 0.142405
H37   H     H_    0.081426 0.606127 0.964981 0.126778
H38   H     H_    0.992086 0.541969 0.122156 0.121186
H39   H     H_    0.119930 0.526047 0.288992 0.118408
H40   H     H_    0.278363 0.196909 0.981581 0.153788
H41   H     H_    0.721637 0.803090 0.018419 0.153788
H42   H     H_    0.386525 0.545658 0.797680 0.144585
H43   H     H_    0.613475 0.454341 0.202320 0.144585
H44   H     H_    0.502239 0.695817 0.577392 0.141861
N1    N     N_R   0.576230 0.204580 0.560790 -0.181059
N2    N     N_R   0.423770 0.795420 0.439210 -0.181059
O1    O     O_R   0.459870 0.022090 0.338120 -0.595642
O2    O     O_R   0.540130 0.977910 0.661880 -0.595642
O3    O     O_R   0.511290 0.160150 0.379180 -0.587138
O4    O     O_R   0.488710 0.839850 0.620820 -0.587138
O5    O     O_R   0.311490 0.930960 0.479480 -0.580348
O6    O     O_R   0.688510 0.069040 0.520520 -0.580347
O7    O     O_R   0.362910 0.069020 0.520540 -0.557048
O8    O     O_R   0.637090 0.930980 0.479460 -0.557049

loop_
_geom_bond_atom_site_label_1
_geom_bond_atom_site_label_2
_ccdc_geom_bond_type
C15   C18   A    
C66   C68   A    
Cu2   O6    S    
C48   H15   S    
C3    H5    S    
C34   C37   A    
C41   C42   A    
C41   H9    S    
C39   H7    S    
C75   C76   A    
C35   H1    S    
C53   C54   A    
C27   C33   A    
C57   H22   S    
C75   H38   S    
C72   H35   S    
C73   H36   S    
C12   O4    A    
C21   C71   S    
C59   H24   S    
C23   C29   A    
C35   C37   A    
C24   C26   T    
C1    O3    A    
C10   C15   A    
C38   C39   A    
C69   H32   S    
C4    H6    S    
Cu2   N1    S    
C33   C36   A    
C7    C9    A    
C73   C74   A    
C4    C13   A    
C74   H37   S    
C16   O5    A    
C46   C47   A    
C37   C56   A    
C45   C56   A    
C2    C44   S    
C68   C69   A    
C22   C25   T    
C51   C57   A    
C64   C70   A    
C31   H34   S    
C2    C34   A    
C59   C60   A    
C70   H33   S    
C17   O6    A    
C54   H20   S    
C61   C62   A    
C67   C78   A    
C16   O7    A    
C44   C46   A    
C18   C51   S    
C19   C58   S    
C29   H40   S    
C11   C20   A    
C17   C24   S    
C74   C75   A    
C30   C34   A    
C27   C31   A    
C51   C52   A    
C76   H39   S    
C28   C32   A    
C6    N2    A    
C4    C6    A    
C33   H12   S    
C39   C40   A    
C5    H4    S    
C8    H44   S    
C62   H27   S    
Cu2   O2    S    
C25   C26   S    
Cu1   O4    S    
C53   H19   S    
Cu2   O7    S    
C60   C61   A    
C42   H10   S    
C68   H31   S    
C20   C64   S    
C9    C14   A    
C62   C63   A    
C77   H43   S    
C47   C48   A    
C30   H41   S    
Cu1   O5    S    
C32   H23   S    
C13   C21   A    
C36   C45   A    
C7    N1    A    
C61   H26   S    
C9    C11   A    
C65   H29   S    
C49   H16   S    
C8    N2    A    
C48   C49   A    
Cu1   N2    S    
C12   C28   S    
C65   C66   A    
C55   C57   A    
C49   C50   A    
C42   C43   A    
C67   H42   S    
C52   C53   A    
C44   C50   A    
C58   C63   A    
C28   C35   A    
Cu1   O8    S    
Cu1   O1    S    
C54   C55   A    
C40   C41   A    
C50   H17   S    
C16   C22   S    
C6    H3    S    
C19   C21   A    
C14   C19   A    
C1    O1    A    
C72   C73   A    
C3    C5    A    
C10   C13   A    
C12   O2    A    
C56   C67   A    
C38   C78   S    
C55   H21   S    
C64   C65   A    
C40   H8    S    
C58   C59   A    
C38   C43   A    
C29   C31   A    
C2    C77   A    
C30   C32   A    
C71   C76   A    
C46   H13   S    
C52   H18   S    
C47   H14   S    
C18   C20   A    
C23   C78   A    
C69   C70   A    
Cu2   O3    S    
C43   H11   S    
C3    C11   A    
Cu1   Cu2   S    
C71   C72   A    
C7    H2    S    
C66   H30   S    
C8    C10   A    
C23   C36   A    
C5    N1    A    
C17   O8    A    
C1    C27   S    
C14   C15   A    
C45   C77   A    
C63   H28   S    
C60   H25   S    
