data_mof_unit_48228.cif
_audit_creation_date              2012-12-11T14:58:29-0500
_audit_creation_method            fapswitch 2.2
_symmetry_space_group_name_H-M    P1
_symmetry_Int_Tables_number       1
_space_group_crystal_system       triclinic
_cell_length_a                    10.958314
_cell_length_b                    10.986463
_cell_length_c                    18.848282
_cell_angle_alpha                 90.327886
_cell_angle_beta                  90.65379
_cell_angle_gamma                 59.748503
_cell_volume                      1960.06090749

loop_
_atom_site_label
_atom_site_type_symbol
_atom_type_description
_atom_site_fract_x
_atom_site_fract_y
_atom_site_fract_z
_atom_type_partial_charge
C1    C     C_R   0.359283 0.771764 0.397190 0.587528
C2    C     C_R   0.599666 0.093116 0.170107 0.028216
C3    C     C_R   0.370669 0.334709 0.159015 0.072846
C4    C     C_R   0.495524 0.250109 0.270838 -0.153444
C5    C     C_R   0.488566 0.231083 0.198811 -0.002149
C6    C     C_R   0.117962 0.733677 0.283529 -0.056579
C7    C     C_R   0.009081 0.847340 0.318559 0.408108
C8    C     C_R   0.610917 0.968580 0.196556 -0.164763
C9    C     C_R   0.703703 0.839017 0.165902 -0.092742
C10   C     C_R   0.274322 0.463131 0.191797 0.124211
C11   C     C_R   0.275589 0.474880 0.266097 0.053134
C12   C     C_R   0.413959 0.377007 0.382353 0.583633
C13   C     C_R   0.926545 0.826775 0.367516 0.426369
C14   C     C_R   0.954745 0.690381 0.381583 -0.134948
C15   C     C_R   0.066175 0.575433 0.347197 -0.125951
C16   C     C_R   0.152095 0.596213 0.299811 0.035125
C17   C     C_R   0.389600 0.366905 0.305996 0.002580
C18   C     C_R   0.811361 0.253348 0.290308 -0.044415
C19   C     C_R   0.839645 0.241261 0.218658 -0.100195
C20   C     C_R   0.873302 0.334413 0.186241 0.071231
C21   C     C_R   0.884499 0.435705 0.227047 0.353452
C22   C     C_R   0.858681 0.444940 0.298281 -0.074868
C23   C     C_R   0.774499 0.380570 0.402410 0.586380
C24   C     C_R   0.825498 0.352005 0.330813 0.008552
C25   C     C_R   0.443555 0.703207 0.275521 0.363389
C26   C     C_R   0.434636 0.732355 0.203307 0.364565
C27   C     C_R   0.342550 0.869151 0.179919 -0.019952
C28   C     C_R   0.265701 0.978147 0.228714 -0.188716
C29   C     C_R   0.274282 0.949029 0.300869 -0.174540
C30   C     C_R   0.359574 0.810729 0.323960 -0.015959
C31   C     C_R   0.390943 0.196535 0.692707 -0.104653
C32   C     C_R   0.381757 0.182198 0.764436 0.363235
C33   C     C_R   0.295107 0.301163 0.806705 0.024986
C34   C     C_R   0.345397 0.767474 0.605178 0.568824
C35   C     C_R   0.209795 0.432233 0.774759 -0.194966
C36   C     C_R   0.222160 0.446810 0.702379 -0.147908
C37   C     C_R   0.318660 0.329593 0.662159 -0.037993
C38   C     C_R   0.780813 0.463153 0.728259 -0.162000
C39   C     C_R   0.785228 0.457431 0.800695 -0.111896
C40   C     C_R   0.814432 0.333614 0.835780 0.006332
C41   C     C_R   0.818629 0.222266 0.797372 -0.117376
C42   C     C_R   0.802018 0.231661 0.723279 0.090571
C43   C     C_R   0.789340 0.351659 0.688098 0.053213
C44   C     C_R   0.194999 0.850535 0.711660 0.348421
C45   C     C_R   0.368397 0.350317 0.595037 0.540494
C46   C     C_R   0.184564 0.862772 0.784569 -0.168470
C47   C     C_R   0.300936 0.841217 0.825840 -0.018963
C48   C     C_R   0.430019 0.802183 0.793354 0.405933
C49   C     C_R   0.440112 0.791546 0.720124 -0.134573
C50   C     C_R   0.323417 0.814014 0.678732 -0.029597
C51   C     C_R   0.916554 0.313962 0.113173 0.622395
C52   C     C_R   0.331097 0.295145 0.091426 0.561900
C53   C     C_R   0.307853 0.900366 0.105611 0.601261
C54   C     C_R   0.878476 0.311404 0.906038 0.578015
C55   C     C_R   0.289773 0.281038 0.882460 0.570286
C56   C     C_R   0.757455 0.379342 0.612301 0.562913
C57   C     C_R   0.275862 0.893006 0.898260 0.584022
C58   C     C_R   0.788956 0.831460 0.109610 -0.123368
C59   C     C_R   0.781394 0.954469 0.083519 0.109854
C60   C     C_R   0.686234 0.085299 0.113470 0.458234
Cr1   Cr    Cr6+3 0.601770 0.606860 0.505860 1.046518
Cr2   Cr    Cr6+3 0.291380 0.601660 0.495070 1.080154
Cr3   Cr    Cr6+3 0.606880 0.291510 0.499120 1.129977
Cr4   Cr    Cr6+3 0.062440 0.063090 0.008210 1.059497
Cr5   Cr    Cr6+3 0.062880 0.375170 0.998920 1.038339
Cr6   Cr    Cr6+3 0.374700 0.061720 0.992470 1.131495
H1    H     H_    0.583603 0.167674 0.300252 0.165347
H2    H     H_    0.891660 0.673374 0.419686 0.141329
H3    H     H_    0.089509 0.469613 0.359535 0.125044
H4    H     H_    0.776633 0.187035 0.314011 0.214736
H5    H     H_    0.838441 0.157459 0.189404 0.185507
H6    H     H_    0.857114 0.530187 0.327215 0.149199
H7    H     H_    0.194048 0.084545 0.210429 0.136736
H8    H     H_    0.706564 0.745190 0.185053 0.218518
H9    H     H_    0.210571 0.032324 0.337958 0.169679
H10   H     H_    0.463593 0.104836 0.662178 0.157183
H11   H     H_    0.139344 0.523650 0.805988 0.147679
H12   H     H_    0.164319 0.551164 0.679249 0.190190
H13   H     H_    0.768151 0.558005 0.704071 0.157685
H14   H     H_    0.779786 0.546349 0.828699 0.213565
H15   H     H_    0.839583 0.126887 0.824526 0.138590
H16   H     H_    0.083007 0.895403 0.808229 0.159148
H17   H     H_    0.540540 0.761673 0.696095 0.163142
H18   H     H_    0.859231 0.730540 0.085501 0.154300
H19   H     H_    0.178597 0.753039 0.245253 0.155494
H20   H     H_    0.543897 0.972469 0.239347 0.127264
O1    O     O_R   0.748800 0.497470 0.428000 -0.521718
O2    O     O_R   0.300070 0.471040 0.567100 -0.502761
O3    O     O_R   0.491670 0.258900 0.574910 -0.519155
O4    O     O_R   0.718780 0.304180 0.577850 -0.465301
O5    O     O_3   0.500010 0.500010 0.500020 -0.289484
O6    O     O_R   0.186690 0.923650 0.086970 -0.520613
O7    O     O_R   0.957250 0.194250 0.084630 -0.481066
O8    O     O_R   0.934970 0.407490 0.085330 -0.451637
O9    O     O_R   0.203780 0.365190 0.067090 -0.521354
O10   O     O_R   0.417600 0.174890 0.067840 -0.501970
O11   O     O_R   0.375320 0.946260 0.070860 -0.497067
O12   O     O_R   0.476420 0.724060 0.429470 -0.473890
O13   O     O_R   0.160600 0.919630 0.926660 -0.549241
O14   O     O_R   0.933060 0.190520 0.936020 -0.474314
O15   O     O_R   0.908880 0.403460 0.925020 -0.519142
O16   O     O_R   0.179600 0.361450 0.918490 -0.526255
O17   O     O_R   0.391510 0.170860 0.907530 -0.420794
O18   O     O_R   0.351130 0.942530 0.922260 -0.405862
O19   O     O_3   0.166667 0.166667 0.999870 -0.301132
O20   O     O_R   0.264580 0.744340 0.416750 -0.504099
O21   O     O_R   0.309380 0.472470 0.418200 -0.515855
O22   O     O_R   0.501710 0.260430 0.414300 -0.490041
O23   O     O_R   0.728090 0.305600 0.428960 -0.472796
O24   O     O_R   0.738760 0.495930 0.588610 -0.539760
O25   O     O_R   0.467110 0.722640 0.578360 -0.533289
O26   O     O_R   0.254530 0.742800 0.577360 -0.428194
F1    F     F_    0.821030 0.938235 0.401953 -0.616444
F2    F     F_    0.925857 0.522562 0.199496 -0.678831
F3    F     F_    0.524535 0.568113 0.297743 -0.637299
F4    F     F_    0.507638 0.626532 0.156312 -0.594307
F5    F     F_    0.462244 0.051510 0.792292 -0.586913
N1    N     N_3   0.797726 0.120899 0.684583 -0.511369
H21   H     H_    0.691480 0.155555 0.673812 0.245748
H22   H     H_    0.832562 0.032156 0.716859 0.270085
F6    F     F_    0.080038 0.871693 0.673668 -0.611561
F7    F     F_    0.991475 0.975884 0.307941 -0.676928
F8    F     F_    0.544776 0.779175 0.832209 -0.594665
N2    N     N_3   0.867161 0.947758 0.025317 -0.535248
H23   H     H_    0.972740 0.879633 0.039474 0.233624
H24   H     H_    0.843338 0.902903 0.982152 0.217876
F9    F     F_    0.672814 0.205068 0.085320 -0.603368
N3    N     N_3   0.173919 0.582371 0.150603 -0.624224
H25   H     H_    0.223091 0.592028 0.105494 0.251619
H26   H     H_    0.088850 0.570277 0.135815 0.303449

loop_
_geom_bond_atom_site_label_1
_geom_bond_atom_site_label_2
_ccdc_geom_bond_type
C33   C55   S    
C7    C13   A    
C18   H4    S    
C34   O26   A    
C41   C42   A    
C54   O15   A    
C19   H5    S    
C35   C36   A    
Cr5   O15   S    
C32   F5    S    
N3    H25   S    
C48   F8    S    
Cr4   O19   S    
C55   O16   A    
C26   C27   A    
C6    H19   S    
C18   C24   A    
Cr6   O11   S    
Cr6   O10   S    
C36   C37   A    
Cr4   O7    S    
C18   C19   A    
C20   C51   S    
C25   F3    S    
C38   C39   A    
C2    C60   A    
C38   H13   S    
C28   H7    S    
C15   C16   A    
C57   O13   A    
C55   O17   A    
C44   F6    S    
C59   N2    S    
C52   O9    A    
C9    C58   A    
Cr5   O19   S    
N1    H21   S    
Cr1   O1    S    
C46   H16   S    
Cr4   O13   S    
C11   C17   A    
Cr1   O12   S    
C8    C9    A    
C12   C17   S    
C23   C24   S    
C45   O3    A    
C1    O20   A    
C56   O4    A    
C59   C60   A    
C56   O24   A    
C23   O1    A    
C21   C22   A    
C34   O25   A    
C54   O14   A    
Cr5   O16   S    
C10   N3    S    
Cr1   O24   S    
C22   H6    S    
C44   C46   A    
N1    H22   S    
C60   F9    S    
C15   H3    S    
C34   C50   S    
Cr6   O18   S    
C45   O2    A    
C39   C40   A    
C12   O22   A    
C42   N1    S    
Cr2   O21   S    
C53   O11   A    
C58   C59   A    
Cr2   O2    S    
C35   H11   S    
C31   C37   A    
Cr3   O23   S    
C29   C30   A    
C58   H18   S    
C47   C57   S    
C11   C16   S    
C47   C48   A    
Cr5   O9    S    
C41   H15   S    
Cr2   O5    S    
Cr3   O3    S    
C53   O6    A    
C12   O21   A    
C51   O7    A    
C29   H9    S    
C4    C17   A    
Cr5   O8    S    
C40   C54   S    
C22   C24   A    
C2    C5    S    
C9    H8    S    
Cr4   O6    S    
Cr6   O19   S    
C37   C45   S    
Cr1   O25   S    
N2    H24   S    
C44   C50   A    
C25   C30   A    
C57   O18   A    
C46   C47   A    
C28   C29   A    
Cr6   O17   S    
C31   C32   A    
C2    C8    A    
C21   F2    S    
C3    C5    A    
N3    H26   S    
C1    O12   A    
C4    H1    S    
C3    C52   S    
C27   C53   S    
C6    C7    A    
Cr2   O20   S    
C39   H14   S    
C49   H17   S    
C19   C20   A    
C25   C26   A    
C38   C43   A    
C3    C10   A    
C36   H12   S    
C32   C33   A    
C31   H10   S    
C48   C49   A    
C4    C5    A    
Cr3   O4    S    
C1    C30   S    
C33   C35   A    
C52   O10   A    
C8    H20   S    
C26   F4    S    
C10   C11   A    
C51   O8    A    
C6    C16   A    
C43   C56   S    
Cr4   O14   S    
Cr2   O26   S    
C20   C21   A    
C49   C50   A    
C42   C43   A    
Cr3   O5    S    
C27   C28   A    
C14   H2    S    
C14   C15   A    
C40   C41   A    
C7    F7    S    
Cr3   O22   S    
C13   C14   A    
C13   F1    S    
Cr1   O5    S    
C23   O23   A    
N2    H23   S    
