data_mof_unit_9064.cif
_audit_creation_date              2012-12-10T17:10:24-0500
_audit_creation_method            fapswitch 2.2
_symmetry_space_group_name_H-M    P1
_symmetry_Int_Tables_number       1
_space_group_crystal_system       triclinic
_cell_length_a                    10.792041
_cell_length_b                    12.956708
_cell_length_c                    11.676709
_cell_angle_alpha                 99.704394
_cell_angle_beta                  93.637697
_cell_angle_gamma                 90.107629
_cell_volume                      1606.0088264

loop_
_atom_site_label
_atom_site_type_symbol
_atom_type_description
_atom_site_fract_x
_atom_site_fract_y
_atom_site_fract_z
_atom_type_partial_charge
C1    C     C_R   0.505521 0.299427 0.478652 0.823122
C2    C     C_R   0.494476 0.700573 0.521348 0.823122
C3    C     C_R   0.482352 0.813725 0.532791 -0.075217
C4    C     C_R   0.517643 0.186275 0.467209 -0.075218
C5    C     C_R   0.587082 0.017120 0.372387 -0.299524
C6    C     C_R   0.412907 0.982880 0.627610 -0.299528
C7    C     C_R   0.583484 0.125663 0.378274 -0.011435
C8    C     C_R   0.416507 0.874337 0.621724 -0.011436
C9    C     C_R   0.461896 0.137953 0.549688 -0.296622
C10   C     C_R   0.538097 0.862047 0.450311 -0.296622
C11   C     C_R   0.468826 0.030390 0.544770 0.179370
C12   C     C_R   0.531165 0.969609 0.455227 0.179367
C13   C     C_R   0.387134 0.398791 0.021881 -0.333285
C14   C     C_R   0.612866 0.601209 0.978119 -0.333285
C15   C     C_R   0.397456 0.408832 0.144052 0.108815
C16   C     C_R   0.602544 0.591168 0.855948 0.108820
C17   C     C_R   0.548076 0.544243 0.157011 0.049416
C18   C     C_R   0.451924 0.455757 0.842989 0.049417
C19   C     C_R   0.540814 0.536899 0.034190 0.063486
C20   C     C_R   0.459186 0.463101 0.965810 0.063487
C21   C     C_R   0.262836 0.500447 0.500448 0.816472
C22   C     C_R   0.737164 0.499552 0.499552 0.816475
C23   C     C_R   0.132682 0.322864 0.552130 -0.161385
C24   C     C_R   0.867318 0.677135 0.447873 -0.161386
C25   C     C_R   0.069820 0.236012 0.576817 -0.149119
C26   C     C_R   0.930180 0.763988 0.423187 -0.149119
C27   C     C_R   0.941094 0.235878 0.577003 -0.136746
C28   C     C_R   0.058907 0.764123 0.423004 -0.136750
C29   C     C_R   0.874773 0.322517 0.552325 -0.086888
C30   C     C_R   0.125228 0.677484 0.447681 -0.086894
C31   C     C_R   0.936645 0.411766 0.526828 0.078057
C32   C     C_R   0.063355 0.588234 0.473175 0.078057
C33   C     C_R   0.067180 0.412138 0.527338 0.061292
C34   C     C_R   0.932820 0.587861 0.472663 0.061292
C35   C     C_R   0.870871 0.499486 0.499055 -0.167532
C36   C     C_R   0.129129 0.500513 0.500946 -0.167532
Cu1   Cu    Cu3+1 0.509250 0.507730 0.615930 0.968042
Cu2   Cu    Cu3+1 0.490750 0.492270 0.384070 0.968039
H1    H     H_    0.107730 0.831801 0.404242 0.137216
H2    H     H_    0.892271 0.168201 0.595767 0.137216
H3    H     H_    0.323381 0.341125 0.971787 0.138344
H4    H     H_    0.676618 0.658875 0.028213 0.138344
H5    H     H_    0.232723 0.318672 0.551858 0.121192
H6    H     H_    0.767277 0.681327 0.448144 0.121193
H7    H     H_    0.121250 0.168436 0.595423 0.132040
H8    H     H_    0.878749 0.831563 0.404581 0.132042
H9    H     H_    0.774785 0.318161 0.552615 0.145961
H10   H     H_    0.225216 0.681841 0.447393 0.145959
H11   H     H_    0.588215 0.815618 0.382370 0.143064
H12   H     H_    0.411779 0.184382 0.617630 0.143063
H13   H     H_    0.636681 0.969677 0.304831 0.125111
H14   H     H_    0.363307 0.030323 0.695164 0.125110
H15   H     H_    0.389111 0.399415 0.789573 0.114202
H16   H     H_    0.610889 0.600585 0.210427 0.114203
H17   H     H_    0.658328 0.641198 0.813697 0.125731
H18   H     H_    0.341672 0.358802 0.186303 0.125731
N1    N     N_R   0.523180 0.519350 0.790130 -0.178013
N2    N     N_R   0.476820 0.480650 0.209870 -0.178014
O1    O     O_R   0.506570 0.354460 0.582000 -0.611927
O2    O     O_R   0.493430 0.645540 0.418000 -0.611927
O3    O     O_R   0.490940 0.341410 0.386200 -0.551157
O4    O     O_R   0.509060 0.658590 0.613800 -0.551149
O5    O     O_R   0.327470 0.506520 0.597900 -0.548358
O6    O     O_R   0.672530 0.493480 0.402100 -0.548360
O7    O     O_R   0.311840 0.493460 0.402100 -0.601058
O8    O     O_R   0.688160 0.506540 0.597900 -0.601060
C37   C     C_2   0.345365 0.829719 0.707016 0.353035
H19   H     H_    0.328082 0.877923 0.789781 0.062624
O9    O     O_2   0.299347 0.742011 0.684311 -0.538323
C38   C     C_2   0.654624 0.170281 0.292982 0.353043
H20   H     H_    0.671889 0.122084 0.210208 0.062622
O10   O     O_2   0.700660 0.257983 0.315696 -0.538326

loop_
_geom_bond_atom_site_label_1
_geom_bond_atom_site_label_2
_ccdc_geom_bond_type
Cu1   Cu2   S    
C1    O3    A    
C6    C8    A    
C11   C12   A    
C31   C33   A    
C22   O8    A    
C38   H20   S    
C14   C16   A    
C27   C29   A    
C27   H2    S    
C18   N1    A    
C18   C20   A    
C19   C20   A    
C18   H15   S    
Cu2   O7    S    
C17   N2    A    
C14   H4    S    
C1    C4    S    
C6    H14   S    
C15   H18   S    
Cu2   O3    S    
C7    C38   S    
C28   C30   A    
C2    C3    S    
C16   H17   S    
C29   C31   A    
C21   C36   S    
Cu1   O8    S    
C30   C32   A    
C22   C35   S    
C9    C11   A    
Cu1   O1    S    
C10   C12   A    
C29   H9    S    
C4    C7    A    
Cu2   O2    S    
C32   C36   A    
C31   C35   A    
C30   H10   S    
Cu1   O5    S    
C1    O1    A    
C24   C26   A    
Cu1   O4    S    
Cu2   O6    S    
C16   N1    A    
C23   C25   A    
C13   C15   A    
Cu1   N1    S    
C24   H6    S    
C15   N2    A    
C2    O2    A    
C21   O5    A    
C25   C27   A    
C5    C12   A    
C26   H8    S    
C22   O6    A    
C37   H19   S    
C25   H7    S    
C33   C36   A    
C23   H5    S    
C3    C8    A    
C8    C37   S    
C5    C7    A    
C34   C35   A    
C37   O9    D    
C6    C11   A    
C3    C10   A    
C17   H16   S    
C13   H3    S    
C17   C19   A    
C38   O10   D    
C28   H1    S    
C21   O7    A    
C4    C9    A    
Cu2   N2    S    
C10   H11   S    
C26   C28   A    
C14   C19   A    
C13   C20   A    
C5    H13   S    
C9    H12   S    
C2    O4    A    
C32   C34   A    
C23   C33   A    
C24   C34   A    
