data_mof_unit_18487.cif
_audit_creation_date              2013-03-05T15:53:06-0500
_audit_creation_method            fapswitch 2.2
_symmetry_space_group_name_H-M    P1
_symmetry_Int_Tables_number       1
_space_group_crystal_system       triclinic
_cell_length_a                    9.948257
_cell_length_b                    10.706648
_cell_length_c                    15.23396
_cell_angle_alpha                 94.272776
_cell_angle_beta                  69.763852
_cell_angle_gamma                 88.160229
_cell_volume                      1515.31297816

loop_
_atom_site_label
_atom_site_type_symbol
_atom_site_description
_atom_site_fract_x
_atom_site_fract_y
_atom_site_fract_z
_atom_type_partial_charge
O1    O     O_R   0.385310 0.683220 0.500000 -0.653757
O2    O     O_R   0.614640 0.683250 0.500010 -0.540222
C1    C     C_R   0.500835 0.739111 0.492459 0.894355
O3    O     O_R   0.319840 0.499980 0.632240 -0.664553
O4    O     O_R   0.549160 0.500000 0.632250 -0.489489
C2    C     C_R   0.411438 0.494611 0.676032 0.923444
Zn1   Zn    Zn3+2 0.346880 0.499980 0.499990 0.931276
Zn2   Zn    Zn3+2 0.653120 0.500020 0.500010 1.021468
O5    O     O_R   0.385360 0.316750 0.499990 -0.617816
O6    O     O_R   0.614690 0.316780 0.500000 -0.616891
O7    O     O_R   0.450840 0.500000 0.367750 -0.614631
O8    O     O_R   0.680160 0.500020 0.367760 -0.620147
C3    C     C_R   0.498118 0.261284 0.506924 0.859142
C4    C     C_R   0.588657 0.492681 0.323610 0.850238
C5    C     C_R   0.358096 0.468690 0.775761 -0.177011
C6    C     C_R   0.636068 0.450629 0.223087 -0.051295
C7    C     C_R   0.156950 0.464068 0.921609 -0.212051
C8    C     C_R   0.210325 0.485231 0.827148 -0.263876
C9    C     C_R   0.452218 0.421639 0.818862 0.444640
C10   C     C_R   0.396037 0.388069 0.912395 -0.032898
C11   C     C_R   0.249752 0.421734 0.965606 0.111500
C12   C     C_R   0.485837 0.341230 0.958912 0.066030
C13   C     C_R   0.445168 0.373348 0.056136 0.059651
C14   C     C_R   0.298799 0.404483 0.108646 -0.221417
C15   C     C_R   0.200762 0.421537 0.063289 -0.204607
C16   C     C_R   0.619100 0.273803 0.911555 -0.175779
C17   C     C_R   0.721037 0.263048 0.955091 -0.281195
C18   C     C_R   0.692670 0.322217 0.045249 0.178809
C19   C     C_R   0.553999 0.378631 0.095900 0.083826
C20   C     C_R   0.800540 0.327827 0.085268 -0.216173
C21   C     C_R   0.771658 0.390326 0.174543 -0.205727
C22   C     C_R   0.530868 0.447792 0.181601 -0.254027
H1    H     H_    0.089385 0.446686 0.104970 0.144569
H2    H     H_    0.429670 0.500460 0.217515 0.161991
H3    H     H_    0.853016 0.387936 0.206757 0.148833
H4    H     H_    0.824777 0.215428 0.916157 0.145687
H5    H     H_    0.043949 0.485835 0.961190 0.159940
H6    H     H_    0.136155 0.519738 0.795270 0.192541
H7    H     H_    0.258394 0.414579 0.184606 0.144312
H8    H     H_    0.646695 0.232809 0.839984 0.199645
H9    H     H_    0.906310 0.282902 0.048029 0.141955
H10   H     H_    0.728612 0.876010 0.443784 0.231019
C23   C     C_R   0.238111 0.901407 0.499845 -0.242272
H11   H     H_    0.239314 0.814673 0.458701 0.207114
C24   C     C_R   0.107922 0.974562 0.537428 0.382236
C25   C     C_R   0.104058 0.089014 0.589090 -0.235740
H12   H     H_    0.004243 0.144835 0.623269 0.180317
C26   C     C_R   0.230924 0.136687 0.591695 -0.211199
H13   H     H_    0.224577 0.227133 0.630254 0.173962
C27   C     C_R   0.364127 0.071143 0.541140 0.101426
C28   C     C_R   0.365782 0.945566 0.509037 0.052714
C29   C     C_R   0.497225 0.872453 0.484668 -0.165985
C30   C     C_R   0.626702 0.930140 0.467258 -0.162778
H14   H     H_    0.728062 0.101979 0.458009 0.201385
C31   C     C_R   0.626308 0.058323 0.478942 -0.145395
C32   C     C_R   0.495829 0.129055 0.515637 -0.131578
H15   H     H_    0.937018 0.353308 0.392671 0.130257
C33   C     C_R   0.795460 0.681701 0.631915 0.550801
C34   C     C_R   0.843324 0.754819 0.695845 -0.413143
H16   H     H_    0.767931 0.813511 0.753135 0.152793
C35   C     C_R   0.985345 0.749703 0.690473 0.490797
C36   C     C_R   0.079342 0.665010 0.623794 -0.257086
H17   H     H_    0.185743 0.665215 0.623219 0.245064
C37   C     C_R   0.039502 0.583847 0.561822 0.031172
C38   C     C_R   0.893767 0.587276 0.563368 0.118153
N1    N     N_R   0.856800 0.501200 0.500850 -0.091274
C39   C     C_R   0.962560 0.419397 0.440992 -0.105351
H18   H     H_    0.186483 0.353734 0.392392 0.140201
C40   C     C_R   0.105231 0.419686 0.440904 -0.079782
N2    N     N_R   0.142390 0.501280 0.500880 -0.097961
N3    N     N_R   0.980675 0.933472 0.522800 0.181300
O9    O     O_R   0.987766 0.838880 0.462222 -0.458593
O10   O     O_R   0.857770 0.995048 0.566152 -0.477457
O11   O     O_3   0.650897 0.691067 0.644577 -0.560917
C41   C     C_3   0.574522 0.806570 0.688032 -0.290708
H19   H     H_    0.634267 0.888672 0.659033 0.223919
H20   H     H_    0.543644 0.810914 0.765571 0.131602
H21   H     H_    0.471865 0.811779 0.674786 0.180671
O12   O     O_3   0.039254 0.818391 0.751318 -0.604954
C42   C     C_3   0.954407 0.928265 0.797467 -0.300476
H22   H     H_    0.860805 0.904824 0.857923 0.163182
H23   H     H_    0.919494 0.982676 0.748891 0.178442
H24   H     H_    0.020043 0.989753 0.826027 0.187169
O13   O     O_3   0.599055 0.416044 0.771153 -0.607385
C43   C     C_3   0.658087 0.518413 0.806149 -0.251764
H25   H     H_    0.652628 0.511904 0.879502 0.155159
H26   H     H_    0.603544 0.609111 0.803265 0.176496
H27   H     H_    0.773555 0.517817 0.763270 0.174155

loop_
_geom_bond_atom_site_label_1
_geom_bond_atom_site_label_2
_geom_bond_distance
_ccdc_geom_bond_type
C5    C8    1.404201 A    
C31   C32   1.393825 A    
Zn2   N1    2.031161 S    
C24   N3    1.435959 S    
C9    C10   1.417787 A    
C41   H19   1.109463 S    
C23   C28   1.417048 A    
Zn1   N2    2.029262 S    
C43   H25   1.107433 S    
C6    C21   1.402173 A    
C5    C9    1.416328 A    
C16   C17   1.396657 A    
C13   C19   1.412393 A    
C18   C19   1.415626 A    
C19   C22   1.393888 A    
C42   H24   1.109282 S    
H10   C30   1.082684 S    
C20   C21   1.400594 A    
O7    C4    1.298275 A    
C14   H7    1.081250 S    
O5    C3    1.292545 A    
C36   C37   1.400791 A    
C2    C5    1.476942 S    
H14   C31   1.083581 S    
H18   C40   1.081897 S    
C13   C14   1.412310 A    
C20   H9    1.083638 S    
C37   N2    1.361357 A    
C3    C32   1.431920 S    
C30   C31   1.370390 A    
N1    C39   1.365175 A    
C34   H16   1.074383 S    
C40   N2    1.367501 A    
H15   C39   1.081871 S    
O3    Zn1   1.938152 S    
C27   C28   1.393620 A    
C43   H26   1.108311 S    
C25   C26   1.388516 A    
C34   C35   1.385729 A    
O11   C41   1.419349 S    
C28   C29   1.419732 A    
O13   C43   1.414639 S    
O3    C2    1.304459 A    
N3    O10   1.300203 A    
C33   C34   1.420998 A    
C24   C25   1.398143 A    
C27   C32   1.409956 A    
C39   C40   1.418965 A    
C22   H2    1.080464 S    
Zn1   O7    1.920091 S    
C23   H11   1.078301 S    
C36   H17   1.055582 S    
C41   H20   1.109812 S    
C33   C38   1.463448 A    
Zn2   O8    1.938149 S    
C7    C8    1.389887 A    
C7    H5    1.083952 S    
C14   C15   1.391229 A    
C23   C24   1.404912 A    
C42   H23   1.112052 S    
C26   H13   1.082788 S    
C10   C12   1.419110 A    
C21   H3    1.082536 S    
C9    O13   1.385320 S    
C29   C30   1.396461 A    
C33   O11   1.382563 S    
C43   H27   1.107290 S    
Zn1   O5    1.986680 S    
C11   C15   1.396706 A    
C25   H12   1.082668 S    
O1    Zn1   2.010801 S    
O2    Zn2   1.986681 S    
O8    C4    1.306688 A    
C42   H22   1.111061 S    
O6    C3    1.295384 A    
O4    Zn2   1.920091 S    
C1    C29   1.441691 S    
C17   H4    1.083758 S    
C6    C22   1.397271 A    
C37   C38   1.441077 A    
C18   C20   1.406453 A    
O2    C1    1.307512 A    
C8    H6    1.083455 S    
N3    O9    1.301308 A    
C16   H8    1.081976 S    
O4    C2    1.305367 A    
C35   O12   1.398305 S    
C26   C27   1.412561 A    
C4    C6    1.467724 S    
C35   C36   1.371021 A    
C41   H21   1.107875 S    
C7    C11   1.397663 A    
O12   C42   1.411774 S    
C10   C11   1.418301 A    
Zn2   O6    2.010800 S    
C38   N1    1.422983 A    
C12   C16   1.413688 A    
C17   C18   1.399336 A    
C12   C13   1.405796 A    
O1    C1    1.286537 A    
C15   H1    1.082606 S    
