data_mof_unit_18243.cif
_audit_creation_date              2012-10-26T21:10:48-0400
_audit_creation_method            fapswitch 2.2
_symmetry_space_group_name_H-M    P1
_symmetry_Int_Tables_number       1
_space_group_crystal_system       triclinic
_cell_length_a                    10.898549
_cell_length_b                    14.597525
_cell_length_c                    14.761355
_cell_angle_alpha                 65.319982
_cell_angle_beta                  103.084075
_cell_angle_gamma                 101.649444
_cell_volume                      2063.13548889

loop_
_atom_site_label
_atom_site_type_symbol
_atom_type_description
_atom_site_fract_x
_atom_site_fract_y
_atom_site_fract_z
_atom_type_partial_charge
C1    C     C_R   0.482585 0.119941 0.312570 0.577681
C2    C     C_R   0.606992 0.784493 0.971928 0.259757
C3    C     C_R   0.406477 0.153193 0.131609 -0.183286
C4    C     C_R   0.598926 0.846953 0.867900 -0.184913
C5    C     C_R   0.535970 0.288896 0.175896 0.214342
C6    C     C_R   0.465895 0.711584 0.825075 0.215404
C7    C     C_R   0.496297 0.359617 0.077599 -0.006508
C8    C     C_R   0.506714 0.641028 0.923088 -0.014913
C9    C     C_R   0.440224 0.321140 0.001587 0.036729
C10   C     C_R   0.564575 0.679554 0.998735 0.037513
C11   C     C_R   0.512424 0.466692 0.051789 0.063135
C12   C     C_R   0.517962 0.880068 0.687484 0.581525
C13   C     C_R   0.490126 0.533978 0.948908 0.054073
C14   C     C_R   0.459105 0.492611 0.874570 -0.094488
C15   C     C_R   0.543264 0.508275 0.125974 -0.090059
C16   C     C_R   0.262925 0.001353 0.500973 0.560504
C17   C     C_R   0.736982 0.998828 0.498644 0.562742
C18   C     C_R   0.428350 0.388557 0.900193 -0.095599
C19   C     C_R   0.575741 0.612257 0.100210 -0.094830
C20   C     C_R   0.696535 0.276016 0.679357 -0.157590
C21   C     C_R   0.306920 0.725257 0.318887 -0.154411
C22   C     C_R   0.675492 0.197710 0.643251 0.436850
C23   C     C_R   0.869523 0.997229 0.495911 0.012878
C24   C     C_R   0.325823 0.801645 0.356350 0.416758
C25   C     C_R   0.523471 0.287969 0.506418 0.045657
C26   C     C_R   0.475936 0.711708 0.493988 0.043962
C27   C     C_R   0.548982 0.371416 0.535340 -0.000425
C28   C     C_R   0.451046 0.628378 0.464639 -0.004585
C29   C     C_R   0.630844 0.360694 0.627264 -0.013461
C30   C     C_R   0.370663 0.639684 0.371829 -0.016765
C31   C     C_R   0.491936 0.462544 0.478963 0.028953
C32   C     C_R   0.508266 0.537316 0.520916 0.028344
C33   C     C_R   0.581293 0.518691 0.617521 -0.136310
C34   C     C_R   0.130196 0.003081 0.503113 0.012800
C35   C     C_R   0.419902 0.481531 0.381939 -0.137336
C36   C     C_R   0.644763 0.433563 0.667967 -0.142132
C37   C     C_R   0.357495 0.567217 0.330834 -0.144263
C38   C     C_R   0.285467 0.246035 0.644312 -0.130511
C39   C     C_R   0.704860 0.763906 0.346219 -0.124899
C40   C     C_R   0.241113 0.161853 0.618278 -0.081572
C41   C     C_R   0.754712 0.845544 0.375348 -0.076553
C42   C     C_R   0.162789 0.173440 0.525349 0.038926
C43   C     C_R   0.835676 0.829731 0.468028 0.040249
C44   C     C_R   0.132960 0.271114 0.458092 -0.110879
C45   C     C_R   0.914899 0.917140 0.487593 -0.034174
C46   C     C_R   0.863999 0.730563 0.531274 -0.118659
C47   C     C_R   0.174703 0.354187 0.485662 -0.114249
C48   C     C_R   0.817435 0.650153 0.500191 -0.121090
C49   C     C_R   0.249507 0.341361 0.579293 -0.098952
C50   C     C_R   0.739142 0.667090 0.407170 -0.097715
C51   C     C_R   0.955062 0.078914 0.506231 -0.118223
C52   C     C_R   0.044644 0.921120 0.493199 -0.127598
C53   C     C_3   0.362426 0.076259 0.981525 -0.016219
C54   C     C_3   0.344008 0.050648 0.889324 -0.386366
C55   C     C_3   0.678777 0.926723 0.015775 -0.016581
C56   C     C_R   0.084525 0.083701 0.510135 -0.036971
C57   C     C_3   0.705068 0.957330 0.105462 -0.386656
C58   C     C_3   0.133840 0.868285 0.280133 -0.023931
C59   C     C_3   0.093676 0.907943 0.165944 -0.402061
C60   C     C_3   0.839261 0.108123 0.768234 -0.047384
C61   C     C_3   0.959809 0.174466 0.730644 -0.380997
C62   C     C_R   0.475044 0.188399 0.205285 -0.045556
C63   C     C_R   0.527340 0.811810 0.794941 -0.040517
C64   C     C_R   0.400849 0.215915 0.028062 0.256590
Cu1   Cu    Cu3+1 0.466270 0.918260 0.475690 1.041479
Cu2   Cu    Cu3+1 0.533730 0.081740 0.524310 1.057560
H1    H     H_    0.280862 0.405589 0.601054 0.133437
H2    H     H_    0.244778 0.733297 0.248181 0.101735
H3    H     H_    0.592393 0.569257 0.655834 0.108676
H4    H     H_    0.409308 0.430988 0.343644 0.104149
H5    H     H_    0.345068 0.237667 0.715840 0.135176
H6    H     H_    0.641751 0.775458 0.275455 0.137239
H7    H     H_    0.262571 0.087122 0.672128 0.126214
H8    H     H_    0.734194 0.921450 0.324264 0.126498
H9    H     H_    0.070146 0.281559 0.387102 0.140080
H10   H     H_    0.928414 0.716741 0.602037 0.145680
H11   H     H_    0.147183 0.428229 0.435116 0.126483
H12   H     H_    0.703565 0.604864 0.382857 0.136040
H13   H     H_    0.843410 0.574892 0.547693 0.131558
H14   H     H_    0.921073 0.140679 0.512331 0.172192
H15   H     H_    0.078688 0.859132 0.487575 0.147702
H16   H     H_    0.396409 0.361196 0.839869 0.160398
H17   H     H_    0.608406 0.639630 0.160487 0.159832
H18   H     H_    0.644156 0.924371 0.842504 0.135052
H19   H     H_    0.361586 0.075619 0.155539 0.155619
H20   H     H_    0.288236 0.027145 0.027281 0.138330
H21   H     H_    0.458567 0.058281 0.024745 0.131508
H22   H     H_    0.421429 0.092705 0.844437 0.140202
H23   H     H_    0.457477 0.540336 0.795683 0.174244
H24   H     H_    0.346671 0.968003 0.913452 0.118885
H25   H     H_    0.250408 0.070267 0.842673 0.156288
H26   H     H_    0.592250 0.960526 0.966424 0.128327
H27   H     H_    0.762071 0.958657 0.975564 0.125409
H28   H     H_    0.787135 0.921737 0.159949 0.157169
H29   H     H_    0.727408 0.041159 0.079237 0.114536
H30   H     H_    0.619857 0.933809 0.142939 0.139747
H31   H     H_    0.088411 0.909953 0.309021 0.154951
H32   H     H_    0.095255 0.786673 0.315324 0.112448
H33   H     H_    0.143353 0.873812 0.132108 0.141783
H34   H     H_    0.543956 0.460858 0.204820 0.162866
H35   H     H_    0.989918 0.888205 0.147471 0.125971
H36   H     H_    0.116626 0.991841 0.132508 0.152256
H37   H     H_    0.862196 0.028657 0.806446 0.147655
H38   H     H_    0.811521 0.123525 0.827900 0.097533
H39   H     H_    0.944352 0.255400 0.688962 0.152705
H40   H     H_    0.036799 0.168233 0.795954 0.130161
H41   H     H_    0.990654 0.148117 0.679892 0.162100
H42   H     H_    0.232040 0.654604 0.626950 0.357245
H43   H     H_    0.857672 0.419862 0.209119 0.360924
H44   H     H_    0.703661 0.423907 0.740419 0.125974
H45   H     H_    0.299819 0.577515 0.257814 0.121262
H46   H     H_    0.546939 0.714093 0.557116 0.142285
H47   H     H_    0.451646 0.285308 0.443798 0.133404
H48   H     H_    0.762338 0.273230 0.746956 0.092154
N1    N     N_R   0.584450 0.204570 0.560790 -0.216150
N2    N     N_R   0.415550 0.795430 0.439210 -0.221479
O1    O     O_R   0.455540 0.022090 0.338120 -0.475369
O2    O     O_3   0.661608 0.819479 0.049125 -0.569029
O3    O     O_3   0.267273 0.889403 0.303921 -0.533920
O4    O     O_3   0.738895 0.111230 0.687517 -0.524811
O5    O     O_2   0.233370 0.602258 0.829756 -0.283217
O6    O     O_2   0.245646 0.782298 0.718798 -0.301640
O7    O     O_3   0.320530 0.659981 0.661999 -0.557642
O8    O     O_2   0.678636 0.336078 0.330393 -0.317539
O9    O     O_2   0.756421 0.219084 0.283040 -0.301669
O10   O     O_3   0.776885 0.409803 0.165511 -0.525076
O11   O     O_R   0.544460 0.977910 0.661880 -0.483184
O12   O     O_R   0.512510 0.160150 0.379180 -0.463316
O13   O     O_R   0.487490 0.839850 0.620820 -0.457419
O14   O     O_R   0.291160 0.930970 0.479480 -0.465025
O15   O     O_R   0.708840 0.069030 0.520520 -0.441352
O16   O     O_R   0.348130 0.069020 0.520540 -0.529387
O17   O     O_R   0.651870 0.930980 0.479460 -0.530411
O18   O     O_3   0.348636 0.179935 0.951523 -0.571088
S1    S     S_3+6 0.311174 0.688474 0.759266 -0.012681
S2    S     S_3+6 0.689587 0.312173 0.243082 -0.014906

loop_
_geom_bond_atom_site_label_1
_geom_bond_atom_site_label_2
_ccdc_geom_bond_type
C5    S2    S    
C20   H48   S    
C34   C56   A    
C8    C13   A    
C23   C45   A    
C17   O15   A    
C9    C64   A    
C59   H33   S    
C14   C18   A    
C58   H32   S    
C1    O12   A    
C15   H34   S    
C55   H27   S    
C1    C62   S    
C46   H10   S    
Cu1   O14   S    
C2    O2    S    
C17   O17   A    
C39   C41   A    
C38   C49   A    
C53   C54   S    
Cu2   O11   S    
C7    C11   A    
C29   C36   A    
C55   H26   S    
C48   H13   S    
C35   C37   A    
C54   H24   S    
C25   N1    A    
C27   C29   A    
C22   O4    S    
C33   C36   A    
C40   H7    S    
C51   C56   A    
C51   H14   S    
C16   C34   S    
C41   H8    S    
C15   C19   A    
C11   C15   A    
C35   H4    S    
C57   H30   S    
C39   H6    S    
C53   H20   S    
C60   H37   S    
C61   H39   S    
C44   C47   A    
C33   H3    S    
C42   C56   S    
C40   C42   A    
O10   S2    S    
C13   C14   A    
C12   O11   A    
C41   C43   A    
C58   H31   S    
C42   C44   A    
C19   H17   S    
C50   H12   S    
Cu2   O16   S    
C20   C29   A    
C46   C48   A    
Cu2   N1    S    
O8    S2    D    
C27   C31   A    
C59   H35   S    
C64   O18   S    
C28   C32   A    
C47   C49   A    
C12   O13   A    
C5    C7    A    
C12   C63   S    
C6    C8    A    
C45   C52   A    
C58   C59   S    
C3    C64   A    
C30   C37   A    
O7    S1    S    
C60   C61   S    
C6    C63   A    
C44   H9    S    
C2    C4    A    
C14   H23   S    
C6    S1    S    
C25   H47   S    
C9    C18   A    
C23   C51   A    
C31   C32   A    
C4    H18   S    
C10   C19   A    
C53   H21   S    
C17   C23   S    
O5    S1    D    
C61   H40   S    
C43   C45   S    
O9    S2    D    
C4    C63   A    
C22   N1    A    
C20   C22   A    
C24   N2    A    
C57   H28   S    
C55   C57   S    
C21   H2    S    
C36   H44   S    
Cu1   N2    S    
C31   C35   A    
C3    H19   S    
C47   H11   S    
H42   O7    S    
C2    C10   A    
C26   H46   S    
C16   O14   A    
Cu2   O15   S    
C3    C62   A    
C7    C9    A    
C38   H5    S    
C24   O3    S    
C49   H1    S    
C59   H36   S    
C26   C28   A    
C53   O18   S    
Cu1   O13   S    
C25   C27   A    
C21   C30   A    
C34   C52   A    
C32   C33   A    
C54   H22   S    
C28   C30   A    
C54   H25   S    
C60   H38   S    
C38   C40   A    
C11   C13   A    
C48   C50   A    
C58   O3    S    
C18   H16   S    
Cu2   O12   S    
C5    C62   A    
C60   O4    S    
C52   H15   S    
C16   O16   A    
C43   C46   A    
C26   N2    A    
O6    S1    D    
C37   H45   S    
H43   O10   S    
C39   C50   A    
C8    C10   A    
Cu1   Cu2   S    
C57   H29   S    
C21   C24   A    
Cu1   O1    S    
C1    O1    A    
C61   H41   S    
Cu1   O17   S    
C55   O2    S    
