data_mof_unit_51874.cif
_audit_creation_date              2012-12-11T16:53:35-0500
_audit_creation_method            fapswitch 2.2
_symmetry_space_group_name_H-M    P1
_symmetry_Int_Tables_number       1
_space_group_crystal_system       triclinic
_cell_length_a                    14.911546
_cell_length_b                    14.755001
_cell_length_c                    17.099
_cell_angle_alpha                 109.22286
_cell_angle_beta                  106.434078
_cell_angle_gamma                 108.020112
_cell_volume                      3052.26309135

loop_
_atom_site_label
_atom_site_type_symbol
_atom_type_description
_atom_site_fract_x
_atom_site_fract_y
_atom_site_fract_z
_atom_type_partial_charge
C1    C     C_R   0.092886 0.275545 0.028122 -0.127819
C2    C     C_R   0.063930 0.508779 0.262661 -0.134948
C3    C     C_R   0.225890 0.799875 0.187998 -0.110252
C4    C     C_R   0.934547 0.521955 0.749161 -0.043180
C5    C     C_R   0.746846 0.471751 0.054799 -0.126978
C6    C     C_R   0.245943 0.806560 0.274785 0.059312
C7    C     C_R   0.720886 0.550426 0.044546 0.007317
C8    C     C_R   0.971911 0.474907 0.272084 0.064564
C9    C     C_R   0.003366 0.809921 0.951671 -0.052787
C10   C     C_R   0.529691 0.656157 0.060563 0.188591
C11   C     C_R   0.466953 0.578933 0.076964 0.060902
C12   C     C_R   0.024912 0.586142 0.749542 -0.012320
C13   C     C_R   0.510130 0.524188 0.116523 -0.215370
C14   C     C_R   0.608347 0.534605 0.125881 -0.215614
C15   C     C_R   0.660430 0.592131 0.088062 0.072198
C16   C     C_R   0.718886 0.215762 0.823462 -0.266491
C17   C     C_R   0.627796 0.663972 0.067235 0.086273
C18   C     C_3   0.677922 0.783376 0.126873 -0.610405
C19   C     C_3   0.570887 0.774928 0.113769 -0.151947
C20   C     C_R   0.961705 0.508953 0.357970 0.138475
C21   C     C_R   0.030541 0.625821 0.682494 0.140960
C22   C     C_R   0.133340 0.678090 0.604544 -0.227253
C23   C     C_R   0.662811 0.218660 0.744765 -0.121897
C24   C     C_R   0.127541 0.681129 0.684931 -0.169831
C25   C     C_R   0.938726 0.586812 0.604548 -0.269111
C26   C     C_R   0.944301 0.573935 0.522598 0.181040
C27   C     C_R   0.042870 0.615792 0.522101 0.190104
C28   C     C_R   0.299417 0.586702 0.998241 0.696000
C29   C     C_R   0.050435 0.585487 0.439505 -0.279794
C30   C     C_R   0.863004 0.473171 0.358482 -0.180741
C31   C     C_R   0.854162 0.507320 0.440501 -0.220578
C32   C     C_R   0.553238 0.145037 0.678855 0.157908
C33   C     C_R   0.285230 0.902456 0.361532 0.121315
C34   C     C_R   0.356874 0.550612 0.048130 -0.099111
C35   C     C_R   0.378480 0.096267 0.450121 -0.008551
C36   C     C_R   0.315599 0.004481 0.365769 -0.259130
C37   C     C_R   0.303118 0.892862 0.442698 -0.277801
C38   C     C_R   0.372965 0.981444 0.526160 0.186608
C39   C     C_R   0.415075 0.083570 0.529974 0.080076
C40   C     C_R   0.727682 0.310686 0.746653 0.695648
C41   C     C_R   0.501846 0.166369 0.609492 -0.263485
C42   C     C_R   0.503360 0.046904 0.678236 -0.164457
C43   C     C_R   0.411707 0.966348 0.603125 -0.228188
C44   C     C_R   0.109812 0.073451 0.923594 0.140433
C45   C     C_R   0.225034 0.704325 0.265253 -0.111835
C46   C     C_R   0.014405 0.074324 0.918310 0.034791
C47   C     C_R   0.923089 0.976391 0.859715 -0.213661
C48   C     C_R   0.927304 0.887400 0.799319 -0.128873
C49   C     C_R   0.022398 0.894201 0.797094 0.030288
C50   C     C_R   0.113407 0.984956 0.864696 0.155101
C51   C     C_3   0.203891 0.051901 0.855641 -0.483300
C52   C     C_R   0.293035 0.492524 0.076198 -0.258190
C53   C     C_3   0.200232 0.149241 0.919708 -0.505728
C54   C     C_R   0.107488 0.606734 0.825817 -0.104055
C55   C     C_R   0.919089 0.190920 0.950160 -0.121184
C56   C     C_R   0.748973 0.566063 0.976568 -0.026777
C57   C     C_R   0.008833 0.175179 0.966282 0.054571
C58   C     C_R   0.696142 0.601222 0.914198 0.142298
C59   C     C_R   0.616143 0.524224 0.827274 -0.037796
C60   C     C_R   0.561713 0.555790 0.768913 -0.070305
C61   C     C_R   0.587067 0.664288 0.796715 -0.073502
C62   C     C_R   0.667238 0.741460 0.882913 -0.051870
C63   C     C_R   0.721671 0.710045 0.941500 -0.096928
C64   C     C_R   0.556704 0.815175 0.201400 0.213761
C65   C     C_R   0.510530 0.885446 0.213926 -0.151268
C66   C     C_R   0.497912 0.925815 0.294160 -0.113923
C67   C     C_R   0.891132 0.422744 0.185526 -0.139567
C68   C     C_R   0.529573 0.895348 0.362322 -0.067005
C69   C     C_R   0.575138 0.825172 0.350695 -0.140047
C70   C     C_R   0.589399 0.785722 0.271082 -0.147114
C71   C     C_R   0.413253 0.202390 0.451016 0.136036
C72   C     C_R   0.470161 0.225740 0.401451 -0.129045
C73   C     C_R   0.502557 0.325829 0.402294 -0.107724
C74   C     C_R   0.477586 0.402812 0.451815 -0.071966
C75   C     C_R   0.420385 0.379914 0.500741 -0.097592
C76   C     C_R   0.388699 0.280284 0.500842 -0.159142
C77   C     C_R   0.085996 0.800534 0.003842 -0.286621
C78   C     C_R   0.917540 0.714247 0.920253 0.685640
F1    F     F_    0.832811 0.674223 0.840669 -0.719474
F2    F     F_    0.337501 0.663971 0.974079 -0.761756
F3    F     F_    0.702008 0.358064 0.694038 -0.750220
H1    H     H_    0.174422 0.293600 0.055362 0.105755
H2    H     H_    0.855398 0.501787 0.707037 0.189014
H3    H     H_    0.712725 0.831270 0.095844 0.192069
H4    H     H_    0.543376 0.808409 0.067404 0.169240
H5    H     H_    0.126535 0.617907 0.440136 0.112255
H6    H     H_    0.792580 0.417471 0.296292 0.111286
H7    H     H_    0.209239 0.713456 0.605299 0.122032
H8    H     H_    0.777986 0.475411 0.440175 0.130111
H9    H     H_    0.199553 0.717508 0.745845 0.122174
H10   H     H_    0.862805 0.550538 0.602979 0.134711
H11   H     H_    0.534356 0.243745 0.612289 0.214131
H12   H     H_    0.810838 0.371697 0.165744 0.081396
H13   H     H_    0.688039 0.163913 0.851241 0.132811
H14   H     H_    0.538388 0.028809 0.732102 0.115780
H15   H     H_    0.378286 0.888680 0.601223 0.119796
H16   H     H_    0.295693 0.013249 0.303598 0.122670
H17   H     H_    0.273585 0.815338 0.441329 0.115412
H18   H     H_    0.847581 0.969993 0.855872 0.126597
H19   H     H_    0.855980 0.815418 0.750582 0.165612
H20   H     H_    0.275125 0.043125 0.886408 0.189833
H21   H     H_    0.184038 0.043184 0.784948 0.200466
H22   H     H_    0.269882 0.196704 0.986985 0.186769
H23   H     H_    0.167099 0.853682 0.027622 0.147482
H24   H     H_    0.178215 0.197039 0.886162 0.206074
H25   H     H_    0.316090 0.466790 0.127673 0.132484
H26   H     H_    0.187751 0.664519 0.853576 0.160848
H27   H     H_    0.839762 0.131495 0.904072 0.098132
H28   H     H_    0.239121 0.680777 0.318761 0.084432
H29   H     H_    0.595070 0.439803 0.805246 0.109304
H30   H     H_    0.499507 0.496018 0.702408 0.100928
H31   H     H_    0.544908 0.688546 0.751342 0.089726
H32   H     H_    0.687811 0.825571 0.904036 0.086581
H33   H     H_    0.786175 0.770264 0.006709 0.080544
H34   H     H_    0.141540 0.537102 0.313409 0.084890
H35   H     H_    0.484741 0.909720 0.161774 0.115046
H36   H     H_    0.463381 0.980686 0.303211 0.109760
H37   H     H_    0.519105 0.926383 0.424194 0.118292
H38   H     H_    0.600069 0.801830 0.403668 0.114421
H39   H     H_    0.626177 0.732680 0.264273 0.131027
H40   H     H_    0.490174 0.166953 0.362889 0.099311
H41   H     H_    0.546879 0.343646 0.364429 0.098048
H42   H     H_    0.502354 0.480104 0.452115 0.095212
H43   H     H_    0.400423 0.439359 0.538418 0.097850
H44   H     H_    0.344563 0.263524 0.539149 0.112810
H45   H     H_    0.235635 0.864643 0.170105 0.094153
H46   H     H_    0.728220 0.432672 0.094510 0.096252
H47   H     H_    0.466560 0.467872 0.135006 0.131377
H48   H     H_    0.635320 0.486021 0.151993 0.125861
H49   H     H_    0.732203 0.808063 0.198034 0.207004
N1    N     N_R   0.055640 0.348550 0.045600 -0.038512
N2    N     N_R   0.811290 0.303400 0.871650 -0.070161
N3    N     N_R   0.205180 0.552990 0.997660 -0.100597
N4    N     N_R   0.814810 0.361830 0.823710 -0.098916
N5    N     N_R   0.201660 0.494570 0.045600 -0.070424
N6    N     N_R   0.068420 0.560530 0.871650 -0.051987
N7    N     N_R   0.948050 0.295860 0.997660 -0.039003
N8    N     N_R   0.185190 0.638170 0.176290 -0.042048
N9    N     N_R   0.798340 0.505430 0.954400 -0.060715
N10   N     N_R   0.931580 0.439470 0.128350 -0.036336
N11   N     N_R   0.051950 0.704140 0.002340 -0.070783
N12   N     N_R   0.944360 0.651450 0.954400 -0.108205
N13   N     N_R   0.039170 0.492150 0.176290 -0.037243
N14   N     N_R   0.188710 0.696600 0.128350 -0.038564
N15   N     N_R   0.794820 0.447010 0.002340 -0.051092
N16   N     N_R   0.960830 0.507850 0.823710 -0.055184
Ni1   Ni    Ni4+2 0.119330 0.493420 0.109950 0.204138
Ni2   Ni    Ni4+2 0.880670 0.506580 0.890050 0.285957
Ni3   Ni    Ni4+2 0.872590 0.372590 0.000000 0.197748
Ni4   Ni    Ni4+2 0.127410 0.627410 0.000000 0.238450

loop_
_geom_bond_atom_site_label_1
_geom_bond_atom_site_label_2
_ccdc_geom_bond_type
C66   C68   A    
C76   H44   S    
C6    C45   A    
C72   H40   S    
C27   C29   A    
C73   C74   A    
C35   C36   A    
N10   N13   A    
C3    C6    A    
C33   C36   A    
C3    H45   S    
C39   C41   A    
C20   C30   A    
C51   H21   S    
N13   Ni1   S    
C26   C27   A    
C62   C63   A    
C54   H26   S    
C8    C20   S    
C78   N12   A    
C30   C31   A    
C45   H28   S    
C10   C17   A    
C23   C40   A    
C59   H29   S    
C47   H18   S    
C18   C19   S    
C28   N3    A    
N14   Ni4   S    
C34   C52   A    
C68   H37   S    
C13   H47   S    
C44   C53   S    
C70   H39   S    
C68   C69   A    
C31   H8    S    
C66   H36   S    
C18   H3    S    
C32   C41   A    
N1    Ni1   S    
C36   H16   S    
C64   C70   A    
C4    C12   A    
C10   C19   S    
C7    C15   S    
C74   H42   S    
C52   H25   S    
C26   C31   A    
C12   C54   A    
C13   C14   A    
N2    Ni3   S    
C63   H33   S    
N7    Ni3   S    
C61   C62   A    
C2    N13   A    
C7    C56   A    
C16   N2    A    
C37   H17   S    
C44   C46   A    
N11   Ni4   S    
C50   C51   S    
N16   Ni2   S    
C20   C29   A    
C38   C39   A    
C48   H19   S    
N9    Ni2   S    
C25   H10   S    
C5    N15   A    
C74   C75   A    
N3    Ni4   S    
C42   H14   S    
N12   Ni2   S    
C62   H32   S    
C5    C7    A    
C56   N9    A    
C78   F1    S    
C1    N1    A    
C25   C26   A    
C40   N4    A    
C12   C21   S    
C69   H38   S    
C33   C37   A    
C75   H43   S    
C60   C61   A    
C51   C53   S    
C35   C39   A    
C75   C76   A    
C37   C38   A    
N1    N7    A    
C1    C57   A    
N8    Ni1   S    
C43   H15   S    
C2    H34   S    
C47   C48   A    
C19   C64   S    
C54   N6    A    
C5    H46   S    
C17   C18   S    
C9    C77   A    
C67   N10   A    
C29   H5    S    
C8    C67   A    
C48   C49   A    
C65   C66   A    
C16   C23   A    
C22   H7    S    
C22   C27   A    
C55   C57   A    
C46   C57   S    
C65   H35   S    
C22   C24   A    
C18   H49   S    
C42   C43   A    
C67   H12   S    
C44   C50   A    
C58   C63   A    
C15   C17   A    
C21   C25   A    
C46   C47   A    
N9    N15   A    
C32   C42   A    
C14   C15   A    
C16   H13   S    
C40   F3    S    
C73   H41   S    
C11   C34   S    
C2    C8    A    
C3    N14   A    
C72   C73   A    
C19   H4    S    
C24   H9    S    
N6    Ni4   S    
C51   H20   S    
N4    Ni2   S    
N5    Ni1   S    
C55   N7    A    
C6    C33   S    
C55   H27   S    
C64   C65   A    
C1    H1    S    
C38   C43   A    
C35   C71   S    
C60   H30   S    
N8    N14   A    
N11   N12   A    
C23   C32   S    
C11   C13   A    
C71   C76   A    
C4    H2    S    
C53   H22   S    
C45   N8    A    
C56   C58   S    
C9    C78   A    
C69   C70   A    
C28   F2    S    
C58   C59   A    
C10   C11   A    
C28   C34   A    
C53   H24   S    
C59   C60   A    
C41   H11   S    
C71   C72   A    
C77   N11   A    
N2    N4    A    
C49   C50   A    
C21   C24   A    
N3    N5    A    
C52   N5    A    
N15   Ni3   S    
C4    N16   A    
C77   H23   S    
C30   H6    S    
C61   H31   S    
N10   Ni3   S    
N6    N16   A    
C14   H48   S    
