data_mof_unit_54401.cif
_audit_creation_date              2013-03-05T15:53:20-0500
_audit_creation_method            fapswitch 2.2
_symmetry_space_group_name_H-M    P1
_symmetry_Int_Tables_number       1
_space_group_crystal_system       triclinic
_cell_length_a                    27.19425
_cell_length_b                    7.170539
_cell_length_c                    22.588459
_cell_angle_alpha                 90.028984
_cell_angle_beta                  101.385569
_cell_angle_gamma                 90.044753
_cell_volume                      4318.00891727

loop_
_atom_site_label
_atom_site_type_symbol
_atom_site_description
_atom_site_fract_x
_atom_site_fract_y
_atom_site_fract_z
_atom_type_partial_charge
O1    O     O_R   0.207310 0.594030 0.676830 -0.587913
O2    O     O_R   0.792690 0.405970 0.323170 -0.592295
O3    O     O_R   0.292690 0.094030 0.823170 -0.591043
O4    O     O_R   0.707310 0.905970 0.176830 -0.590496
O5    O     O_R   0.197320 0.262370 0.795700 -0.568290
O6    O     O_R   0.802680 0.737630 0.204300 -0.539083
O7    O     O_R   0.302680 0.762370 0.704300 -0.550399
O8    O     O_R   0.697320 0.237630 0.295700 -0.559777
C1    C     C_R   0.183953 0.432313 0.811166 0.930527
C2    C     C_R   0.816103 0.567932 0.188827 0.885512
C3    C     C_R   0.315717 0.932099 0.688371 0.902616
C4    C     C_R   0.683485 0.067437 0.310479 0.922246
O9    O     O_R   0.201410 0.264250 0.675590 -0.563073
O10   O     O_R   0.798590 0.735750 0.324410 -0.589427
O11   O     O_R   0.298590 0.764250 0.824410 -0.581835
O12   O     O_R   0.701410 0.235750 0.175590 -0.569654
O13   O     O_R   0.296810 0.094940 0.702210 -0.577053
O14   O     O_R   0.703190 0.905060 0.297790 -0.608783
O15   O     O_R   0.203190 0.594940 0.797790 -0.600347
O16   O     O_R   0.796810 0.405060 0.202210 -0.585136
C5    C     C_R   0.189914 0.432630 0.652950 0.890043
C6    C     C_R   0.810305 0.567805 0.347126 0.858293
C7    C     C_R   0.310037 0.932721 0.847023 0.874479
C8    C     C_R   0.689666 0.067632 0.152892 0.900967
O17   O     O_3   0.281300 0.427390 0.758870 -0.252816
O18   O     O_3   0.718700 0.572610 0.241130 -0.266681
O19   O     O_3   0.218700 0.927390 0.741130 -0.268730
O20   O     O_3   0.781300 0.072610 0.258870 -0.251821
V1    V     V_3+5 0.244190 0.152150 0.748350 1.212231
V2    V     V_3+5 0.755810 0.847850 0.251650 1.199130
V3    V     V_3+5 0.255810 0.652150 0.751650 1.204677
V4    V     V_3+5 0.744190 0.347850 0.248350 1.206740
C9    C     C_R   0.654858 0.067634 0.092740 -0.277635
C10   C     C_R   0.344459 0.940392 0.907042 -0.283994
C11   C     C_R   0.845014 0.568646 0.407323 -0.274763
C12   C     C_R   0.155425 0.440088 0.592867 -0.285037
C13   C     C_R   0.635173 0.188258 0.989325 -0.042505
C14   C     C_R   0.357474 0.907382 0.016973 -0.045568
C15   C     C_R   0.865178 0.696805 0.509789 -0.042327
C16   C     C_R   0.141913 0.398026 0.483169 -0.042584
C17   C     C_R   0.670131 0.156382 0.043684 -0.040616
C18   C     C_R   0.324665 0.916795 0.959654 -0.058382
C19   C     C_R   0.829816 0.659246 0.456119 -0.032041
C20   C     C_R   0.174867 0.408907 0.540366 -0.051685
C21   C     C_R   0.606276 0.988503 0.084455 -0.118363
C22   C     C_R   0.396893 0.950094 0.911195 -0.093502
C23   C     C_R   0.893597 0.490010 0.415739 -0.122435
C24   C     C_R   0.103115 0.457611 0.588696 -0.130383
C25   C     C_R   0.568407 0.043080 0.033556 0.092169
C26   C     C_R   0.429610 0.972998 0.968859 0.086365
C27   C     C_R   0.931686 0.548037 0.465987 0.087432
C28   C     C_R   0.070387 0.477113 0.530855 0.090725
C29   C     C_R   0.583241 0.146434 0.985861 -0.000469
C30   C     C_R   0.410069 0.944476 0.022478 0.002371
C31   C     C_R   0.917142 0.655921 0.512949 -0.005467
C32   C     C_R   0.089599 0.440271 0.477463 0.006221
C33   C     C_R   0.515710 0.007175 0.029893 0.063239
C34   C     C_R   0.481111 0.029268 0.974630 0.068993
C35   C     C_R   0.984302 0.510492 0.469726 0.072089
C36   C     C_R   0.019119 0.536805 0.524599 0.060248
C37   C     C_R   0.496346 0.139053 0.930266 -0.167816
C38   C     C_R   0.495564 0.981833 0.081756 -0.141091
C39   C     C_R   0.004322 0.652692 0.567787 -0.172655
C40   C     C_R   0.004217 0.478653 0.418044 -0.151363
C41   C     C_R   0.545161 0.207258 0.936801 -0.048021
C42   C     C_R   0.444178 0.958843 0.079391 -0.044412
C43   C     C_R   0.955517 0.720871 0.561125 -0.040852
C44   C     C_R   0.055453 0.451637 0.420492 -0.042873
H1    H     H_    0.468525 0.193096 0.893261 0.131381
H2    H     H_    0.519057 0.001933 0.125854 0.131679
H3    H     H_    0.032393 0.710034 0.603959 0.132914
H4    H     H_    0.980724 0.496092 0.373832 0.116811
C45   C     C_R   0.641752 0.895553 0.383327 -0.260370
C46   C     C_R   0.353780 0.100481 0.611672 -0.151092
C47   C     C_R   0.857381 0.397593 0.115106 -0.189403
C48   C     C_R   0.145388 0.602876 0.886926 -0.228700
H5    H     H_    0.667437 0.781788 0.381078 0.134816
H6    H     H_    0.325648 0.207192 0.611678 0.172471
H7    H     H_    0.830055 0.288049 0.115089 0.170380
H8    H     H_    0.171740 0.714629 0.884449 0.145263
C49   C     C_R   0.608954 0.880315 0.423949 -0.039866
C50   C     C_R   0.387611 0.121066 0.572408 -0.045106
C51   C     C_R   0.892364 0.377412 0.077296 -0.042623
C52   C     C_R   0.113735 0.619094 0.928865 -0.042283
C53   C     C_R   0.574966 0.027344 0.428127 0.113406
C54   C     C_R   0.424637 0.982489 0.571520 0.087712
C55   C     C_R   0.928847 0.518411 0.076706 0.095658
C56   C     C_R   0.079600 0.473193 0.933949 0.107245
C57   C     C_R   0.575936 0.186617 0.392156 -0.258823
C58   C     C_R   0.425720 0.826376 0.609281 -0.255018
C59   C     C_R   0.928242 0.676365 0.113303 -0.253818
C60   C     C_R   0.079447 0.313651 0.897786 -0.261612
H9    H     H_    0.549131 0.297433 0.393966 0.122750
H10   H     H_    0.454304 0.720794 0.609404 0.128198
H11   H     H_    0.956441 0.783776 0.113721 0.124981
H12   H     H_    0.052713 0.203228 0.900629 0.125900
C61   C     C_R   0.608444 0.201027 0.350987 -0.041858
C62   C     C_R   0.391129 0.804002 0.647458 -0.019356
C63   C     C_R   0.892386 0.698643 0.149847 -0.011041
C64   C     C_R   0.110645 0.298322 0.855185 -0.049210
C65   C     C_R   0.643477 0.055833 0.347696 -0.124133
C66   C     C_R   0.354133 0.942958 0.649016 -0.173694
C67   C     C_R   0.855752 0.557469 0.150983 -0.166045
C68   C     C_R   0.145399 0.443490 0.850351 -0.135506
N1    N     N_R   0.524862 0.166351 0.497374 -0.055136
N2    N     N_R   0.474426 0.845533 0.502015 -0.057380
N3    N     N_R   0.979631 0.656297 0.008409 -0.054549
N4    N     N_R   0.030383 0.336168 0.004476 -0.058173
N5    N     N_R   0.489483 0.156647 0.530657 -0.048425
N6    N     N_R   0.509741 0.855321 0.468710 -0.053522
N7    N     N_R   0.015091 0.646529 0.975306 -0.050775
N8    N     N_R   0.994901 0.345926 0.037601 -0.051937
C69   C     C_R   0.463338 0.996241 0.533418 0.180855
C70   C     C_R   0.536046 0.015360 0.466088 0.167556
C71   C     C_R   0.041440 0.486638 0.972886 0.172216
C72   C     C_R   0.968471 0.505773 0.039841 0.175091
C73   C     C_R   0.551570 0.364402 0.896528 0.130176
C74   C     C_R   0.546126 0.336679 0.833995 -0.144118
C75   C     C_R   0.550499 0.487441 0.796104 -0.106526
C76   C     C_R   0.559490 0.666667 0.820246 -0.057383
C77   C     C_R   0.563689 0.695568 0.882232 -0.028886
C78   C     C_R   0.559297 0.545535 0.920268 -0.119923
H13   H     H_    0.539021 0.198372 0.814881 0.117243
H14   H     H_    0.546793 0.465417 0.748022 0.113782
H15   H     H_    0.562754 0.783403 0.790901 0.095327
H16   H     H_    0.569752 0.834403 0.900767 0.110746
H17   H     H_    0.562166 0.570108 0.968160 0.146214
C79   C     C_R   0.429123 0.971635 0.138702 0.135940
C80   C     C_R   0.437669 0.821156 0.179219 -0.136857
C81   C     C_R   0.426641 0.838081 0.236874 -0.110376
C82   C     C_R   0.408254 0.006464 0.254907 -0.071972
C83   C     C_R   0.401095 0.158501 0.215421 -0.120536
C84   C     C_R   0.411781 0.141810 0.157574 -0.150115
H18   H     H_    0.452517 0.690906 0.165929 0.131728
H19   H     H_    0.432627 0.721029 0.267687 0.116703
H20   H     H_    0.399932 0.019592 0.299643 0.122820
H21   H     H_    0.387508 0.289483 0.229768 0.108660
H22   H     H_    0.406627 0.260957 0.127533 0.107550
C85   C     C_R   0.949238 0.880129 0.600660 0.128679
C86   C     C_R   0.955455 0.855974 0.663424 -0.144309
C87   C     C_R   0.950883 0.008431 0.700590 -0.073555
C88   C     C_R   0.940889 0.185830 0.675470 -0.028317
C89   C     C_R   0.936017 0.211264 0.613251 -0.042511
C90   C     C_R   0.940667 0.059594 0.575939 -0.126020
H23   H     H_    0.963236 0.719021 0.683278 0.119205
H24   H     H_    0.955142 0.989093 0.748847 0.109917
H25   H     H_    0.937385 0.303880 0.704225 0.093405
H26   H     H_    0.929103 0.348629 0.593954 0.111348
H27   H     H_    0.937189 0.081492 0.527842 0.152189
C91   C     C_R   0.070370 0.456414 0.360991 0.141128
C92   C     C_R   0.060724 0.302636 0.321848 -0.143385
C93   C     C_R   0.071626 0.312190 0.263970 -0.114808
C94   C     C_R   0.091010 0.476514 0.244346 -0.071553
C95   C     C_R   0.099273 0.631887 0.282451 -0.126353
C96   C     C_R   0.088660 0.622587 0.340493 -0.168528
H28   H     H_    0.045107 0.175526 0.336376 0.126287
H29   H     H_    0.064779 0.192583 0.234223 0.114602
H30   H     H_    0.099251 0.483923 0.199446 0.121729
H31   H     H_    0.113672 0.759730 0.266895 0.110987
H32   H     H_    0.094606 0.744317 0.369443 0.107886
C97   C     C_2   0.416544 0.911964 0.855261 0.511598
H33   H     H_    0.396274 0.959322 0.811608 -0.038282
O21   O     O_2   0.454557 0.820013 0.857231 -0.596401
C98   C     C_2   0.598163 0.834425 0.125581 0.513321
H34   H     H_    0.614987 0.839354 0.173259 0.033640
O22   O     O_2   0.573620 0.697222 0.105937 -0.575625
C99   C     C_2   0.083411 0.431065 0.645159 0.578181
H35   H     H_    0.104001 0.483882 0.687965 -0.010461
O23   O     O_2   0.044946 0.342920 0.644674 -0.566253
C100  C     C_2   0.901377 0.332507 0.375696 0.489496
H36   H     H_    0.884596 0.334517 0.327987 0.028888
O24   O     O_2   0.925598 0.195800 0.396303 -0.591366
C101  C     C_2   0.269109 0.894420 0.952896 0.495808
H37   H     H_    0.243993 0.972294 0.918345 -0.017422
O25   O     O_2   0.250835 0.784204 0.983645 -0.590963
C102  C     C_2   0.724034 0.206089 0.048902 0.471377
H38   H     H_    0.743862 0.278397 0.088495 0.023447
O26   O     O_2   0.747009 0.161856 0.009753 -0.579509
C103  C     C_2   0.230226 0.381270 0.547114 0.471487
H39   H     H_    0.255905 0.459412 0.581096 0.021459
O27   O     O_2   0.247678 0.266790 0.516977 -0.594633
C104  C     C_2   0.775595 0.703983 0.451390 0.454615
H40   H     H_    0.754229 0.764385 0.410477 0.024778
O28   O     O_2   0.753901 0.667526 0.492417 -0.577560
C105  C     C_R   0.654153 0.260866 0.936345 0.183731
C106  C     C_R   0.655279 0.144429 0.886622 -0.103164
C107  C     C_R   0.673333 0.212036 0.836913 -0.107744
C108  C     C_R   0.690763 0.395469 0.836738 -0.072296
C109  C     C_R   0.690622 0.511173 0.886517 -0.085635
C110  C     C_R   0.672776 0.443971 0.936405 -0.110503
H41   H     H_    0.642295 0.001794 0.886405 0.088158
H42   H     H_    0.673798 0.122181 0.798516 0.111278
H43   H     H_    0.704550 0.447723 0.798118 0.109316
H44   H     H_    0.704232 0.653048 0.886407 0.119902
H45   H     H_    0.672708 0.534959 0.974688 0.104667
C111  C     C_R   0.335916 0.849834 0.069554 0.190549
C112  C     C_R   0.340813 0.664279 0.089764 -0.087411
C113  C     C_R   0.318650 0.606967 0.137565 -0.120362
C114  C     C_R   0.291362 0.734048 0.165225 -0.062737
C115  C     C_R   0.285707 0.918206 0.144707 -0.067158
C116  C     C_R   0.307487 0.975855 0.096634 -0.100241
H46   H     H_    0.361697 0.564607 0.068451 0.099812
H47   H     H_    0.322499 0.463975 0.153042 0.098869
H48   H     H_    0.274371 0.689568 0.202349 0.096068
H49   H     H_    0.264339 0.016162 0.165944 0.100845
H50   H     H_    0.302608 0.118425 0.080737 0.096512
C117  C     C_R   0.846609 0.774990 0.562317 0.185665
C118  C     C_R   0.846278 0.664307 0.613514 -0.103668
C119  C     C_R   0.828503 0.737236 0.662727 -0.107115
C120  C     C_R   0.810549 0.920196 0.660942 -0.075187
C121  C     C_R   0.809887 0.030093 0.609708 -0.089173
C122  C     C_R   0.827463 0.957581 0.560322 -0.106105
H51   H     H_    0.859713 0.522120 0.615297 0.087140
H52   H     H_    0.828677 0.651891 0.702270 0.111481
H53   H     H_    0.796981 0.976580 0.699178 0.109646
H54   H     H_    0.795867 0.171591 0.608300 0.122475
H55   H     H_    0.826898 0.044087 0.520889 0.105061
C123  C     C_R   0.162989 0.333507 0.430958 0.190955
C124  C     C_R   0.156976 0.146658 0.412179 -0.085210
C125  C     C_R   0.178695 0.082828 0.364760 -0.121158
C126  C     C_R   0.206653 0.204610 0.336073 -0.063711
C127  C     C_R   0.213427 0.389990 0.355180 -0.067893
C128  C     C_R   0.192089 0.454172 0.402858 -0.097313
H56   H     H_    0.135559 0.051049 0.434293 0.100415
H57   H     H_    0.173988 0.938906 0.350358 0.098915
H58   H     H_    0.223296 0.155055 0.299251 0.095894
H59   H     H_    0.235323 0.483821 0.333158 0.100852
H60   H     H_    0.197844 0.597633 0.417667 0.096395
C129  C     C_2   0.614035 0.711975 0.462912 0.547158
H61   H     H_    0.629568 0.584901 0.447960 0.010589
O29   O     O_2   0.603736 0.715244 0.513102 -0.566373
C130  C     C_2   0.380749 0.285682 0.531766 0.545852
H62   H     H_    0.361369 0.407958 0.543924 0.043362
O30   O     O_2   0.394120 0.284314 0.483274 -0.583349
C131  C     C_2   0.887195 0.210373 0.037672 0.535646
H63   H     H_    0.868701 0.086537 0.050320 0.060833
O31   O     O_2   0.900869 0.211337 0.989364 -0.571706
C132  C     C_2   0.120085 0.787094 0.968096 0.557980
H64   H     H_    0.136214 0.912968 0.953132 -0.001086
O32   O     O_2   0.110062 0.784856 0.018431 -0.577814
C133  C     C_2   0.601340 0.364558 0.310099 0.533481
H65   H     H_    0.589728 0.497035 0.326157 -0.022716
O33   O     O_2   0.604858 0.350453 0.257229 -0.567273
C134  C     C_2   0.397556 0.638332 0.686967 0.476795
H66   H     H_    0.431932 0.621351 0.720294 0.032179
O34   O     O_2   0.366317 0.513905 0.679796 -0.578500
C135  C     C_2   0.897345 0.866785 0.188309 0.478427
H67   H     H_    0.931642 0.889589 0.221315 0.001623
O35   O     O_2   0.865084 0.987270 0.180449 -0.570750
C136  C     C_2   0.102748 0.132662 0.815130 0.541598
H68   H     H_    0.091412 0.001300 0.832261 -0.031048
O36   O     O_2   0.105327 0.143400 0.761914 -0.557218

loop_
_geom_bond_atom_site_label_1
_geom_bond_atom_site_label_2
_geom_bond_distance
_ccdc_geom_bond_type
C48   C68   1.409926 A    
C51   C55   1.417866 A    
C134  O34   1.219959 D    
O1    C5    1.323600 A    
C118  H51   1.081392 S    
C55   C59   1.403895 A    
O19   V1    1.748677 S    
C9    C21   1.415463 A    
O3    C7    1.323583 A    
C81   H19   1.082350 S    
C10   C18   1.408304 A    
C64   C68   1.424077 A    
C11   C23   1.414821 A    
C79   C80   1.404746 A    
C48   C52   1.404970 A    
C97   H33   1.085123 S    
C33   C34   1.416080 A    
C25   C33   1.442010 A    
C123  C128  1.405557 A    
C99   O23   1.219908 D    
C5    C12   1.490659 S    
C101  H37   1.085365 S    
O7    C3    1.336598 A    
C6    C11   1.494370 S    
C35   C40   1.399203 A    
C26   C30   1.430156 A    
C36   C39   1.399585 A    
C40   C44   1.397131 A    
N4    C71   1.359669 A    
O9    V1    1.987119 S    
C53   C70   1.490345 S    
C21   C98   1.487894 S    
O10   V2    1.987120 S    
C14   C18   1.421635 A    
C64   C136  1.482416 S    
N2    N6    1.333555 A    
O4    C8    1.328687 A    
C122  H55   1.083312 S    
C136  O36   1.220326 D    
C89   C90   1.396586 A    
C115  H49   1.082367 S    
O1    V3    1.971778 S    
O13   V1    1.972687 S    
C134  H66   1.085308 S    
C38   H2    1.081488 S    
O2    V4    1.971782 S    
C133  H65   1.085820 S    
C32   C44   1.432961 A    
C78   H17   1.083459 S    
O3    V1    1.972579 S    
C74   C75   1.398676 A    
C50   C130  1.484837 S    
C28   C36   1.438812 A    
C124  H56   1.083197 S    
C104  H40   1.080780 S    
C87   C88   1.397973 A    
C109  H44   1.082450 S    
C1    O15   1.336640 A    
C15   C31   1.431369 A    
C100  H36   1.084302 S    
C56   C60   1.404900 A    
C2    O16   1.338893 A    
C118  C119  1.398152 A    
C16   C32   1.435476 A    
C22   C97   1.491039 S    
C15   C117  1.487768 S    
O2    C6    1.328562 A    
C131  H63   1.085973 S    
C12   C24   1.412667 A    
C113  C114  1.398189 A    
C10   C22   1.412041 A    
C3    C66   1.501434 S    
C11   C19   1.409707 A    
N6    C70   1.359287 A    
C16   C20   1.421654 A    
C62   C134  1.475812 S    
N5    C69   1.359648 A    
C39   C43   1.394748 A    
C46   C66   1.409002 A    
C13   C29   1.430446 A    
C34   C37   1.399930 A    
O11   C7    1.324072 A    
C121  H54   1.082430 S    
C92   C93   1.398169 A    
O15   V3    1.972447 S    
C84   H22   1.083176 S    
O12   C8    1.323712 A    
C49   C129  1.484616 S    
C47   C67   1.409337 A    
C131  O31   1.220364 D    
C112  C113  1.398226 A    
C46   C50   1.406018 A    
C106  H41   1.081435 S    
C20   C103  1.496248 S    
C45   C49   1.404447 A    
C125  C126  1.398040 A    
C97   O21   1.219937 D    
C58   H10   1.085107 S    
O5    V1    1.982965 S    
C135  O35   1.219599 D    
C60   H12   1.084979 S    
C89   H26   1.078844 S    
C132  O32   1.220521 D    
O7    V3    1.982603 S    
C38   C42   1.397463 A    
N2    C69   1.358705 A    
C28   C32   1.430386 A    
C117  C118  1.404422 A    
C26   C34   1.438147 A    
C48   H8    1.083418 S    
N1    C70   1.359690 A    
C33   C38   1.399666 A    
C86   C87   1.398516 A    
C63   C67   1.423512 A    
C54   C58   1.404490 A    
C99   H35   1.085104 S    
C77   H16   1.079629 S    
C53   C57   1.405193 A    
C76   H15   1.082406 S    
C83   C84   1.398566 A    
C15   C19   1.416328 A    
C27   C31   1.430191 A    
C83   H21   1.082204 S    
C62   C66   1.421882 A    
C61   C133  1.482014 S    
C126  H58   1.082363 S    
C57   H9    1.084929 S    
O4    V2    1.972574 S    
N4    N8    1.334498 A    
C13   C105  1.487890 S    
C108  C109  1.397672 A    
C133  O33   1.220921 D    
O8    V4    1.982603 S    
C73   C78   1.404647 A    
C35   C36   1.415827 A    
O5    C1    1.337731 A    
C129  H61   1.085988 S    
C119  H52   1.082251 S    
C43   C85   1.479949 S    
C126  C127  1.398156 A    
C85   C90   1.404258 A    
C61   C65   1.423559 A    
C31   C43   1.428469 A    
C121  C122  1.397719 A    
C14   C30   1.435642 A    
C21   C25   1.438460 A    
O8    C4    1.338505 A    
C7    C10   1.488648 S    
C123  C124  1.404801 A    
C130  O30   1.220380 D    
C119  C120  1.398016 A    
C95   C96   1.398610 A    
O9    C5    1.324806 A    
C112  H46   1.083211 S    
C92   H28   1.083288 S    
C75   C76   1.398192 A    
C2    C67   1.504303 S    
C55   C72   1.489005 S    
C101  O25   1.220733 D    
C87   H24   1.082224 S    
C106  C107  1.398102 A    
O14   V2    1.972692 S    
C95   H31   1.082238 S    
C110  H45   1.083309 S    
C102  H38   1.080807 S    
O6    V2    1.982966 S    
C17   C102  1.490171 S    
C51   C131  1.484747 S    
C108  H43   1.082238 S    
C82   H20   1.082333 S    
C91   C96   1.404334 A    
C54   C69   1.488529 S    
C114  H48   1.082329 S    
C12   C20   1.408316 A    
C27   C35   1.442185 A    
C63   C135  1.476158 S    
C82   C83   1.398109 A    
N8    C72   1.359592 A    
C23   C100  1.487717 S    
C29   C41   1.427855 A    
C76   C77   1.397498 A    
C60   C64   1.407231 A    
C94   H30   1.082339 S    
O17   V3    1.749827 S    
C80   C81   1.398166 A    
O16   V4    1.972444 S    
C37   H1    1.082767 S    
C124  C125  1.398336 A    
N1    N5    1.334634 A    
C132  H64   1.086052 S    
C98   H34   1.084368 S    
C41   C73   1.480200 S    
C90   H27   1.083330 S    
C16   C123  1.483293 S    
C96   H32   1.083110 S    
C128  H60   1.083202 S    
N3    N7    1.333648 A    
C88   H25   1.082369 S    
C42   C79   1.479001 S    
C52   C132  1.484741 S    
C52   C56   1.417773 A    
C39   H3    1.082728 S    
C111  C112  1.404750 A    
C18   C101  1.496701 S    
C3    O13   1.337733 A    
C86   H23   1.083320 S    
O6    C2    1.336678 A    
C23   C27   1.438396 A    
C85   C86   1.405068 A    
C77   C78   1.396812 A    
O20   V2    1.748677 S    
O11   V3    1.985714 S    
C30   C42   1.432698 A    
C103  H39   1.085416 S    
O12   V4    1.985711 S    
C22   C26   1.434295 A    
C19   C104  1.492349 S    
C8    C9    1.494796 S    
C4    O14   1.336506 A    
C107  H42   1.082285 S    
O10   C6    1.323520 A    
C56   C71   1.490036 S    
C98   O22   1.221424 D    
C81   C82   1.398075 A    
C94   C95   1.398177 A    
C9    C17   1.409746 A    
C4    C65   1.502819 S    
C129  O29   1.220506 D    
C50   C54   1.418140 A    
C79   C84   1.404599 A    
C47   C51   1.405817 A    
C105  C106  1.404339 A    
C117  C122  1.406838 A    
C24   C99   1.489962 S    
C100  O24   1.221400 D    
C127  H59   1.082291 S    
C115  C116  1.398177 A    
C1    C68   1.501855 S    
C25   C29   1.429892 A    
C45   C65   1.409473 A    
C130  H62   1.086075 S    
C14   C111  1.483137 S    
C125  H57   1.081779 S    
C93   H29   1.082357 S    
C116  H50   1.083244 S    
C75   H14   1.082250 S    
C74   H13   1.083337 S    
C40   H4    1.081432 S    
C13   C17   1.415418 A    
C109  C110  1.397748 A    
C104  O28   1.221089 D    
N3    C72   1.358868 A    
C136  H68   1.085839 S    
C44   C91   1.478995 S    
C114  C115  1.398216 A    
C59   H11   1.085157 S    
C80   H18   1.083327 S    
C37   C41   1.394550 A    
C105  C110  1.406782 A    
C24   C28   1.435253 A    
C93   C94   1.398061 A    
C107  C108  1.398029 A    
C120  C121  1.397620 A    
C46   H6    1.082453 S    
C57   C61   1.407653 A    
C113  H47   1.081925 S    
C88   C89   1.397441 A    
C45   H5    1.082026 S    
C91   C92   1.404805 A    
N7    C71   1.359250 A    
C59   C63   1.405560 A    
C111  C116  1.405571 A    
C73   C74   1.404892 A    
C47   H7    1.080808 S    
C127  C128  1.398220 A    
C58   C62   1.405159 A    
O18   V4    1.749826 S    
C49   C53   1.417941 A    
C120  H53   1.082248 S    
C135  H67   1.085161 S    
C102  O26   1.221117 D    
C103  O27   1.220704 D    
