data_mof_unit_30291.cif
_audit_creation_date              2012-12-11T15:35:01-0500
_audit_creation_method            fapswitch 2.2
_symmetry_space_group_name_H-M    P1
_symmetry_Int_Tables_number       1
_space_group_crystal_system       triclinic
_cell_length_a                    30.494909
_cell_length_b                    7.265006
_cell_length_c                    26.09826
_cell_angle_alpha                 89.625772
_cell_angle_beta                  111.537383
_cell_angle_gamma                 90.462799
_cell_volume                      5378.0358163

loop_
_atom_site_label
_atom_site_type_symbol
_atom_type_description
_atom_site_fract_x
_atom_site_fract_y
_atom_site_fract_z
_atom_type_partial_charge
O1    O     O_R   0.295360 0.592990 0.320420 -0.524933
O2    O     O_R   0.704640 0.407010 0.679580 -0.539414
O3    O     O_R   0.204640 0.092990 0.179580 -0.525456
O4    O     O_R   0.795360 0.907010 0.820420 -0.542184
O5    O     O_R   0.294060 0.265620 0.213230 -0.537665
O6    O     O_R   0.705940 0.734380 0.786770 -0.540670
O7    O     O_R   0.205940 0.765620 0.286770 -0.537813
O8    O     O_R   0.794060 0.234380 0.713230 -0.544849
C1    C     C_R   0.303275 0.432661 0.198721 0.705885
C2    C     C_R   0.696808 0.567351 0.801352 0.709228
C3    C     C_R   0.196539 0.931090 0.301142 0.705179
C4    C     C_R   0.804188 0.068313 0.699489 0.709446
O9    O     O_R   0.300850 0.263360 0.322080 -0.542188
O10   O     O_R   0.699150 0.736640 0.677920 -0.526946
O11   O     O_R   0.199150 0.763360 0.177920 -0.541795
O12   O     O_R   0.800850 0.236640 0.822080 -0.528214
O13   O     O_R   0.211480 0.091820 0.289210 -0.540067
O14   O     O_R   0.788520 0.908180 0.710790 -0.536623
O15   O     O_R   0.288520 0.591820 0.210790 -0.540230
O16   O     O_R   0.711480 0.408180 0.789210 -0.534403
C5    C     C_R   0.313691 0.431716 0.342593 0.699323
C6    C     C_R   0.686401 0.567880 0.657341 0.700879
C7    C     C_R   0.186271 0.931611 0.157376 0.698285
C8    C     C_R   0.813725 0.067874 0.842581 0.701665
O17   O     O_3   0.220670 0.426670 0.239090 -0.373327
O18   O     O_3   0.779330 0.573330 0.760910 -0.379572
O19   O     O_3   0.279330 0.926670 0.260910 -0.372836
O20   O     O_3   0.720670 0.073330 0.739090 -0.372669
V1    V     V_3+5 0.255440 0.152290 0.252020 1.431121
V2    V     V_3+5 0.744560 0.847710 0.747980 1.419704
V3    V     V_3+5 0.244560 0.652290 0.247980 1.433005
V4    V     V_3+5 0.755440 0.347710 0.752020 1.415732
C9    C     C_R   0.850955 0.053853 0.898064 -0.106713
C10   C     C_R   0.148348 0.934190 0.102105 -0.107922
C11   C     C_R   0.649222 0.553815 0.601816 -0.107729
C12   C     C_R   0.351528 0.434953 0.397856 -0.107790
C13   C     C_R   0.867850 0.996693 0.994790 -0.168563
C14   C     C_R   0.126821 0.857923 0.005881 -0.166359
C15   C     C_R   0.632151 0.489187 0.505629 -0.166174
C16   C     C_R   0.372439 0.365555 0.494606 -0.166242
C17   C     C_R   0.835774 0.021020 0.941540 -0.238510
C18   C     C_R   0.160184 0.868919 0.058834 -0.233140
C19   C     C_R   0.664286 0.514944 0.558755 -0.232846
C20   C     C_R   0.339297 0.372866 0.441447 -0.233961
C21   C     C_R   0.900305 0.055646 0.908154 0.401608
C22   C     C_R   0.100632 0.983346 0.092211 0.405440
C23   C     C_R   0.599886 0.560725 0.591441 0.402107
C24   C     C_R   0.399408 0.483720 0.407619 0.404122
C25   C     C_R   0.933215 0.007620 0.961878 -0.015216
C26   C     C_R   0.064944 0.951324 0.038801 -0.017962
C27   C     C_R   0.566725 0.510266 0.538111 -0.014519
C28   C     C_R   0.434808 0.454680 0.461347 -0.016553
C29   C     C_R   0.916669 0.990301 0.006131 0.059307
C30   C     C_R   0.079138 0.898993 0.994662 0.058089
C31   C     C_R   0.583277 0.486691 0.494145 0.058554
C32   C     C_R   0.420241 0.407063 0.505770 0.059712
C33   C     C_R   0.982273 0.974937 0.972870 0.036924
C34   C     C_R   0.015346 0.968019 0.027911 0.036534
C35   C     C_R   0.517467 0.480424 0.527273 0.036799
C36   C     C_R   0.484474 0.469905 0.472259 0.037191
C37   C     C_R   0.997450 0.953859 0.070289 -0.147282
C38   C     C_R   0.998001 0.924958 0.930655 -0.148344
C39   C     C_R   0.502378 0.450519 0.430108 -0.146240
C40   C     C_R   0.501326 0.436561 0.569841 -0.144928
C41   C     C_R   0.949242 0.962163 0.060537 0.114768
C42   C     C_R   0.045122 0.884216 0.940483 0.123835
C43   C     C_R   0.550638 0.456052 0.439936 0.114778
C44   C     C_R   0.454004 0.397368 0.560200 0.116607
H1    H     H_    0.196192 0.829748 0.065914 0.124499
H2    H     H_    0.798414 0.017881 0.934334 0.126001
H3    H     H_    0.303149 0.333974 0.434460 0.125067
H4    H     H_    0.701634 0.508188 0.566167 0.130517
H5    H     H_    0.853398 0.979123 0.026585 0.139214
H6    H     H_    0.139175 0.813215 0.974200 0.138731
H7    H     H_    0.646575 0.466940 0.474101 0.141306
H8    H     H_    0.359820 0.323416 0.526513 0.138456
H9    H     H_    0.020400 0.918365 0.111241 0.154218
H10   H     H_    0.972994 0.899969 0.889852 0.151074
H11   H     H_    0.479283 0.412932 0.389427 0.153872
H12   H     H_    0.526084 0.414909 0.610955 0.153708
C45   C     C_R   0.093592 0.878456 0.481959 0.524965
C46   C     C_R   0.911981 0.994412 0.527336 0.547626
C47   C     C_R   0.407949 0.450763 0.018546 0.532891
C48   C     C_R   0.592411 0.489049 0.981027 0.533605
N1    N     N_R   0.077926 0.950939 0.429682 -0.531809
N2    N     N_R   0.932051 0.990292 0.583786 -0.525724
N3    N     N_R   0.424398 0.493943 0.073609 -0.537161
N4    N     N_R   0.575408 0.542073 0.926626 -0.537700
C49   C     C_R   0.033081 0.018374 0.406387 0.624838
C50   C     C_R   0.979509 0.962264 0.609652 0.619321
C51   C     C_R   0.471066 0.540118 0.100096 0.629220
C52   C     C_R   0.528177 0.577687 0.900550 0.629561
C53   C     C_R   0.002217 0.011449 0.435323 -0.066830
C54   C     C_R   0.008224 0.936151 0.578721 -0.069902
C55   C     C_R   0.502624 0.529463 0.072236 -0.069367
C56   C     C_R   0.496863 0.548077 0.928159 -0.068939
C57   C     C_R   0.019548 0.958616 0.491072 -0.041471
C58   C     C_R   0.989403 0.965837 0.521493 -0.048155
C59   C     C_R   0.484404 0.516235 0.014642 -0.046945
C60   C     C_R   0.515304 0.525693 0.985543 -0.047031
C61   C     C_R   0.066930 0.899456 0.516306 -0.046620
C62   C     C_R   0.940682 0.004346 0.494945 -0.062343
C63   C     C_R   0.435443 0.491916 0.986269 -0.044416
C64   C     C_R   0.564507 0.510992 0.013686 -0.043773
C65   C     C_R   0.954715 0.059490 0.409641 -0.173097
C66   C     C_R   0.055623 0.886909 0.604356 -0.174164
C67   C     C_R   0.551595 0.532995 0.100537 -0.171548
C68   C     C_R   0.447904 0.542097 0.899852 -0.169200
C69   C     C_R   0.923411 0.053754 0.437926 0.132255
C70   C     C_R   0.085086 0.864244 0.574267 0.131614
C71   C     C_R   0.582905 0.515723 0.072432 0.133033
C72   C     C_R   0.416919 0.506407 0.927644 0.133979
O21   O     O_2   0.134025 0.782437 0.499520 -0.558123
O22   O     O_2   0.864669 0.987078 0.503307 -0.543501
O23   O     O_2   0.366617 0.360111 0.996199 -0.554383
O24   O     O_2   0.634774 0.406935 0.002220 -0.554193
O25   O     O_2   0.018262 0.091473 0.355216 -0.525578
O26   O     O_2   0.999073 0.962221 0.665161 -0.533534
O27   O     O_2   0.487052 0.594787 0.153130 -0.514730
O28   O     O_2   0.511417 0.640114 0.848148 -0.513755
H13   H     H_    0.941444 0.099947 0.366609 0.164133
H14   H     H_    0.069952 0.863162 0.648470 0.161946
H15   H     H_    0.565727 0.542342 0.145099 0.164448
H16   H     H_    0.433601 0.558710 0.855454 0.164468
C73   C     C_R   0.898425 0.878887 0.651660 0.471106
C74   C     C_R   0.094930 0.840678 0.349077 0.478624
C75   C     C_R   0.596305 0.441022 0.847465 0.478858
C76   C     C_R   0.405596 0.362027 0.151570 0.476730
C77   C     C_R   0.865126 0.896112 0.676948 -0.328864
C78   C     C_R   0.123994 0.834810 0.318085 -0.302080
C79   C     C_R   0.626511 0.444240 0.817979 -0.297842
C80   C     C_R   0.375623 0.344313 0.181188 -0.301192
H17   H     H_    0.859736 0.782336 0.700990 0.150610
H18   H     H_    0.113039 0.753630 0.280764 0.144502
H19   H     H_    0.617767 0.361641 0.781131 0.141837
H20   H     H_    0.386111 0.257320 0.217526 0.146497
C81   C     C_R   0.839115 0.057514 0.671994 -0.126181
C82   C     C_R   0.165934 0.936974 0.333837 -0.124505
C83   C     C_R   0.666215 0.558628 0.833939 -0.122782
C84   C     C_R   0.333831 0.444415 0.166086 -0.125497
C85   C     C_R   0.847100 0.205066 0.641412 -0.233935
C86   C     C_R   0.179017 0.044734 0.381414 -0.229122
C87   C     C_R   0.676476 0.668165 0.880786 -0.232947
C88   C     C_R   0.321626 0.561972 0.120423 -0.229037
H21   H     H_    0.827685 0.331580 0.638252 0.140163
H22   H     H_    0.211575 0.123445 0.393410 0.128230
H23   H     H_    0.707476 0.756152 0.892778 0.127829
H24   H     H_    0.289197 0.639558 0.109265 0.127833
C89   C     C_R   0.878232 0.188102 0.612747 0.091680
C90   C     C_R   0.151251 0.050051 0.414183 0.120002
C91   C     C_R   0.648097 0.663498 0.912881 0.121149
C92   C     C_R   0.350125 0.580213 0.088764 0.124183
C93   C     C_R   0.902709 0.019371 0.616077 0.298827
C94   C     C_R   0.108212 0.947725 0.397726 0.267456
C95   C     C_R   0.606743 0.549245 0.895856 0.252707
C96   C     C_R   0.393231 0.479221 0.104481 0.256057
C97   C     C_3   0.934363 0.940430 0.109830 -0.362042
C98   C     C_3   0.923521 0.126779 0.129083 -0.708620
H25   H     H_    0.955448 0.216121 0.141793 0.237722
H26   H     H_    0.894571 0.197245 0.095919 0.220001
H27   H     H_    0.912719 0.106586 0.165003 0.222388
H28   H     H_    0.903797 0.845226 0.100434 0.172441
H29   H     H_    0.962879 0.875775 0.145088 0.187691
C99   C     C_3   0.057245 0.825224 0.891498 -0.364242
C100  C     C_3   0.078454 0.984754 0.869770 -0.724522
H30   H     H_    0.052703 0.098972 0.855841 0.235013
H31   H     H_    0.111218 0.037019 0.901997 0.222862
H32   H     H_    0.087017 0.937547 0.834170 0.222386
H33   H     H_    0.081227 0.705127 0.902092 0.175203
H34   H     H_    0.025170 0.777130 0.857143 0.171045
C101  C     C_3   0.565507 0.428280 0.390954 -0.362959
C102  C     C_3   0.577656 0.611642 0.370271 -0.703240
H35   H     H_    0.546321 0.702660 0.356676 0.238287
H36   H     H_    0.606988 0.682534 0.402947 0.219643
H37   H     H_    0.588464 0.587030 0.334653 0.223612
H38   H     H_    0.595434 0.331121 0.401226 0.173771
H39   H     H_    0.536624 0.363065 0.356143 0.188729
C103  C     C_3   0.441339 0.345989 0.609647 -0.360442
C104  C     C_3   0.419793 0.508905 0.628507 -0.707165
H40   H     H_    0.445480 0.624844 0.640901 0.239329
H41   H     H_    0.387176 0.556636 0.595241 0.218703
H42   H     H_    0.410880 0.467269 0.664550 0.223621
H43   H     H_    0.417363 0.224779 0.600588 0.174039
H44   H     H_    0.473197 0.302764 0.645010 0.189096
C105  C     C_3   0.883243 0.350401 0.577982 -0.318436
C106  C     C_3   0.934459 0.409961 0.590467 -0.633272
H45   H     H_    0.935381 0.554110 0.576472 0.236811
H46   H     H_    0.955578 0.399611 0.635184 0.245252
H47   H     H_    0.951215 0.325627 0.567675 0.188226
H48   H     H_    0.866309 0.317655 0.533586 0.193215
H49   H     H_    0.864035 0.471394 0.584888 0.197643
C107  C     C_3   0.168715 0.167504 0.465727 -0.343813
C108  C     C_3   0.140340 0.343146 0.458940 -0.734165
H50   H     H_    0.143898 0.427918 0.425141 0.229579
H51   H     H_    0.102674 0.311386 0.450300 0.223688
H52   H     H_    0.154410 0.423562 0.497596 0.246984
H53   H     H_    0.168332 0.090488 0.502213 0.206998
H54   H     H_    0.206175 0.208124 0.475700 0.170498
C109  C     C_3   0.663895 0.781581 0.964601 -0.333998
C110  C     C_3   0.631350 0.943055 0.960561 -0.740829
H55   H     H_    0.637055 0.049038 0.932886 0.230598
H56   H     H_    0.593849 0.899184 0.945381 0.225544
H57   H     H_    0.640223 0.005669 0.001879 0.236978
H58   H     H_    0.667919 0.699607 0.001667 0.209633
H59   H     H_    0.699716 0.839524 0.972919 0.168353
C111  C     C_3   0.332958 0.710317 0.039480 -0.331721
C112  C     C_3   0.363338 0.882538 0.047642 -0.753821
H60   H     H_    0.359447 0.966533 0.081028 0.226770
H61   H     H_    0.400829 0.846726 0.057532 0.225668
H62   H     H_    0.351217 0.965980 0.009224 0.244530
H63   H     H_    0.330462 0.641888 0.000967 0.209330
H64   H     H_    0.296379 0.756219 0.031839 0.167304
O29   O     O_3   0.089666 0.095746 0.128753 -0.552084
C113  C     C_3   0.100675 0.013149 0.181089 -0.271213
H65   H     H_    0.071508 0.040103 0.195796 0.168774
H66   H     H_    0.132153 0.081600 0.210568 0.172225
H67   H     H_    0.105481 0.861038 0.181575 0.098624
O30   O     O_3   0.917876 0.142399 0.871920 -0.553878
C114  C     C_3   0.901295 0.061306 0.819227 -0.289773
H68   H     H_    0.930703 0.057442 0.803836 0.158514
H69   H     H_    0.874122 0.151242 0.790780 0.163639
H70   H     H_    0.888033 0.917429 0.818384 0.109251
O31   O     O_3   0.410902 0.593817 0.370479 -0.552299
C115  C     C_3   0.399627 0.509107 0.318640 -0.270065
H71   H     H_    0.428885 0.534816 0.303793 0.171437
H72   H     H_    0.368352 0.576892 0.288820 0.170380
H73   H     H_    0.394347 0.357090 0.319030 0.100353
O32   O     O_3   0.582971 0.653793 0.626778 -0.552502
C116  C     C_3   0.598502 0.575444 0.680015 -0.274547
H74   H     H_    0.568821 0.576663 0.694972 0.174998
H75   H     H_    0.626399 0.663892 0.708290 0.165617
H76   H     H_    0.610497 0.430089 0.681891 0.103597
C117  C     C_3   0.873348 0.115654 0.405875 -0.311330
C118  C     C_3   0.841834 0.952735 0.378039 -0.677762
H77   H     H_    0.854284 0.890821 0.347035 0.207713
H78   H     H_    0.842086 0.845236 0.408535 0.255449
H79   H     H_    0.805082 0.000689 0.356758 0.208110
H80   H     H_    0.858489 0.194084 0.431925 0.205895
H81   H     H_    0.872934 0.215366 0.373172 0.154034
C119  C     C_3   0.135931 0.814619 0.607271 -0.310042
C120  C     C_3   0.142303 0.606038 0.611281 -0.689786
H82   H     H_    0.122396 0.545495 0.635477 0.210374
H83   H     H_    0.129334 0.542355 0.569843 0.247539
H84   H     H_    0.180220 0.573064 0.632338 0.207353
H85   H     H_    0.160725 0.881789 0.590728 0.205210
H86   H     H_    0.146630 0.869428 0.649853 0.151959
C121  C     C_3   0.635108 0.519887 0.107023 -0.317775
C122  C     C_3   0.653022 0.327344 0.127621 -0.688999
H87   H     H_    0.635055 0.273381 0.154778 0.211371
H88   H     H_    0.646391 0.231252 0.092647 0.250910
H89   H     H_    0.691532 0.333289 0.151606 0.207820
H90   H     H_    0.656039 0.582520 0.084521 0.199517
H91   H     H_    0.641702 0.610357 0.143347 0.156525
C123  C     C_3   0.364708 0.502337 0.893076 -0.318609
C124  C     C_3   0.349020 0.310294 0.869819 -0.688955
H92   H     H_    0.367553 0.270561 0.842045 0.211827
H93   H     H_    0.356769 0.206834 0.903424 0.253688
H94   H     H_    0.310484 0.309808 0.845835 0.206541
H95   H     H_    0.343137 0.550895 0.916361 0.199789
H96   H     H_    0.357009 0.600672 0.858062 0.156557
O33   O     O_3   0.924875 0.720227 0.657752 -0.552063
C125  C     C_3   0.946075 0.668341 0.713786 -0.200578
H97   H     H_    0.921746 0.579104 0.725922 0.127245
H98   H     H_    0.957893 0.788704 0.741961 0.136080
H99   H     H_    0.977939 0.586195 0.719028 0.166769
O34   O     O_3   0.051172 0.756194 0.328362 -0.536392
C126  C     C_3   0.054942 0.576734 0.350037 -0.209017
H100  H     H_    0.064223 0.579871 0.395367 0.145160
H101  H     H_    0.080643 0.493623 0.338938 0.138309
H102  H     H_    0.020093 0.507719 0.331855 0.192079
O35   O     O_3   0.553572 0.350088 0.824222 -0.531791
C127  C     C_3   0.557298 0.172298 0.846823 -0.217549
H103  H     H_    0.561382 0.179092 0.890835 0.143447
H104  H     H_    0.586325 0.093575 0.841079 0.135218
H105  H     H_    0.524011 0.096533 0.824825 0.189483
O36   O     O_3   0.449811 0.283428 0.173561 -0.531142
C128  C     C_3   0.448711 0.109996 0.149651 -0.217216
H106  H     H_    0.438835 0.121930 0.104313 0.139891
H107  H     H_    0.424976 0.013788 0.160651 0.144403
H108  H     H_    0.484665 0.051050 0.166551 0.187344

loop_
_geom_bond_atom_site_label_1
_geom_bond_atom_site_label_2
_ccdc_geom_bond_type
O17   V3    S    
C119  H86   S    
C101  C102  S    
C124  H93   S    
O1    C5    A    
C100  H30   S    
C50   C54   A    
N3    C51   A    
C73   O33   S    
O19   V1    S    
C9    C21   A    
C86   H22   S    
O3    C7    A    
O31   C115  S    
C10   C18   A    
C67   H15   S    
C86   C90   A    
C88   H24   S    
C11   C23   A    
C115  H71   S    
C125  H99   S    
C57   C58   A    
C33   C34   A    
C25   C33   A    
C105  H48   S    
C5    C12   S    
C45   C61   A    
O29   C113  S    
C102  H35   S    
C51   O27   S    
C87   H23   S    
C6    C11   S    
C121  H91   S    
C35   C40   A    
C123  C124  S    
C47   C63   A    
C36   C39   A    
C109  C110  S    
C50   O26   S    
C92   C111  S    
C99   C100  S    
N2    C93   S    
O10   V2    S    
C14   C18   A    
C116  H76   S    
C79   H19   S    
C127  H105  S    
C66   C70   A    
O33   C125  S    
O4    C8    A    
C126  H102  S    
C55   C59   A    
C80   H20   S    
C54   C58   A    
O35   C127  S    
C38   H10   S    
O1    V3    S    
O13   V1    S    
C31   C43   A    
C20   H3    S    
O2    V4    S    
C120  H82   S    
C57   C61   A    
C44   C103  S    
O3    V1    S    
C89   C93   A    
O12   V4    S    
C76   O36   S    
C81   C85   A    
C28   C36   A    
C98   H27   S    
C53   C65   A    
C28   C32   A    
C99   H34   S    
C111  H63   S    
C1    O15   A    
C60   C64   A    
C15   C31   A    
C23   O32   S    
C92   C96   A    
C102  H36   S    
C110  H55   S    
C16   C32   A    
C58   C62   A    
C103  H44   S    
O2    C6    A    
C112  H62   S    
C90   C94   A    
C105  H49   S    
C10   C22   A    
C2    O16   A    
C15   H7    S    
C11   C19   A    
C117  C118  S    
C97   H29   S    
C27   C31   A    
C103  H43   S    
C122  H89   S    
C85   H21   S    
C104  H42   S    
C13   C29   A    
C7    C10   S    
C34   C37   A    
O11   C7    A    
C56   C68   A    
C124  H94   S    
O15   V3    S    
C35   C36   A    
O12   C8    A    
C75   O35   S    
C128  H106  S    
C98   H26   S    
C21   O30   S    
C40   H12   S    
C99   H33   S    
C78   H18   S    
C118  H78   S    
C68   H16   S    
C76   C80   A    
O32   C116  S    
C122  H88   S    
C103  C104  S    
O5    V1    S    
C52   C56   A    
C39   C43   A    
O7    V3    S    
C38   C42   A    
C65   H13   S    
C112  H60   S    
O8    V4    S    
N4    C95   S    
C47   O23   S    
C33   C38   A    
C79   C83   A    
C46   O22   S    
C41   C97   S    
C59   C63   A    
C82   C86   A    
C37   H9    S    
C114  H68   S    
N1    C49   A    
C111  C112  S    
C127  H103  S    
C100  H31   S    
C23   C27   A    
C43   C101  S    
C61   C70   A    
C32   C44   A    
C107  H54   S    
C51   C55   A    
C18   H1    S    
O4    V2    S    
C68   C72   A    
C97   C98   S    
C63   C72   A    
C120  H83   S    
C118  H79   S    
C26   C34   A    
O7    C3    A    
C117  H80   S    
O5    C1    A    
C116  H74   S    
C91   C109  S    
C114  H69   S    
C45   O21   S    
C53   C57   A    
C72   C123  S    
C59   C60   A    
C14   C30   A    
C123  H96   S    
O8    C4    A    
C22   O29   S    
O30   C114  S    
C66   H14   S    
C108  H51   S    
C21   C25   A    
C46   C62   A    
O9    C5    A    
C83   C87   A    
N4    C52   A    
C107  H53   S    
C101  H39   S    
C4    C81   S    
C55   C67   A    
C37   C41   A    
C30   C42   A    
C74   C94   A    
C110  H56   S    
C71   C121  S    
O6    V2    S    
C49   O25   S    
C108  H52   S    
C100  H32   S    
C91   C95   A    
C117  H81   S    
C128  H107  S    
N2    C50   A    
C109  H58   S    
C48   C64   A    
C77   H17   S    
C48   O24   S    
C12   C20   A    
C27   C35   A    
C118  H77   S    
C75   C95   A    
C124  H92   S    
C78   C82   A    
C115  H73   S    
C40   C44   A    
C26   C30   A    
C29   C41   A    
C122  H87   S    
C109  H59   S    
O16   V4    S    
O9    V1    S    
C19   H4    S    
C13   H5    S    
C3    O13   A    
C119  H85   S    
C49   C53   A    
C113  H65   S    
C67   C71   A    
C3    C82   S    
C121  H90   S    
C89   C105  S    
C84   C88   A    
C113  H67   S    
C115  H72   S    
C47   N3    A    
O6    C2    A    
C64   C71   A    
C15   C19   A    
C126  H100  S    
C102  H37   S    
O11   V3    S    
C125  H97   S    
C39   H11   S    
C24   O31   S    
C80   C84   A    
C101  H38   S    
C22   C26   A    
C8    C9    S    
C120  H84   S    
C9    C17   A    
C107  C108  S    
C73   C93   A    
C106  H47   S    
O20   V2    S    
C52   O28   S    
C113  H66   S    
C85   C89   A    
C116  H75   S    
C46   N2    A    
C114  H70   S    
C126  H101  S    
O10   C6    A    
C105  C106  S    
C98   H25   S    
C48   N4    A    
C65   C69   A    
C123  H95   S    
C110  H57   S    
C25   C29   A    
C56   C60   A    
C87   C91   A    
C119  C120  S    
C1    C84   S    
C14   H6    S    
C16   H8    S    
C12   C24   A    
C70   C119  S    
N1    C94   S    
C111  H64   S    
C13   C17   A    
C75   C79   A    
C54   C66   A    
O34   C126  S    
C76   C96   A    
O14   V2    S    
C90   C107  S    
C104  H40   S    
C73   C77   A    
C16   C20   A    
C125  H98   S    
C77   C81   A    
O36   C128  S    
C127  H104  S    
C108  H50   S    
C2    C83   S    
C128  H108  S    
C4    O14   A    
C112  H61   S    
C74   C78   A    
N3    C96   S    
C74   O34   S    
C62   C69   A    
C42   C99   S    
C106  H45   S    
C24   C28   A    
C106  H46   S    
C97   H28   S    
O18   V4    S    
C45   N1    A    
C88   C92   A    
C121  C122  S    
C17   H2    S    
C104  H41   S    
C69   C117  S    
