data_mof_unit_7226.cif
_audit_creation_date              2013-03-05T15:40:08-0500
_audit_creation_method            fapswitch 2.2
_symmetry_space_group_name_H-M    P1
_symmetry_Int_Tables_number       1
_space_group_crystal_system       triclinic
_cell_length_a                    28.06666
_cell_length_b                    18.776201
_cell_length_c                    16.820848
_cell_angle_alpha                 89.866287
_cell_angle_beta                  62.661799
_cell_angle_gamma                 89.70893
_cell_volume                      7874.19015051

loop_
_atom_site_label
_atom_site_type_symbol
_atom_site_description
_atom_site_fract_x
_atom_site_fract_y
_atom_site_fract_z
_atom_type_partial_charge
O1    O     O_R   0.255040 0.869590 0.478480 -0.501034
O2    O     O_R   0.744960 0.130410 0.521520 -0.497557
O3    O     O_R   0.744960 0.869590 0.521520 -0.496431
O4    O     O_R   0.255040 0.130410 0.478480 -0.500470
O5    O     O_R   0.755040 0.369590 0.478480 -0.497891
O6    O     O_R   0.244960 0.630410 0.521520 -0.497974
O7    O     O_R   0.244960 0.369590 0.521520 -0.497491
O8    O     O_R   0.755040 0.630410 0.478480 -0.497389
O9    O     O_R   0.182050 0.796550 0.624440 -0.595273
O10   O     O_R   0.817950 0.203450 0.375560 -0.591795
O11   O     O_R   0.817950 0.796550 0.375560 -0.591094
O12   O     O_R   0.182050 0.203450 0.624440 -0.593009
O13   O     O_R   0.682050 0.296550 0.624440 -0.590834
O14   O     O_R   0.317950 0.703450 0.375560 -0.582682
O15   O     O_R   0.317950 0.296550 0.375560 -0.591345
O16   O     O_R   0.682050 0.703450 0.624440 -0.592925
Cu1   Cu    Cu3+1 0.209920 0.785290 0.495070 1.003858
Cu2   Cu    Cu3+1 0.790080 0.214710 0.504930 1.005040
Cu3   Cu    Cu3+1 0.790080 0.785290 0.504930 1.007780
Cu4   Cu    Cu3+1 0.209920 0.214710 0.495070 1.006629
Cu5   Cu    Cu3+1 0.709920 0.285290 0.495070 1.003308
Cu6   Cu    Cu3+1 0.290080 0.714710 0.504930 1.009468
Cu7   Cu    Cu3+1 0.290080 0.285290 0.504930 1.011845
Cu8   Cu    Cu3+1 0.709920 0.714710 0.495070 1.014205
C1    C     C_R   0.294792 0.727843 0.329676 0.822342
C2    C     C_R   0.705234 0.272206 0.670306 0.810312
C3    C     C_R   0.705127 0.728142 0.670314 0.801581
C4    C     C_R   0.294881 0.271841 0.329680 0.806327
C5    C     C_R   0.794765 0.227793 0.329695 0.808228
C6    C     C_R   0.205264 0.772258 0.670284 0.790679
C7    C     C_R   0.205125 0.228148 0.670315 0.803186
C8    C     C_R   0.794877 0.771853 0.329681 0.805907
O17   O     O_R   0.250530 0.763330 0.367210 -0.585215
O18   O     O_R   0.749470 0.236670 0.632790 -0.588024
O19   O     O_R   0.749470 0.763330 0.632790 -0.586804
O20   O     O_R   0.250530 0.236670 0.367210 -0.584997
O21   O     O_R   0.750530 0.263330 0.367210 -0.588818
O22   O     O_R   0.249470 0.736670 0.632790 -0.601037
O23   O     O_R   0.249470 0.263330 0.632790 -0.585396
O24   O     O_R   0.750530 0.736670 0.367210 -0.584675
O25   O     O_R   0.177260 0.690030 0.513710 -0.622027
O26   O     O_R   0.822740 0.309970 0.486290 -0.621842
O27   O     O_R   0.822740 0.690030 0.486290 -0.618283
O28   O     O_R   0.177260 0.309970 0.513710 -0.618168
O29   O     O_R   0.677260 0.190030 0.513710 -0.625723
O30   O     O_R   0.322740 0.809970 0.486290 -0.613658
O31   O     O_R   0.322740 0.190030 0.486290 -0.614077
O32   O     O_R   0.677260 0.809970 0.513710 -0.611621
C9    C     C_R   0.196615 0.631699 0.527214 0.849783
C10   C     C_R   0.803384 0.368301 0.472792 0.849607
C11   C     C_R   0.803501 0.631757 0.472326 0.844430
C12   C     C_R   0.196498 0.368243 0.527679 0.844720
C13   C     C_R   0.697044 0.131616 0.525728 0.853474
C14   C     C_R   0.299703 0.868908 0.484975 0.854487
C15   C     C_R   0.303189 0.131592 0.473394 0.839919
C16   C     C_R   0.696234 0.868160 0.528696 0.840269
H1    H     H_    0.507238 0.765618 0.614688 0.158073
H2    H     H_    0.475182 0.237911 0.441791 0.153178
H3    H     H_    0.422415 0.767915 0.605959 0.152892
H4    H     H_    0.547075 0.241483 0.485660 0.150363
H5    H     H_    0.034222 0.256263 0.529527 0.150990
H6    H     H_    0.965766 0.743738 0.470523 0.151006
H7    H     H_    0.963623 0.255748 0.482461 0.150150
H8    H     H_    0.036364 0.744252 0.517591 0.150171
C17   C     C_R   0.042092 0.629260 0.521545 0.087586
C18   C     C_R   0.957896 0.370740 0.478504 0.087689
C19   C     C_R   0.959012 0.628762 0.472246 0.089208
C20   C     C_R   0.040977 0.371238 0.527802 0.089180
C21   C     C_R   0.545554 0.127980 0.510867 0.083632
C22   C     C_R   0.431125 0.876694 0.558023 0.089837
C23   C     C_R   0.460505 0.124965 0.467311 0.092838
C24   C     C_R   0.528049 0.874778 0.571077 0.091325
C25   C     C_R   0.020884 0.693692 0.508918 -0.175463
C26   C     C_R   0.979103 0.306308 0.491134 -0.175638
C27   C     C_R   0.980823 0.693398 0.481613 -0.173345
C28   C     C_R   0.019164 0.306603 0.518438 -0.173298
C29   C     C_R   0.528092 0.191026 0.487178 -0.179043
C30   C     C_R   0.446953 0.815389 0.588139 -0.182633
C31   C     C_R   0.487259 0.188990 0.461944 -0.172642
C32   C     C_R   0.495395 0.814076 0.593245 -0.170989
C33   C     C_R   0.978692 0.564317 0.487779 0.026194
C34   C     C_R   0.021295 0.435683 0.512271 0.026162
C35   C     C_R   0.021875 0.564526 0.509098 0.026835
C36   C     C_R   0.978112 0.435474 0.490953 0.026816
C37   C     C_R   0.476307 0.062434 0.495083 0.025323
C38   C     C_R   0.511053 0.937186 0.545088 0.026626
C39   C     C_R   0.521170 0.063263 0.511613 0.028667
C40   C     C_R   0.463345 0.937562 0.535872 0.028995
C41   C     C_R   0.446971 0.999601 0.507571 -0.018136
C42   C     C_R   0.540264 0.000148 0.532533 -0.018008
C43   C     C_R   0.956078 0.499797 0.479911 -0.018683
C44   C     C_R   0.043910 0.500204 0.520136 -0.018661
C45   C     C_R   0.369724 0.936851 0.511217 -0.030189
C46   C     C_R   0.613778 0.065991 0.538503 -0.029666
C47   C     C_R   0.610222 0.935419 0.552948 -0.029138
C48   C     C_R   0.383751 0.063046 0.468464 -0.032138
C49   C     C_R   0.887069 0.434179 0.459065 -0.030307
C50   C     C_R   0.112924 0.565822 0.540966 -0.030369
C51   C     C_R   0.112518 0.434888 0.543309 -0.031223
C52   C     C_R   0.887476 0.565111 0.456721 -0.031206
C53   C     C_R   0.326569 0.935713 0.488071 -0.231240
C54   C     C_R   0.664741 0.065619 0.539214 -0.227069
C55   C     C_R   0.663370 0.934872 0.544970 -0.228504
C56   C     C_R   0.333710 0.064335 0.465507 -0.224501
C57   C     C_R   0.836079 0.434435 0.458255 -0.227789
C58   C     C_R   0.163919 0.565565 0.541760 -0.227679
C59   C     C_R   0.163734 0.434725 0.542846 -0.227353
C60   C     C_R   0.836264 0.565275 0.457167 -0.227339
C61   C     C_R   0.308845 0.999692 0.467048 0.530982
C62   C     C_R   0.688211 0.000156 0.542794 0.527072
C63   C     C_R   0.812676 0.499957 0.454689 0.527956
C64   C     C_R   0.187324 0.500043 0.545319 0.527796
C65   C     C_R   0.400318 0.999630 0.494982 0.067680
C66   C     C_R   0.588411 0.000424 0.540949 0.065688
C67   C     C_R   0.910063 0.499678 0.465087 0.065333
C68   C     C_R   0.089928 0.500323 0.534950 0.065296
C69   C     C_R   0.577138 0.874090 0.574780 -0.185972
C70   C     C_R   0.417282 0.123340 0.447901 -0.184158
C71   C     C_R   0.383462 0.878056 0.550416 -0.194423
C72   C     C_R   0.586569 0.129250 0.535127 -0.190104
C73   C     C_R   0.082823 0.372014 0.550790 -0.184492
C74   C     C_R   0.917169 0.627986 0.449248 -0.184582
C75   C     C_R   0.916275 0.371026 0.454938 -0.187503
C76   C     C_R   0.083717 0.628974 0.545103 -0.187290
H9    H     H_    0.587451 0.826144 0.599014 0.169932
H10   H     H_    0.411214 0.169568 0.415378 0.172383
H11   H     H_    0.357017 0.833422 0.578849 0.169706
H12   H     H_    0.593625 0.180917 0.554301 0.184988
H13   H     H_    0.090068 0.322840 0.576482 0.177625
H14   H     H_    0.909929 0.677160 0.423549 0.177529
H15   H     H_    0.909198 0.321130 0.431101 0.179707
H16   H     H_    0.090798 0.678870 0.568935 0.180030
H17   H     H_    0.159217 0.700765 0.051882 0.155894
H18   H     H_    0.841135 0.300211 0.947912 0.155782
H19   H     H_    0.752360 0.875496 0.042623 0.160069
H20   H     H_    0.248400 0.124180 0.956316 0.159715
H21   H     H_    0.658855 0.199793 0.052107 0.155820
H22   H     H_    0.341725 0.800537 0.947225 0.155551
H23   H     H_    0.251780 0.375539 0.043515 0.159698
H24   H     H_    0.748056 0.623916 0.956970 0.160111
C77   C     C_R   0.221835 0.765000 0.951475 0.131243
C78   C     C_R   0.778622 0.235718 0.048111 0.129887
C79   C     C_R   0.777492 0.767347 0.048998 0.122321
C80   C     C_R   0.222828 0.232214 0.950685 0.122443
C81   C     C_R   0.721370 0.264280 0.951902 0.129787
C82   C     C_R   0.279053 0.736405 0.047724 0.130645
C83   C     C_R   0.277351 0.267506 0.049149 0.122149
C84   C     C_R   0.722911 0.732065 0.950619 0.121875
C85   C     C_R   0.273506 0.792701 0.922329 -0.146514
C86   C     C_R   0.727031 0.207806 0.077084 -0.141902
C87   C     C_R   0.775733 0.696409 0.025015 -0.130342
C88   C     C_R   0.224320 0.303090 0.975113 -0.130408
C89   C     C_R   0.772960 0.292196 0.922933 -0.141488
C90   C     C_R   0.227408 0.708665 0.076797 -0.141990
C91   C     C_R   0.275865 0.196630 0.024716 -0.130016
C92   C     C_R   0.724687 0.803003 0.974582 -0.130859
H25   H     H_    0.291391 0.826088 0.863283 0.137026
H26   H     H_    0.709221 0.174255 0.135979 0.140914
H27   H     H_    0.795849 0.654975 0.043349 0.148188
H28   H     H_    0.204004 0.344467 0.957115 0.148062
H29   H     H_    0.790769 0.325750 0.864040 0.140924
H30   H     H_    0.209533 0.675227 0.135792 0.140712
H31   H     H_    0.296179 0.155254 0.042720 0.148573
H32   H     H_    0.704568 0.844442 0.956259 0.148083
C93   C     C_R   0.301896 0.778719 0.970402 -0.080324
C94   C     C_R   0.698626 0.221776 0.029044 -0.081015
C95   C     C_R   0.748809 0.678909 0.975647 -0.086657
C96   C     C_R   0.251223 0.320594 0.024510 -0.087005
C97   C     C_R   0.801365 0.278226 0.970973 -0.080707
C98   C     C_R   0.199028 0.722637 0.028735 -0.080311
C99   C     C_R   0.248960 0.179124 0.975319 -0.086957
C100  C     C_R   0.751609 0.820502 0.023945 -0.086063
C101  C     C_R   0.142929 0.824393 0.947355 0.326947
C102  C     C_R   0.857441 0.176180 0.052368 0.327219
C103  C     C_R   0.853765 0.830566 0.055338 0.326014
C104  C     C_R   0.146587 0.168868 0.944369 0.325879
C105  C     C_R   0.642558 0.323823 0.947635 0.327381
C106  C     C_R   0.357724 0.676607 0.052160 0.328475
C107  C     C_R   0.353574 0.330862 0.055499 0.325949
C108  C     C_R   0.646599 0.668839 0.944359 0.325289
C109  C     C_R   0.116733 0.849148 0.897532 -0.161039
C110  C     C_R   0.883440 0.151096 0.102353 -0.160556
C111  C     C_R   0.880846 0.853332 0.104412 -0.168964
C112  C     C_R   0.119317 0.146420 0.895465 -0.168894
C113  C     C_R   0.616559 0.348906 0.897648 -0.160401
C114  C     C_R   0.383557 0.651250 0.102281 -0.160723
C115  C     C_R   0.380758 0.353460 0.104478 -0.168700
C116  C     C_R   0.619312 0.646426 0.895469 -0.168221
C117  C     C_R   0.136295 0.828801 0.808141 -0.261607
C118  C     C_R   0.863786 0.171295 0.191820 -0.260651
C119  C     C_R   0.862375 0.830904 0.192850 -0.253750
C120  C     C_R   0.137660 0.169061 0.807138 -0.255674
C121  C     C_R   0.636214 0.328706 0.808182 -0.260346
C122  C     C_R   0.363824 0.671324 0.191808 -0.257542
C123  C     C_R   0.362364 0.330906 0.192851 -0.254723
C124  C     C_R   0.637650 0.669078 0.807146 -0.255520
H33   H     H_    0.116374 0.847298 0.769921 0.197617
H34   H     H_    0.883558 0.152534 0.230161 0.197846
H35   H     H_    0.882303 0.849008 0.231029 0.199181
H36   H     H_    0.117622 0.151145 0.769054 0.198872
H37   H     H_    0.616444 0.347470 0.769839 0.198058
H38   H     H_    0.383465 0.652332 0.230255 0.199452
H39   H     H_    0.382348 0.348917 0.230981 0.199006
H40   H     H_    0.617588 0.651207 0.769081 0.198436
C125  C     C_R   0.182889 0.787955 0.766033 -0.048457
C126  C     C_R   0.817267 0.212299 0.233850 -0.053518
C127  C     C_R   0.817152 0.787819 0.233901 -0.054899
C128  C     C_R   0.182902 0.212105 0.766060 -0.054220
C129  C     C_R   0.682730 0.287698 0.766153 -0.054398
C130  C     C_R   0.317380 0.712482 0.233768 -0.057543
C131  C     C_R   0.317138 0.287830 0.233913 -0.054757
C132  C     C_R   0.682914 0.712081 0.766052 -0.053733
C133  C     C_R   0.210251 0.766573 0.814034 -0.247143
C134  C     C_R   0.790096 0.234017 0.185662 -0.240575
C135  C     C_R   0.790754 0.764932 0.185070 -0.239765
C136  C     C_R   0.209386 0.234858 0.814808 -0.240450
C137  C     C_R   0.709898 0.265973 0.814346 -0.240817
C138  C     C_R   0.290380 0.734506 0.185421 -0.239591
C139  C     C_R   0.290708 0.264984 0.185116 -0.239628
C140  C     C_R   0.709438 0.734760 0.814766 -0.240587
H41   H     H_    0.247328 0.736448 0.781397 0.179715
H42   H     H_    0.753073 0.264261 0.218222 0.183114
H43   H     H_    0.755104 0.732311 0.216527 0.185192
H44   H     H_    0.245009 0.267528 0.783357 0.184833
H45   H     H_    0.746918 0.235723 0.781790 0.183289
H46   H     H_    0.253410 0.764865 0.217917 0.183647
H47   H     H_    0.255083 0.232316 0.216561 0.184729
H48   H     H_    0.745085 0.767385 0.783293 0.184256
C141  C     C_R   0.190581 0.784481 0.904171 -0.046975
C142  C     C_R   0.809849 0.216224 0.095462 -0.048751
C143  C     C_R   0.808440 0.786783 0.096644 -0.043186
C144  C     C_R   0.191841 0.212781 0.903110 -0.043419
C145  C     C_R   0.690145 0.283771 0.904546 -0.048754
C146  C     C_R   0.310216 0.716829 0.095157 -0.048688
C147  C     C_R   0.308313 0.286961 0.096760 -0.043312
C148  C     C_R   0.691899 0.712672 0.903064 -0.042940
O33   O     O_R   0.051640 0.926880 0.885090 -0.597958
O34   O     O_R   0.948360 0.073120 0.114910 -0.597489
O35   O     O_R   0.948360 0.926880 0.114910 -0.588441
O36   O     O_R   0.051640 0.073120 0.885090 -0.588870
O37   O     O_R   0.551640 0.426880 0.885090 -0.597504
O38   O     O_R   0.448360 0.573120 0.114910 -0.596479
O39   O     O_R   0.448360 0.426880 0.114910 -0.588528
O40   O     O_R   0.551640 0.573120 0.885090 -0.589095
Cu9   Cu    Cu3+1 0.495240 0.500000 0.924150 1.105273
Cu10  Cu    Cu3+1 0.504760 0.500000 0.075850 1.108664
Cu11  Cu    Cu3+1 0.995240 1.000000 0.924150 1.104938
Cu12  Cu    Cu3+1 0.004760 1.000000 0.075850 1.105982
C149  C     C_R   0.925994 0.903690 0.066793 0.802767
C150  C     C_R   0.074072 0.096214 0.933152 0.802252
C151  C     C_R   0.072919 0.902010 0.934201 0.805496
C152  C     C_R   0.927132 0.098056 0.065759 0.806207
C153  C     C_R   0.425955 0.403745 0.066826 0.802248
C154  C     C_R   0.574064 0.596226 0.933158 0.802520
C155  C     C_R   0.572868 0.401945 0.934241 0.805778
C156  C     C_R   0.427161 0.598089 0.065739 0.806149
O41   O     O_R   0.940620 0.926560 0.986760 -0.526540
O42   O     O_R   0.059380 0.073440 0.013240 -0.526637
O43   O     O_R   0.059380 0.926560 0.013240 -0.516001
O44   O     O_R   0.940620 0.073440 0.986760 -0.516210
O45   O     O_R   0.440620 0.426560 0.986760 -0.526674
O46   O     O_R   0.559380 0.573440 0.013240 -0.526061
O47   O     O_R   0.559380 0.426560 0.013240 -0.516129
O48   O     O_R   0.440620 0.573440 0.986760 -0.516373
F1    F     F_    0.266289 0.999417 0.449103 -0.627460
F2    F     F_    0.736913 0.999916 0.541784 -0.628550
F3    F     F_    0.765205 0.500154 0.451337 -0.628588
F4    F     F_    0.234800 0.499846 0.548655 -0.628627
N1    N     N_R   0.122636 0.841304 0.040467 0.123759
O49   O     O_R   0.078261 0.812615 0.099307 -0.363532
O50   O     O_R   0.150172 0.881528 0.067071 -0.322520
N2    N     N_R   0.877875 0.159477 0.959174 0.123695
O51   O     O_R   0.850382 0.119501 0.932225 -0.323742
O52   O     O_R   0.922408 0.188006 0.900613 -0.363682
N3    N     N_R   0.871716 0.851071 0.963830 0.125730
O53   O     O_R   0.893429 0.803783 0.900680 -0.351206
O54   O     O_R   0.858204 0.912982 0.945337 -0.330275
N4    N     N_R   0.128997 0.147735 0.035565 0.125765
O55   O     O_R   0.142493 0.085499 0.053170 -0.329373
O56   O     O_R   0.107696 0.194680 0.099221 -0.350987
N5    N     N_R   0.622133 0.340542 0.040823 0.123696
O57   O     O_R   0.577611 0.312000 0.099406 -0.364475
O58   O     O_R   0.649625 0.380549 0.067746 -0.323058
N6    N     N_R   0.378185 0.659900 0.958955 0.123024
O59   O     O_R   0.350713 0.619876 0.931995 -0.325263
O60   O     O_R   0.422743 0.688403 0.900405 -0.368501
N7    N     N_R   0.371276 0.351796 0.964204 0.125921
O61   O     O_R   0.392741 0.304751 0.900701 -0.350000
O62   O     O_R   0.357730 0.413904 0.946325 -0.330025
N8    N     N_R   0.628931 0.647836 0.035623 0.126020
O63   O     O_R   0.642365 0.585630 0.053435 -0.329261
O64   O     O_R   0.607537 0.694856 0.099182 -0.346152

loop_
_geom_bond_atom_site_label_1
_geom_bond_atom_site_label_2
_geom_bond_distance
_ccdc_geom_bond_type
C82   C146  1.474131 S    
O35   C149  1.307592 A    
Cu2   Cu5   2.675228 S    
C59   C64   1.406407 A    
C114  C122  1.396819 A    
H22   C93   1.083090 S    
O37   Cu9   1.961941 S    
C74   H14   1.075890 S    
N6    O59   1.301367 A    
C38   C40   1.416862 A    
C123  H39   1.083353 S    
C117  H33   1.083364 S    
Cu6   O22   1.960239 S    
C121  H37   1.083357 S    
O40   Cu9   1.971028 S    
C6    O22   1.287817 A    
C134  H42   1.083927 S    
C33   C35   1.413096 A    
C118  C126  1.393458 A    
C106  N6    1.435157 S    
N2    O51   1.301176 A    
H18   C97   1.083067 S    
N7    O62   1.301451 A    
O3    Cu3   1.960621 S    
C36   C43   1.404418 A    
C115  C153  1.474166 S    
C83   C91   1.400187 A    
C64   F4    1.359168 S    
C51   C73   1.420243 A    
C49   C57   1.437424 A    
C126  C134  1.402833 A    
C79   C87   1.400268 A    
O40   C154  1.307627 A    
Cu9   Cu10  2.684943 S    
C25   C27   1.396267 A    
C52   C67   1.415753 A    
O25   C9    1.285439 A    
H21   C94   1.083068 S    
Cu11  O41   1.972935 S    
C81   C94   1.402751 A    
C29   C31   1.393696 A    
C41   C65   1.419156 A    
C38   C42   1.401430 A    
C137  C145  1.396041 A    
C51   C68   1.415753 A    
C132  C140  1.404293 A    
C3    O19   1.291785 A    
C108  N8    1.434581 S    
O35   Cu12  1.971027 S    
H17   C98   1.083083 S    
C136  H44   1.083842 S    
C113  C155  1.473624 S    
Cu12  O43   1.965471 S    
C82   C90   1.402473 A    
H20   C99   1.083070 S    
C13   C54   1.493390 S    
O12   Cu4   1.956560 S    
O13   Cu5   1.956799 S    
H19   C100  1.083135 S    
C44   C68   1.423353 A    
H2    C31   1.083725 S    
C155  O47   1.289096 A    
C34   C36   1.413094 A    
C156  O48   1.289166 A    
H6    C27   1.083664 S    
C133  C141  1.395831 A    
C152  O44   1.289106 A    
C103  C111  1.422326 A    
C153  O45   1.287119 A    
C104  C112  1.422442 A    
C48   C56   1.428090 A    
O34   C152  1.305940 A    
C16   C55   1.500884 S    
O2    C13   1.313918 A    
O39   C153  1.307623 A    
C20   C73   1.395172 A    
C9    C58   1.499289 S    
H7    C26   1.083662 S    
C50   C58   1.437415 A    
C60   C63   1.406402 A    
C129  C137  1.402848 A    
C116  C154  1.474129 S    
C63   F3    1.359168 S    
Cu3   O19   1.960563 S    
C101  N1    1.435067 S    
O10   Cu2   1.956799 S    
C87   C95   1.395987 A    
C107  N7    1.434566 S    
C120  H36   1.083350 S    
C103  N3    1.434670 S    
C124  C132  1.394612 A    
O5    Cu5   1.969937 S    
C40   C41   1.409834 A    
C46   C54   1.435867 A    
C84   C95   1.404780 A    
C110  C118  1.396747 A    
C53   C61   1.403267 A    
C138  H46   1.083923 S    
C104  C144  1.404646 A    
C14   C53   1.480088 S    
C21   C29   1.404136 A    
Cu9   O45   1.972935 S    
C102  C110  1.421076 A    
C23   C31   1.401275 A    
C105  C113  1.421074 A    
C47   C69   1.420842 A    
C4    C131  1.466533 S    
C50   C76   1.421611 A    
C80   C99   1.404644 A    
C90   C98   1.394708 A    
C26   C28   1.396263 A    
C55   C62   1.405341 A    
C79   C100  1.404714 A    
Cu2   O26   1.971746 S    
C30   C32   1.401233 A    
C78   C142  1.474131 S    
C86   C94   1.394985 A    
C76   H16   1.074589 S    
C17   C76   1.395371 A    
C110  C152  1.473642 S    
C46   C72   1.423902 A    
O36   Cu11  1.971028 S    
H8    C25   1.083661 S    
O28   C12   1.291366 A    
O16   C3    1.301414 A    
C42   C66   1.421953 A    
O29   C13   1.283751 A    
H1    C32   1.083478 S    
C109  C117  1.396650 A    
C121  C129  1.393456 A    
H3    C30   1.083558 S    
Cu4   O28   1.964612 S    
C47   C55   1.435016 A    
Cu5   O29   1.971746 S    
H5    C28   1.083664 S    
C52   C60   1.433904 A    
Cu7   O31   1.964612 S    
Cu8   O32   1.964612 S    
C139  C147  1.395700 A    
C85   C93   1.395122 A    
C61   F1    1.359744 S    
C106  C146  1.406370 A    
C102  N2    1.435045 S    
C91   H31   1.083196 S    
C6    C125  1.465117 S    
C15   C56   1.493846 S    
C92   C100  1.395873 A    
C8    C127  1.466597 S    
C87   H27   1.083259 S    
C106  C114  1.420980 A    
C104  N4    1.434527 S    
C122  C130  1.393485 A    
Cu4   Cu7   2.686910 S    
O39   Cu10  1.971027 S    
C119  C127  1.394659 A    
C102  C142  1.406402 A    
C108  C148  1.404676 A    
O9    C6    1.297689 A    
O26   C10   1.285431 A    
Cu12  O42   1.972935 S    
C82   C93   1.402970 A    
O11   C8    1.301415 A    
C19   C33   1.400649 A    
O12   C7    1.301421 A    
O13   C2    1.297690 A    
C124  H40   1.083356 S    
C5    O21   1.287946 A    
C105  N5    1.435056 S    
C90   H30   1.083344 S    
Cu10  O46   1.972935 S    
N5    O58   1.301220 A    
C131  C139  1.404316 A    
C114  C156  1.473578 S    
O1    Cu1   1.969937 S    
C20   C34   1.400657 A    
O14   Cu6   1.956799 S    
N6    O60   1.301322 A    
C49   C75   1.421615 A    
O7    Cu7   1.960621 S    
C3    C132  1.466455 S    
O8    Cu8   1.960623 S    
C1    C130  1.465815 S    
C125  C133  1.402777 A    
C19   C27   1.403389 A    
C154  O46   1.287091 A    
N2    O52   1.301148 A    
O34   Cu12  1.961938 S    
C18   C75   1.395366 A    
C45   C71   1.424046 A    
C79   C143  1.474426 S    
C69   H9    1.079068 S    
C1    O17   1.288023 A    
C71   H11   1.077203 S    
O36   C150  1.307634 A    
C81   C145  1.474133 S    
N3    O53   1.300932 A    
Cu11  O44   1.965469 S    
O11   Cu3   1.956560 S    
O38   Cu10  1.961938 S    
C107  C115  1.422402 A    
C47   C66   1.417713 A    
C77   C141  1.474050 S    
O6    Cu6   1.969935 S    
C34   C44   1.404872 A    
C140  H48   1.083848 S    
N8    O63   1.301473 A    
C108  C116  1.422434 A    
C151  O43   1.288992 A    
C133  H41   1.083960 S    
C12   C59   1.497754 S    
C117  C125  1.393406 A    
C112  C120  1.396391 A    
O37   C155  1.305938 A    
C21   C39   1.394839 A    
C57   C63   1.405771 A    
C101  C109  1.421132 A    
N1    O49   1.301174 A    
Cu1   O17   1.960237 S    
C88   C96   1.395915 A    
Cu3   O27   1.964612 S    
C37   C41   1.401353 A    
C49   C67   1.417004 A    
C111  C119  1.396436 A    
C112  C150  1.474133 S    
C18   C26   1.403776 A    
N7    O61   1.300816 A    
O30   C14   1.284109 A    
C127  C135  1.404332 A    
C45   C65   1.412368 A    
C78   C97   1.402746 A    
Cu6   O30   1.971746 S    
O4    C15   1.314582 A    
C109  C151  1.473616 S    
O5    C10   1.315753 A    
C54   C62   1.405785 A    
C20   C28   1.403387 A    
C45   C53   1.432659 A    
C134  C142  1.396028 A    
C62   F2    1.359158 S    
C118  H34   1.083356 S    
C86   H26   1.083317 S    
C75   H15   1.074584 S    
C80   C144  1.474394 S    
C73   H13   1.075892 S    
O7    C12   1.316186 A    
C24   C38   1.405416 A    
C72   H12   1.070703 S    
C51   C59   1.433896 A    
C21   C72   1.387080 A    
Cu1   Cu6   2.675228 S    
C149  O41   1.287146 A    
C78   C86   1.402567 A    
Cu3   Cu8   2.686910 S    
C7    C128  1.466467 S    
O10   C5    1.297683 A    
O27   C11   1.291357 A    
O15   C4    1.301416 A    
C77   C98   1.402719 A    
C43   C67   1.423360 A    
O14   C1    1.297702 A    
H23   C96   1.083073 S    
C83   C96   1.404612 A    
Cu4   O20   1.960561 S    
Cu5   O21   1.960237 S    
C4    O20   1.291807 A    
C24   C32   1.404553 A    
C39   C42   1.407203 A    
C89   C97   1.394981 A    
C84   C92   1.400254 A    
C139  H47   1.083843 S    
C85   H25   1.083412 S    
C89   H29   1.083316 S    
C80   C88   1.400171 A    
C83   C147  1.474378 S    
C88   H28   1.083198 S    
C22   C30   1.406304 A    
O38   C156  1.305852 A    
C22   C40   1.400641 A    
C46   C66   1.416331 A    
C77   C85   1.402668 A    
C58   C64   1.405776 A    
C35   C44   1.404415 A    
O33   Cu11  1.961941 S    
C135  C143  1.395772 A    
C48   C70   1.413136 A    
N3    O54   1.301563 A    
C119  H35   1.083350 S    
C56   C61   1.397411 A    
C17   C35   1.400153 A    
C17   C25   1.403772 A    
C136  C144  1.395671 A    
C23   C37   1.405650 A    
C2    O18   1.287942 A    
C11   C60   1.497752 S    
C24   C69   1.407463 A    
C52   C74   1.420249 A    
C81   C89   1.402560 A    
O15   Cu7   1.956560 S    
O16   Cu8   1.956560 S    
C120  C128  1.394610 A    
C37   C39   1.408829 A    
H4    C29   1.083766 S    
C103  C143  1.404637 A    
C138  C146  1.396234 A    
C107  C147  1.404645 A    
C105  C145  1.406386 A    
N5    O57   1.301172 A    
C5    C126  1.465529 S    
C84   C148  1.474496 S    
O1    C14   1.307306 A    
C111  C149  1.474117 S    
C123  C131  1.394649 A    
C10   C57   1.499289 S    
O3    C16   1.316923 A    
C50   C68   1.417004 A    
C22   C71   1.401235 A    
C33   C43   1.404872 A    
Cu2   O18   1.960239 S    
O8    C11   1.316191 A    
C116  C124  1.396397 A    
C101  C141  1.406430 A    
O9    Cu1   1.956799 S    
N4    O56   1.300751 A    
C19   C74   1.395172 A    
O31   C15   1.291768 A    
O32   C16   1.292826 A    
C23   C70   1.394065 A    
C115  C123  1.396416 A    
N4    O55   1.301393 A    
C140  C148  1.395688 A    
C113  C121  1.396749 A    
O2    Cu2   1.969935 S    
C135  H43   1.083839 S    
Cu11  Cu12  2.684943 S    
O4    Cu4   1.960623 S    
C130  C138  1.402832 A    
N1    O50   1.301204 A    
H24   C95   1.083118 S    
Cu7   O23   1.960563 S    
Cu8   O24   1.960561 S    
C7    O23   1.291782 A    
C2    C129  1.465564 S    
N8    O64   1.300922 A    
C8    O24   1.291836 A    
O6    C9    1.315749 A    
C48   C65   1.419617 A    
Cu1   O25   1.971746 S    
C18   C36   1.400151 A    
C91   C99   1.395973 A    
C92   H32   1.083266 S    
C122  H38   1.083350 S    
C128  C136  1.404299 A    
C137  H45   1.083922 S    
O33   C151  1.306022 A    
C70   H10   1.078676 S    
Cu9   O48   1.965469 S    
C150  O42   1.287082 A    
Cu10  O47   1.965471 S    
