data_mof_unit_49376.cif
_audit_creation_date              2012-12-11T14:56:07-0500
_audit_creation_method            fapswitch 2.2
_symmetry_space_group_name_H-M    P1
_symmetry_Int_Tables_number       1
_space_group_crystal_system       triclinic
_cell_length_a                    28.034347
_cell_length_b                    17.192134
_cell_length_c                    18.031709
_cell_angle_alpha                 90.110075
_cell_angle_beta                  137.934497
_cell_angle_gamma                 89.942098
_cell_volume                      5822.61295854

loop_
_atom_site_label
_atom_site_type_symbol
_atom_type_description
_atom_site_fract_x
_atom_site_fract_y
_atom_site_fract_z
_atom_type_partial_charge
C1    C     C_R   0.666029 0.923132 0.816784 -0.131275
C2    C     C_3   0.273274 0.705174 0.012367 -0.215522
C3    C     C_3   0.663697 0.745853 0.951872 0.079967
C4    C     C_3   0.208365 0.809147 0.916889 0.079007
C5    C     C_3   0.836913 0.251373 0.042151 0.080569
C6    C     C_3   0.792402 0.809029 0.084426 0.079101
C7    C     C_3   0.163420 0.251833 0.958012 0.080658
C8    C     C_3   0.255432 0.780061 0.034766 -0.201071
C9    C     C_3   0.780103 0.280239 0.920922 -0.212688
C10   C     C_3   0.745746 0.779557 0.966712 -0.201272
C11   C     C_3   0.220000 0.280986 0.079226 -0.212939
C12   C     C_3   0.763613 0.270678 0.049702 -0.196620
C13   C     C_3   0.237560 0.350432 0.046972 -0.229157
C14   C     C_3   0.289074 0.773618 0.928737 -0.215504
C15   C     C_3   0.237320 0.270137 0.951537 -0.196936
C16   C     C_3   0.711021 0.774212 0.071255 -0.215571
C17   C     C_3   0.319285 0.820046 0.070996 0.125080
C18   C     C_3   0.724161 0.231933 0.898559 0.126242
C19   C     C_3   0.681733 0.819892 0.929650 0.125035
C20   C     C_3   0.276001 0.232139 0.102232 0.126210
C21   C     C_3   0.819189 0.319877 0.072531 0.124287
C22   C     C_3   0.225370 0.734357 0.893641 0.127568
C23   C     C_3   0.181720 0.319843 0.928113 0.124272
C24   C     C_3   0.727397 0.704997 0.988629 -0.215006
C25   C     C_3   0.774890 0.734552 0.107197 0.127321
C26   C     C_R   0.636894 0.335206 0.872370 0.120875
C27   C     C_R   0.597318 0.379738 0.776120 -0.191307
C28   C     C_R   0.533514 0.414713 0.724335 -0.123186
C29   C     C_R   0.509915 0.407764 0.770261 -0.090933
C30   C     C_R   0.550037 0.365656 0.867826 -0.125491
C31   C     C_R   0.612719 0.328627 0.917979 -0.154664
C32   C     C_R   0.411375 0.715967 0.123494 0.099711
C33   C     C_R   0.433866 0.646019 0.181989 -0.158245
C34   C     C_R   0.505061 0.622875 0.258386 -0.124401
C35   C     C_3   0.272339 0.849698 0.953552 -0.228048
C36   C     C_R   0.553800 0.668489 0.275526 -0.101168
C37   C     C_R   0.531611 0.737753 0.216877 -0.093462
C38   C     C_R   0.460731 0.761597 0.141362 -0.157314
C39   C     C_R   0.363943 0.334885 0.129247 0.120632
C40   C     C_R   0.403382 0.379680 0.225460 -0.191511
C41   C     C_R   0.467175 0.414787 0.277382 -0.123234
C42   C     C_R   0.490891 0.407718 0.231620 -0.090516
C43   C     C_R   0.450883 0.365394 0.134061 -0.125430
C44   C     C_R   0.388238 0.328206 0.083805 -0.155073
C45   C     C_R   0.589039 0.716306 0.876359 0.099454
C46   C     C_3   0.781119 0.201765 0.018574 -0.221804
C47   C     C_R   0.566579 0.646037 0.818196 -0.157721
C48   C     C_R   0.495356 0.622903 0.741725 -0.124481
C49   C     C_R   0.446557 0.668868 0.724159 -0.101603
C50   C     C_R   0.468706 0.738478 0.782430 -0.093455
C51   C     C_R   0.539616 0.762295 0.858041 -0.158055
C52   C     C_R   0.138048 0.850366 0.844297 0.116236
C53   C     C_R   0.110715 0.894456 0.753660 -0.188962
C54   C     C_R   0.045555 0.932963 0.685663 -0.116550
C55   C     C_R   0.007586 0.928523 0.708282 -0.093869
C56   C     C_R   0.034955 0.886013 0.799335 -0.125793
C57   C     C_3   0.728243 0.849935 0.046897 -0.227692
C58   C     C_R   0.099755 0.846675 0.866908 -0.166595
C59   C     C_R   0.911981 0.229317 0.108793 0.102303
C60   C     C_R   0.939631 0.155963 0.159222 -0.164270
C61   C     C_R   0.010917 0.138393 0.226521 -0.118325
C62   C     C_R   0.054946 0.193673 0.243887 -0.089496
C63   C     C_R   0.027634 0.266512 0.193292 -0.097627
C64   C     C_R   0.956392 0.284305 0.125827 -0.153957
C65   C     C_R   0.862774 0.850319 0.157607 0.115973
C66   C     C_R   0.889800 0.894454 0.248203 -0.188849
C67   C     C_R   0.954951 0.933131 0.316665 -0.116096
C68   C     C_3   0.219257 0.201700 0.982200 -0.221401
C69   C     C_R   0.993227 0.928814 0.294572 -0.094210
C70   C     C_R   0.966186 0.886228 0.203604 -0.125990
C71   C     C_R   0.901384 0.846735 0.135543 -0.166971
C72   C     C_R   0.088145 0.230250 0.890782 0.102247
C73   C     C_R   0.060098 0.157048 0.839589 -0.164540
C74   C     C_R   0.988604 0.140004 0.771569 -0.118507
C75   C     C_R   0.944773 0.195640 0.754288 -0.089392
C76   C     C_R   0.972482 0.268320 0.805665 -0.097872
C77   C     C_R   0.043922 0.285601 0.873811 -0.154242
C78   C     C_R   0.713969 0.754331 0.615127 0.130535
C79   C     C_R   0.386971 0.145896 0.642309 0.126372
C80   C     C_R   0.286149 0.754296 0.385212 0.130611
C81   C     C_R   0.313357 0.102248 0.196304 -0.145002
C82   C     C_R   0.613240 0.145510 0.358035 0.126378
C83   C     C_R   0.213024 0.253943 0.613018 0.128357
C84   C     C_R   0.887406 0.646529 0.642836 0.130854
C85   C     C_R   0.787218 0.253865 0.387626 0.128555
C86   C     C_R   0.112791 0.646289 0.357519 0.130926
C87   C     C_R   0.392858 0.247825 0.741566 -0.232280
C88   C     C_R   0.735640 0.624402 0.592939 -0.247287
C89   C     C_R   0.607352 0.247287 0.258996 -0.232143
C90   C     C_R   0.264653 0.624442 0.407506 -0.247390
C91   C     C_R   0.893503 0.748877 0.741981 -0.234182
C92   C     C_R   0.335083 0.923693 0.183638 -0.131601
C93   C     C_R   0.234109 0.124175 0.589411 -0.241930
C94   C     C_R   0.106674 0.748553 0.258631 -0.234258
C95   C     C_R   0.766396 0.124194 0.411528 -0.242258
C96   C     C_R   0.422215 0.210140 0.714495 -0.174841
C97   C     C_R   0.691548 0.676931 0.578074 -0.182030
C98   C     C_R   0.577923 0.209556 0.285807 -0.174898
C99   C     C_R   0.308629 0.676965 0.422190 -0.182283
C100  C     C_R   0.922728 0.710967 0.714810 -0.177381
C101  C     C_R   0.189960 0.176936 0.574021 -0.178054
C102  C     C_R   0.077415 0.710588 0.285598 -0.177411
C103  C     C_R   0.686505 0.102027 0.804259 -0.144880
C104  C     C_R   0.810427 0.176983 0.426786 -0.178496
C105  C     C_R   0.332682 0.109236 0.619573 -0.284153
C106  C     C_R   0.785312 0.773981 0.684932 -0.292250
C107  C     C_R   0.667746 0.109049 0.381109 -0.284238
C108  C     C_R   0.214830 0.773845 0.315662 -0.292278
C109  C     C_R   0.833333 0.609923 0.620719 -0.287023
C110  C     C_R   0.284602 0.273019 0.684065 -0.294398
C111  C     C_R   0.167022 0.609855 0.379820 -0.287087
C112  C     C_R   0.715629 0.272755 0.316674 -0.294444
C113  C     C_R   0.300189 0.149183 0.639839 0.194135
C114  C     C_R   0.165367 0.424018 0.816494 -0.128681
C115  C     C_R   0.828469 0.723004 0.695140 0.196235
C116  C     C_R   0.700252 0.149024 0.361001 0.194273
C117  C     C_R   0.171757 0.722837 0.305506 0.196302
C118  C     C_R   0.801182 0.649874 0.641640 0.196240
C119  C     C_R   0.327679 0.222032 0.694148 0.193894
C120  C     C_R   0.199126 0.649818 0.358948 0.196354
C121  C     C_R   0.672639 0.221713 0.306621 0.193891
C122  C     C_R   0.360079 0.070633 0.491754 -0.127910
C123  C     C_R   0.674080 0.895005 0.593857 -0.153109
C124  C     C_R   0.639915 0.070453 0.508233 -0.128710
C125  C     C_R   0.812763 0.603572 0.198959 -0.147527
C126  C     C_R   0.325936 0.894963 0.406174 -0.154252
C127  C     C_R   0.860251 0.570737 0.492088 -0.127903
C128  C     C_R   0.173926 0.394878 0.593342 -0.153155
C129  C     C_R   0.139741 0.570589 0.507887 -0.128832
C130  C     C_R   0.826110 0.394816 0.406757 -0.154392
C131  C     C_R   0.409392 0.802926 0.497517 -0.130393
C132  C     C_R   0.557524 0.164917 0.420613 -0.139590
C133  C     C_R   0.590661 0.802876 0.502562 -0.128848
C134  C     C_R   0.442475 0.165141 0.579415 -0.138056
C135  C     C_R   0.909775 0.302963 0.498277 -0.131459
C136  C     C_R   0.835672 0.424484 0.183929 -0.128766
C137  C     C_R   0.057293 0.664993 0.420439 -0.137126
C138  C     C_R   0.090326 0.302906 0.501910 -0.130291
C139  C     C_R   0.942716 0.665171 0.579630 -0.135617
C140  C     C_R   0.602855 0.193431 0.714341 -0.155215
C141  C     C_R   0.418855 0.831054 0.275145 -0.133548
C142  C     C_R   0.397119 0.193507 0.286196 -0.154986
C143  C     C_R   0.581933 0.830998 0.725488 -0.134540
C144  C     C_R   0.103282 0.694331 0.712064 -0.156947
C145  C     C_R   0.919417 0.331916 0.275114 -0.130457
C146  C     C_R   0.896722 0.694421 0.288573 -0.156665
C147  C     C_R   0.187155 0.603374 0.801582 -0.147480
C148  C     C_R   0.081351 0.331912 0.725540 -0.131325
C149  C     C_R   0.638758 0.863299 0.828051 0.042796
C150  C     C_R   0.327292 0.177574 0.191311 0.054893
C151  C     C_R   0.362606 0.863766 0.172650 0.042947
C152  C     C_R   0.672543 0.177259 0.809645 0.054868
C153  C     C_R   0.137715 0.364788 0.827830 0.038240
C154  C     C_R   0.826161 0.679831 0.196142 0.053651
C155  C     C_R   0.863538 0.365102 0.172870 0.038170
C156  C     C_R   0.173767 0.679541 0.804834 0.053459
C157  C     C_R   0.396727 0.127094 0.574775 0.060149
C158  C     C_3   0.763099 0.350184 0.953641 -0.229617
C159  C     C_R   0.661374 0.815752 0.568817 0.067624
C160  C     C_R   0.603314 0.126787 0.425304 0.060268
C161  C     C_R   0.338685 0.815762 0.431311 0.067286
C162  C     C_R   0.896997 0.627315 0.575132 0.058274
C163  C     C_R   0.160909 0.315657 0.567669 0.068749
C164  C     C_R   0.103052 0.627082 0.424972 0.058368
C165  C     C_R   0.839213 0.315658 0.432630 0.068344
C166  C     C_3   0.707242 0.300662 0.930354 0.079153
C167  C     C_3   0.336811 0.745656 0.048308 0.079864
C168  C     C_3   0.293482 0.300411 0.070894 0.079283
H1    H     H_    0.714128 0.955767 0.882774 0.103089
H2    H     H_    0.213066 0.067639 0.549823 0.123458
H3    H     H_    0.110209 0.180079 0.296607 0.108134
H4    H     H_    0.061770 0.309363 0.206865 0.109428
H5    H     H_    0.936083 0.341332 0.088247 0.113542
H6    H     H_    0.860852 0.898043 0.266622 0.113522
H7    H     H_    0.975813 0.966334 0.386957 0.101999
H8    H     H_    0.043853 0.958410 0.347994 0.091609
H9    H     H_    0.995678 0.883456 0.186178 0.104592
H10   H     H_    0.881880 0.813252 0.066418 0.108123
H11   H     H_    0.092879 0.113507 0.850735 0.114724
H12   H     H_    0.966985 0.083832 0.731661 0.105206
H13   H     H_    0.083343 0.802783 0.213212 0.120348
H14   H     H_    0.889353 0.182451 0.701005 0.108592
H15   H     H_    0.938498 0.311453 0.792145 0.109503
H16   H     H_    0.064533 0.342527 0.911945 0.113654
H17   H     H_    0.787544 0.067781 0.451192 0.123488
H18   H     H_    0.415906 0.302139 0.786961 0.121553
H19   H     H_    0.714881 0.567553 0.554340 0.123752
H20   H     H_    0.584219 0.301459 0.213538 0.121529
H21   H     H_    0.285471 0.567668 0.446038 0.123792
H22   H     H_    0.320467 0.030749 0.466481 0.098215
H23   H     H_    0.725694 0.922476 0.657171 0.089238
H24   H     H_    0.679509 0.030538 0.533450 0.098421
H25   H     H_    0.261479 0.075583 0.142182 0.095773
H26   H     H_    0.274301 0.922310 0.342873 0.089457
H27   H     H_    0.820685 0.530890 0.467055 0.098402
H28   H     H_    0.225629 0.422190 0.656503 0.089725
H29   H     H_    0.179281 0.530713 0.532828 0.098608
H30   H     H_    0.774372 0.421976 0.343613 0.089980
H31   H     H_    0.435039 0.747502 0.518326 0.086424
H32   H     H_    0.521568 0.211647 0.366114 0.107472
H33   H     H_    0.565053 0.747434 0.481820 0.086415
H34   H     H_    0.478457 0.211947 0.633967 0.107823
H35   H     H_    0.935511 0.247627 0.518997 0.083802
H36   H     H_    0.287240 0.956497 0.117450 0.103623
H37   H     H_    0.021033 0.711519 0.365761 0.107798
H38   H     H_    0.064643 0.247542 0.481264 0.083900
H39   H     H_    0.979003 0.711760 0.634399 0.108193
H40   H     H_    0.578157 0.249813 0.683549 0.105089
H41   H     H_    0.448874 0.779704 0.295668 0.119166
H42   H     H_    0.422317 0.249680 0.316811 0.105050
H43   H     H_    0.551382 0.780220 0.704910 0.119452
H44   H     H_    0.077609 0.750225 0.680414 0.115019
H45   H     H_    0.948930 0.280229 0.294511 0.115163
H46   H     H_    0.922838 0.750120 0.320075 0.114972
H47   H     H_    0.738402 0.075480 0.858319 0.095575
H48   H     H_    0.051326 0.280778 0.706096 0.115523
H49   H     H_    0.243223 0.782443 0.080922 0.122854
H50   H     H_    0.785618 0.282684 0.866049 0.125144
H51   H     H_    0.758387 0.781500 0.921147 0.122759
H52   H     H_    0.214111 0.283978 0.133617 0.125173
H53   H     H_    0.759793 0.266312 0.106614 0.122708
H54   H     H_    0.301454 0.769607 0.882948 0.124989
H55   H     H_    0.241432 0.265236 0.895004 0.122676
H56   H     H_    0.698171 0.770680 0.116409 0.125069
H57   H     H_    0.757479 0.411838 0.929909 0.122792
H58   H     H_    0.213420 0.456833 0.882303 0.104006
H59   H     H_    0.272190 0.645603 0.034784 0.117850
H60   H     H_    0.243296 0.412220 0.070613 0.122897
H61   H     H_    0.728469 0.645251 0.966383 0.117766
H62   H     H_    0.273831 0.909716 0.932715 0.124580
H63   H     H_    0.786566 0.140496 0.043346 0.118457
H64   H     H_    0.726731 0.910125 0.067508 0.124708
H65   H     H_    0.213656 0.140287 0.957486 0.118409
H66   H     H_    0.804720 0.831995 0.718898 0.116147
H67   H     H_    0.308118 0.056460 0.570811 0.117816
H68   H     H_    0.195376 0.831799 0.281780 0.116147
H69   H     H_    0.761027 0.576604 0.145154 0.099171
H70   H     H_    0.692407 0.056426 0.429943 0.117844
H71   H     H_    0.304340 0.330732 0.719182 0.116463
H72   H     H_    0.808766 0.557028 0.572222 0.117892
H73   H     H_    0.695795 0.330367 0.281495 0.116462
H74   H     H_    0.191662 0.557082 0.428323 0.117925
H75   H     H_    0.638103 0.657969 0.528911 0.116561
H76   H     H_    0.467989 0.236073 0.741075 0.138046
H77   H     H_    0.362042 0.658053 0.471135 0.116663
H78   H     H_    0.531994 0.235304 0.258959 0.138002
H79   H     H_    0.136123 0.158462 0.523196 0.115418
H80   H     H_    0.787858 0.457451 0.117932 0.104290
H81   H     H_    0.968541 0.736888 0.741400 0.127738
H82   H     H_    0.864280 0.158630 0.477592 0.115480
H83   H     H_    0.031495 0.736367 0.258850 0.127573
H84   H     H_    0.615750 0.387043 0.740919 0.108402
H85   H     H_    0.502746 0.447815 0.649165 0.099859
H86   H     H_    0.460743 0.435239 0.730618 0.096822
H87   H     H_    0.532341 0.361129 0.904321 0.105486
H88   H     H_    0.642202 0.295560 0.992619 0.107829
H89   H     H_    0.397122 0.610414 0.170895 0.110480
H90   H     H_    0.522795 0.570088 0.305447 0.104917
H91   H     H_    0.238896 0.576500 0.855255 0.098977
H92   H     H_    0.608825 0.650389 0.334690 0.112027
H93   H     H_    0.569478 0.773345 0.230699 0.109374
H94   H     H_    0.444485 0.816181 0.097970 0.113799
H95   H     H_    0.384837 0.387105 0.260501 0.108602
H96   H     H_    0.497829 0.448115 0.352498 0.099904
H97   H     H_    0.540047 0.435297 0.271353 0.096633
H98   H     H_    0.468621 0.360845 0.097619 0.105386
H99   H     H_    0.358851 0.294994 0.009160 0.107921
H100  H     H_    0.603383 0.610135 0.829668 0.110493
H101  H     H_    0.477646 0.569830 0.694963 0.104917
H102  H     H_    0.916761 0.803212 0.787420 0.120339
H103  H     H_    0.391519 0.650760 0.664969 0.112230
H104  H     H_    0.430792 0.774339 0.768271 0.109498
H105  H     H_    0.555843 0.817118 0.901184 0.114056
H106  H     H_    0.139411 0.898119 0.734814 0.113357
H107  H     H_    0.024439 0.966113 0.615309 0.102060
H108  H     H_    0.956932 0.957941 0.655185 0.091502
H109  H     H_    0.005707 0.883150 0.817179 0.104627
H110  H     H_    0.119498 0.813209 0.936071 0.108175
H111  H     H_    0.906692 0.112674 0.147960 0.114587
H112  H     H_    0.032214 0.082075 0.265765 0.105506
N1    N     N_R   0.625380 0.928280 0.709340 -0.039374
N2    N     N_R   0.613900 0.929750 0.547530 -0.037099
N3    N     N_R   0.613900 0.070250 0.547530 -0.040192
N4    N     N_R   0.386100 0.929750 0.452470 -0.037308
N5    N     N_R   0.886100 0.570250 0.452470 -0.039602
N6    N     N_R   0.113900 0.429750 0.547530 -0.037176
N7    N     N_R   0.113900 0.570250 0.547530 -0.039950
N8    N     N_R   0.886100 0.429750 0.452470 -0.037378
N9    N     N_R   0.437800 0.869550 0.507970 -0.039596
N10   N     N_R   0.562200 0.130450 0.492030 -0.041576
N11   N     N_R   0.562200 0.869550 0.492030 -0.039537
N12   N     N_R   0.374620 0.071720 0.290660 -0.035007
N13   N     N_R   0.437800 0.130450 0.507970 -0.041438
N14   N     N_R   0.937800 0.369550 0.507970 -0.039192
N15   N     N_R   0.062200 0.630450 0.492030 -0.041231
N16   N     N_R   0.062200 0.369550 0.492030 -0.039131
N17   N     N_R   0.937800 0.630450 0.507970 -0.041105
N18   N     N_R   0.573690 0.128980 0.653840 -0.037392
N19   N     N_R   0.426310 0.871020 0.346160 -0.043200
N20   N     N_R   0.426310 0.128980 0.346160 -0.037294
N21   N     N_R   0.573690 0.871020 0.653840 -0.043036
N22   N     N_R   0.073690 0.628980 0.653840 -0.038038
N23   N     N_R   0.374620 0.928280 0.290660 -0.039862
N24   N     N_R   0.926310 0.371020 0.346160 -0.043640
N25   N     N_R   0.926310 0.628980 0.346160 -0.037990
N26   N     N_R   0.073690 0.371020 0.653840 -0.043487
N27   N     N_R   0.625380 0.071720 0.709340 -0.035113
N28   N     N_R   0.125380 0.428280 0.709340 -0.040008
N29   N     N_R   0.874620 0.571720 0.290660 -0.035293
N30   N     N_R   0.874620 0.428280 0.290660 -0.040473
N31   N     N_R   0.125380 0.571720 0.709340 -0.035338
N32   N     N_R   0.386100 0.070250 0.452470 -0.039844
Ni1   Ni    Ni4+2 0.616560 0.000000 0.627280 0.213158
Ni2   Ni    Ni4+2 0.383440 1.000000 0.372720 0.213120
Ni3   Ni    Ni4+2 0.116560 0.500000 0.627280 0.213322
Ni4   Ni    Ni4+2 0.883440 0.500000 0.372720 0.213316
Ni5   Ni    Ni4+2 0.497990 0.870580 0.500000 0.206465
Ni6   Ni    Ni4+2 0.502010 0.129420 0.500000 0.211174
Ni7   Ni    Ni4+2 0.997990 0.370580 0.500000 0.205314
Ni8   Ni    Ni4+2 0.002010 0.629420 0.500000 0.214572

loop_
_geom_bond_atom_site_label_1
_geom_bond_atom_site_label_2
_ccdc_geom_bond_type
C9    H50   S    
C75   C76   A    
C46   H63   S    
C144  H44   S    
C18   C166  S    
C125  H69   S    
N30   Ni4   S    
N24   N30   A    
N19   Ni5   S    
C31   H88   S    
C135  N14   A    
C38   H94   S    
C94   C117  A    
C6    C25   S    
N10   Ni6   S    
C73   C74   A    
C96   H76   S    
C7    C68   S    
C2    C22   S    
C3    C19   S    
N8    N14   A    
C91   C100  A    
C140  C152  A    
C88   C97   A    
C145  N24   A    
C59   C60   A    
C105  H67   S    
C17   C151  S    
C18   C152  S    
C109  C118  A    
C87   H18   S    
C45   C47   A    
C133  H33   S    
C11   C20   S    
C104  H82   S    
C116  C121  A    
C84   C100  A    
C137  N15   A    
C43   H98   S    
C130  N8    A    
C24   H61   S    
C93   C101  A    
C135  H35   S    
C129  C164  A    
N22   Ni8   S    
C43   C44   A    
C79   C157  S    
C37   C38   A    
C127  H27   S    
C82   C160  S    
C146  C154  A    
C115  C118  A    
N6    N16   A    
C24   C25   S    
C146  H46   S    
C52   C58   A    
C103  C152  A    
C49   H103  S    
C23   C153  S    
C61   H112  S    
C16   H56   S    
C148  C153  A    
C125  N29   A    
C141  H41   S    
C39   C40   A    
C16   C25   S    
C57   H64   S    
C25   C154  S    
C20   C68   S    
C139  C162  A    
C72   C73   A    
C13   C168  S    
C140  N18   A    
C5    C46   S    
C8    C17   S    
C106  C115  A    
C78   C106  A    
C85   C165  S    
C79   C96   A    
N23   Ni2   S    
C1    N1    A    
C11   C13   S    
C130  C165  A    
C63   H4    S    
C123  C159  A    
C9    C158  S    
C124  C160  A    
N21   Ni5   S    
N7    N15   A    
C69   C70   A    
C81   N12   A    
C68   H65   S    
C81   H25   S    
C143  C149  A    
C5    C21   S    
C94   C102  A    
C33   H89   S    
C66   H6    S    
C129  H29   S    
N31   Ni3   S    
C127  N5    A    
C85   C112  A    
C53   C54   A    
C87   C119  A    
C136  H80   S    
C55   H108  S    
C133  N11   A    
C105  C113  A    
C36   C37   A    
N12   Ni2   S    
C132  H32   S    
C13   C23   S    
N7    Ni3   S    
C8    H49   S    
N13   N32   A    
C146  N25   A    
N32   Ni2   S    
C60   H111  S    
N22   N31   A    
C94   H13   S    
N18   N27   A    
C66   C67   A    
C3    C24   S    
C92   C151  A    
C148  H48   S    
C10   H51   S    
C44   H99   S    
C6    C65   S    
N3    N10   A    
C107  H70   S    
C131  N9    A    
C102  H83   S    
C129  N7    A    
C28   H85   S    
C12   C46   S    
C100  H81   S    
C7    C72   S    
C136  C155  A    
N24   Ni7   S    
C10   C24   S    
C90   C120  A    
C144  C156  A    
C5    C9    S    
C29   C30   A    
N28   Ni3   S    
C4    C22   S    
N2    N11   A    
C95   C116  A    
C78   C97   A    
C21   C155  S    
C83   C110  A    
C52   C53   A    
C70   C71   A    
C139  H39   S    
N9    Ni5   S    
C53   H106  S    
C127  C162  A    
C80   C99   A    
C88   C118  A    
C126  C161  A    
C90   C99   A    
C125  C154  A    
C54   C55   A    
C83   C101  A    
C56   H109  S    
C108  C117  A    
C41   H96   S    
C110  C119  A    
C70   H9    S    
C39   C44   A    
N20   Ni6   S    
C80   C108  A    
C84   C109  A    
C89   C98   A    
C35   H62   S    
C14   C22   S    
C86   C111  A    
C14   C167  S    
C112  C121  A    
C7    C23   S    
C19   C149  S    
C56   C58   A    
C34   C36   A    
C36   H92   S    
C147  H91   S    
C61   C62   A    
C107  C116  A    
C63   C64   A    
C9    C18   S    
C141  N19   A    
C49   C50   A    
C147  N31   A    
N8    Ni4   S    
C75   H14   S    
C3    C16   S    
C86   C102  A    
C55   C56   A    
C108  H68   S    
C21   C158  S    
C82   C98   A    
C41   C42   A    
C91   H102  S    
C138  H38   S    
C19   C57   S    
C62   H3    S    
C26   C27   A    
C71   H10   S    
C28   C29   A    
C98   H78   S    
C30   C31   A    
C40   H95   S    
C140  H40   S    
C34   H90   S    
C39   C168  S    
C113  C119  A    
C88   H19   S    
C26   C166  S    
C67   H7    S    
C126  N4    A    
N26   N28   A    
C1    C149  A    
C138  C163  A    
N27   Ni1   S    
C99   H77   S    
C76   H15   S    
C106  H66   S    
C92   H36   S    
C4    C35   S    
N25   Ni8   S    
C6    C57   S    
C18   C46   S    
C2    H59   S    
C122  H22   S    
C93   H2    S    
C51   H105  S    
N3    Ni1   S    
C117  C120  A    
C137  H37   S    
C3    C45   S    
C60   C61   A    
C133  C159  A    
C27   H84   S    
C62   C63   A    
C114  H58   S    
C126  H26   S    
N5    Ni4   S    
C10   C19   S    
N6    Ni3   S    
C122  N32   A    
C50   C51   A    
C135  C165  A    
C93   C113  A    
C29   H86   S    
C42   H97   S    
C147  C156  A    
C158  H57   S    
C85   C104  A    
C145  H45   S    
C112  H73   S    
N4    N9    A    
C92   N23   A    
C132  N10   A    
N12   N20   A    
C86   C164  S    
C42   C43   A    
C123  H23   S    
C101  H79   S    
C103  H47   S    
C124  H24   S    
C84   C162  S    
C95   H17   S    
C109  H72   S    
C144  N22   A    
C83   C163  S    
N5    N17   A    
C2    C8    S    
C123  N2    A    
C6    C10   S    
C148  N26   A    
N4    Ni2   S    
C32   C33   A    
C142  C150  A    
C12   H53   S    
C89   C121  A    
C122  C157  A    
C91   C115  A    
C16   C57   S    
C15   H55   S    
N2    Ni1   S    
C37   H93   S    
C78   C159  S    
C142  N20   A    
C32   C167  S    
C131  C161  A    
C17   C35   S    
C64   H5    S    
N19   N23   A    
C47   H100  S    
C4    C8    S    
C13   H60   S    
N13   Ni6   S    
C22   C156  S    
C7    C11   S    
N15   Ni8   S    
C59   C64   A    
C132  C160  A    
N16   Ni7   S    
C4    C52   S    
C139  N17   A    
C12   C166  S    
N25   N29   A    
C45   C51   A    
C81   C150  A    
C77   H16   S    
C79   C105  A    
C58   H110  S    
C20   C150  S    
C54   H107  S    
C69   H8    S    
C32   C38   A    
N18   Ni6   S    
C114  C153  A    
C15   C23   S    
C26   C31   A    
N26   Ni7   S    
N1    Ni1   S    
N29   Ni4   S    
C134  H34   S    
C20   C168  S    
C74   C75   A    
C5    C59   S    
C76   C77   A    
C138  N16   A    
C17   C167  S    
C14   C35   S    
C110  H71   S    
C143  H43   S    
C65   C71   A    
C12   C21   S    
C128  C163  A    
C111  C120  A    
C67   C69   A    
C145  C155  A    
C131  H31   S    
C72   C77   A    
C97   H75   S    
C47   C48   A    
C87   C96   A    
C33   C34   A    
N11   Ni5   S    
C82   C107  A    
C40   C41   A    
C50   H104  S    
C48   H101  S    
C111  H74   S    
C103  N27   A    
C15   C168  S    
C142  H42   S    
N1    N21   A    
C95   C104  A    
C141  C151  A    
N14   Ni7   S    
C124  N3    A    
C136  N30   A    
C48   C49   A    
C14   H54   S    
C128  H28   S    
C137  C164  A    
C134  N13   A    
C128  N6    A    
C15   C68   S    
C2    C167  S    
C1    H1    S    
C89   H20   S    
C114  N28   A    
C80   C161  S    
C143  N21   A    
C73   H11   S    
C158  C166  S    
C134  C157  A    
C74   H12   S    
C65   C66   A    
C27   C28   A    
C30   H87   S    
N17   Ni8   S    
C130  H30   S    
C11   H52   S    
C90   H21   S    
