data_mof_unit_27540.cif
_audit_creation_date              2012-12-11T15:42:59-0500
_audit_creation_method            fapswitch 2.2
_symmetry_space_group_name_H-M    P1
_symmetry_Int_Tables_number       1
_space_group_crystal_system       triclinic
_cell_length_a                    19.06316
_cell_length_b                    11.020163
_cell_length_c                    18.733896
_cell_angle_alpha                 90.245877
_cell_angle_beta                  89.490994
_cell_angle_gamma                 89.807389
_cell_volume                      3935.38629631

loop_
_atom_site_label
_atom_site_type_symbol
_atom_type_description
_atom_site_fract_x
_atom_site_fract_y
_atom_site_fract_z
_atom_type_partial_charge
C1    C     C_R   0.730600 0.376562 0.146210 0.542686
C2    C     C_R   0.288805 0.328914 0.860932 0.558058
C3    C     C_R   0.230600 0.876559 0.146209 0.542676
C4    C     C_R   0.788814 0.828890 0.860930 0.558051
C5    C     C_R   0.529713 0.373177 0.921952 -0.099774
C6    C     C_R   0.506750 0.393867 0.068576 -0.084549
C7    C     C_R   0.029719 0.873171 0.921950 -0.099784
C8    C     C_R   0.006753 0.893867 0.068574 -0.084543
C9    C     C_R   0.032056 0.986635 0.954904 -0.127883
C10   C     C_R   0.016896 0.997080 0.027380 -0.143705
C11   C     C_R   0.532048 0.486640 0.954907 -0.127898
C12   C     C_R   0.516890 0.497082 0.027383 -0.143717
C13   C     C_R   0.779432 0.841520 0.937824 -0.004128
C14   C     C_R   0.254431 0.922049 0.077986 0.015935
C15   C     C_R   0.279422 0.341551 0.937823 -0.004100
C16   C     C_R   0.754434 0.422070 0.077992 0.015925
C17   C     C_R   0.714885 0.821277 0.971044 -0.006054
C18   C     C_R   0.300996 0.854277 0.035020 -0.010964
C19   C     C_R   0.214877 0.321300 0.971044 -0.006085
C20   C     C_R   0.801025 0.354335 0.035029 -0.010956
C21   C     C_R   0.704363 0.849364 0.042219 0.023824
C22   C     C_R   0.301911 0.869049 0.961613 0.021442
C23   C     C_R   0.204358 0.349372 0.042221 0.023817
C24   C     C_R   0.801945 0.369113 0.961625 0.021450
C25   C     C_R   0.825669 0.904078 0.052705 -0.158482
C26   C     C_R   0.214446 0.026475 0.973365 -0.142779
C27   C     C_R   0.325666 0.404069 0.052708 -0.158479
C28   C     C_R   0.714431 0.526466 0.973365 -0.142777
C29   C     C_R   0.836214 0.875377 0.980604 -0.155572
C30   C     C_R   0.216331 0.016280 0.046952 -0.140998
C31   C     C_R   0.336207 0.375388 0.980604 -0.155547
C32   C     C_R   0.716313 0.516278 0.046953 -0.140985
C33   C     C_3   0.642790 0.860652 0.950739 -0.244375
C34   C     C_3   0.310355 0.719678 0.028720 -0.224868
C35   C     C_3   0.142778 0.360662 0.950746 -0.244395
C36   C     C_3   0.810442 0.219731 0.028726 -0.224857
C37   C     C_3   0.630771 0.890812 0.029354 -0.121702
C38   C     C_3   0.311399 0.735945 0.948217 -0.145290
C39   C     C_3   0.130764 0.390811 0.029364 -0.121690
C40   C     C_3   0.811509 0.236021 0.948225 -0.145287
C41   C     C_R   0.757885 0.900483 0.082728 0.001388
C42   C     C_R   0.254810 0.948706 0.929675 0.024214
C43   C     C_R   0.257883 0.400480 0.082731 0.001397
C44   C     C_R   0.754817 0.448719 0.929680 0.024195
C45   C     C_R   0.530666 0.156370 0.147608 0.528838
C46   C     C_R   0.467330 0.154535 0.853881 0.533006
C47   C     C_R   0.030666 0.656370 0.147608 0.528833
C48   C     C_R   0.967330 0.654535 0.853881 0.533004
C49   C     C_R   0.444618 0.154382 0.562209 0.005456
C50   C     C_R   0.483704 0.156188 0.416687 0.033822
C51   C     C_R   0.944620 0.654383 0.562210 0.005460
C52   C     C_R   0.983704 0.656188 0.416687 0.033824
C53   C     C_R   0.460421 0.046857 0.526152 0.019002
C54   C     C_R   0.479350 0.047738 0.455311 0.020364
C55   C     C_R   0.960422 0.546858 0.526153 0.018996
C56   C     C_R   0.979351 0.547739 0.455311 0.020364
C57   C     C_R   0.450402 0.258466 0.447253 -0.100081
C58   C     C_R   0.433840 0.258877 0.520923 -0.122275
C59   C     C_R   0.950403 0.758466 0.447253 -0.100083
C60   C     C_R   0.933843 0.758878 0.520923 -0.122282
C61   C     C_3   0.512034 0.949391 0.543805 -0.265732
C62   C     C_3   0.533359 0.951462 0.466191 -0.265753
C63   C     C_3   0.012036 0.449393 0.543805 -0.265725
C64   C     C_3   0.033360 0.451464 0.466191 -0.265746
C65   C     C_R   0.754727 0.915870 0.575860 -0.003715
C66   C     C_R   0.252127 0.940914 0.417168 0.014598
C67   C     C_R   0.254725 0.415871 0.575860 -0.003729
C68   C     C_R   0.752127 0.440912 0.417168 0.014598
C69   C     C_R   0.808392 0.973726 0.538806 0.011386
C70   C     C_R   0.206538 0.018788 0.455644 0.002286
C71   C     C_R   0.308388 0.473737 0.538807 0.011423
C72   C     C_R   0.706538 0.518787 0.455644 0.002291
C73   C     C_R   0.808333 0.979516 0.465545 -0.003168
C74   C     C_R   0.208601 0.019977 0.528351 -0.002636
C75   C     C_R   0.308329 0.479529 0.465546 -0.003135
C76   C     C_R   0.708601 0.519977 0.528350 -0.002626
C77   C     C_R   0.701738 0.863905 0.462518 -0.169816
C78   C     C_R   0.314794 0.905751 0.527976 -0.165853
C79   C     C_R   0.201739 0.363903 0.462518 -0.169823
C80   C     C_R   0.814793 0.405749 0.527976 -0.165850
C81   C     C_R   0.701269 0.859741 0.537095 -0.161697
C82   C     C_R   0.312279 0.899536 0.452964 -0.173019
C83   C     C_R   0.201270 0.359737 0.537095 -0.161702
C84   C     C_R   0.812278 0.399533 0.452964 -0.173007
C85   C     C_3   0.831930 0.101716 0.547544 -0.068956
C86   C     C_3   0.129893 0.056888 0.460045 -0.048727
C87   C     C_3   0.331912 0.601734 0.547546 -0.069003
C88   C     C_3   0.629893 0.556888 0.460045 -0.048743
C89   C     C_R   0.742153 0.967846 0.148068 0.532220
C90   C     C_R   0.259578 0.974665 0.854303 0.539410
C91   C     C_R   0.242153 0.467843 0.148070 0.532214
C92   C     C_R   0.759580 0.474672 0.854306 0.539408
C93   C     C_3   0.832059 0.108799 0.466913 -0.258479
C94   C     C_3   0.133438 0.048159 0.540840 -0.224335
C95   C     C_3   0.332044 0.608819 0.466916 -0.258471
C96   C     C_3   0.633439 0.548163 0.540840 -0.224344
C97   C     C_R   0.753694 0.928503 0.426216 0.013869
C98   C     C_R   0.258389 0.956963 0.566786 0.018354
C99   C     C_R   0.253694 0.428507 0.426217 0.013859
C100  C     C_R   0.758389 0.456963 0.566786 0.018354
C101  C     C_R   0.730382 0.382659 0.350856 0.552658
C102  C     C_R   0.270158 0.379105 0.648039 0.543466
C103  C     C_R   0.230382 0.882660 0.350856 0.552656
C104  C     C_R   0.770159 0.879106 0.648039 0.543473
C105  C     C_R   0.528575 0.156321 0.351672 0.560261
C106  C     C_R   0.434405 0.151965 0.639719 0.558873
C107  C     C_R   0.028575 0.656321 0.351672 0.560262
C108  C     C_R   0.934405 0.651965 0.639719 0.558875
C109  C     C_R   0.741538 0.972805 0.354678 0.546717
C110  C     C_R   0.260597 0.977534 0.643110 0.549153
C111  C     C_R   0.241538 0.472805 0.354678 0.546714
C112  C     C_R   0.760597 0.477534 0.643110 0.549142
C113  C     C_R   0.490873 0.159436 0.928080 -0.008261
C114  C     C_R   0.498059 0.169627 0.077380 -0.004081
C115  C     C_R   0.990874 0.659435 0.928079 -0.008264
C116  C     C_R   0.998059 0.669627 0.077380 -0.004082
C117  C     C_R   0.510292 0.269317 0.961412 0.001135
C118  C     C_R   0.506169 0.277534 0.036775 0.030434
C119  C     C_R   0.010296 0.769314 0.961411 0.001118
C120  C     C_R   0.006172 0.777532 0.036774 0.030431
C121  C     C_R   0.476862 0.063672 0.043597 -0.163274
C122  C     C_R   0.473992 0.058028 0.970347 -0.150686
C123  C     C_R   0.976861 0.563672 0.043597 -0.163273
C124  C     C_R   0.973990 0.558028 0.970347 -0.150685
Cr1   Cr    Cr6+3 0.772010 0.169670 0.250090 1.007811
Cr2   Cr    Cr6+3 0.227990 0.169670 0.749910 0.998452
Cr3   Cr    Cr6+3 0.272010 0.669670 0.250090 1.007810
Cr4   Cr    Cr6+3 0.727990 0.669670 0.749910 0.998457
Cr5   Cr    Cr6+3 0.615000 0.323260 0.249260 1.033053
Cr6   Cr    Cr6+3 0.385000 0.323260 0.750740 1.032874
Cr7   Cr    Cr6+3 0.115000 0.823260 0.249260 1.033054
Cr8   Cr    Cr6+3 0.885000 0.823260 0.750740 1.032867
Cr9   Cr    Cr6+3 0.616710 0.010760 0.250840 1.005608
Cr10  Cr    Cr6+3 0.383290 0.010760 0.749160 1.029221
Cr11  Cr    Cr6+3 0.116710 0.510760 0.250840 1.005601
Cr12  Cr    Cr6+3 0.883290 0.510760 0.749160 1.029183
H1    H     H_    0.465233 0.982879 0.074062 0.136403
H2    H     H_    0.456313 0.973398 0.947141 0.149071
H3    H     H_    0.965231 0.482879 0.074062 0.136406
H4    H     H_    0.956309 0.473398 0.947141 0.149066
H5    H     H_    0.443354 0.340505 0.417343 0.141109
H6    H     H_    0.417573 0.341706 0.546567 0.183781
H7    H     H_    0.943355 0.840505 0.417343 0.141101
H8    H     H_    0.917580 0.841709 0.546568 0.183726
H9    H     H_    0.986378 0.363180 0.559706 0.160568
H10   H     H_    0.086570 0.489139 0.457832 0.168597
H11   H     H_    0.486375 0.863177 0.559706 0.160568
H12   H     H_    0.586569 0.989139 0.457834 0.168598
H13   H     H_    0.554379 0.980865 0.579847 0.160706
H14   H     H_    0.521186 0.866016 0.437118 0.151362
H15   H     H_    0.054381 0.480869 0.579846 0.160706
H16   H     H_    0.021186 0.366017 0.437118 0.151371
H17   H     H_    0.658034 0.828702 0.433288 0.122672
H18   H     H_    0.359070 0.866825 0.555328 0.162434
H19   H     H_    0.158036 0.328697 0.433286 0.122675
H20   H     H_    0.859069 0.366824 0.555327 0.162349
H21   H     H_    0.658476 0.816754 0.564729 0.126048
H22   H     H_    0.353340 0.851117 0.424356 0.130734
H23   H     H_    0.158479 0.316744 0.564728 0.126056
H24   H     H_    0.853339 0.351113 0.424357 0.130736
H25   H     H_    0.791061 0.159470 0.573651 0.118599
H26   H     H_    0.121381 0.150334 0.441605 0.098614
H27   H     H_    0.291035 0.659473 0.573654 0.118614
H28   H     H_    0.621382 0.650334 0.441602 0.098609
H29   H     H_    0.790134 0.169151 0.446812 0.153551
H30   H     H_    0.123731 0.134419 0.569208 0.132048
H31   H     H_    0.290114 0.669161 0.446813 0.153555
H32   H     H_    0.623733 0.634425 0.569206 0.132038
H33   H     H_    0.884437 0.120656 0.441292 0.180165
H34   H     H_    0.105267 0.969643 0.564688 0.187033
H35   H     H_    0.384424 0.620689 0.441300 0.180133
H36   H     H_    0.605266 0.469649 0.564689 0.187047
H37   H     H_    0.541032 0.368242 0.865349 0.138665
H38   H     H_    0.493502 0.407566 0.124243 0.129270
H39   H     H_    0.041039 0.868234 0.865348 0.138660
H40   H     H_    0.993503 0.907567 0.124240 0.129270
H41   H     H_    0.042789 0.066967 0.923666 0.109545
H42   H     H_    0.011407 0.085016 0.051960 0.098430
H43   H     H_    0.542779 0.566973 0.923669 0.109543
H44   H     H_    0.511402 0.585018 0.051964 0.098439
H45   H     H_    0.868734 0.941296 0.082677 0.135180
H46   H     H_    0.179637 0.093159 0.950698 0.144148
H47   H     H_    0.368734 0.441269 0.082684 0.135170
H48   H     H_    0.679609 0.593131 0.950695 0.144142
H49   H     H_    0.887133 0.889974 0.956827 0.158675
H50   H     H_    0.181784 0.072735 0.078924 0.137836
H51   H     H_    0.387127 0.389978 0.956827 0.158665
H52   H     H_    0.681750 0.572712 0.078922 0.137844
H53   H     H_    0.110850 0.283967 0.930278 0.135852
H54   H     H_    0.764246 0.168818 0.049162 0.162216
H55   H     H_    0.610858 0.783962 0.930271 0.135849
H56   H     H_    0.264159 0.668821 0.049179 0.162205
H57   H     H_    0.642984 0.942339 0.916095 0.134201
H58   H     H_    0.361663 0.689157 0.050087 0.125485
H59   H     H_    0.142962 0.442351 0.916105 0.134176
H60   H     H_    0.861759 0.189249 0.050115 0.125434
H61   H     H_    0.622553 0.989279 0.039793 0.162136
H62   H     H_    0.363094 0.714114 0.923239 0.151369
H63   H     H_    0.122542 0.489276 0.039807 0.162143
H64   H     H_    0.863228 0.214282 0.923268 0.151316
O1    O     O_R   0.787520 0.042810 0.170440 -0.534059
O2    O     O_R   0.212480 0.042810 0.829560 -0.535248
O3    O     O_R   0.287520 0.542810 0.170440 -0.534059
O4    O     O_R   0.712480 0.542810 0.829560 -0.535243
O5    O     O_R   0.556610 0.252880 0.323980 -0.475778
O6    O     O_R   0.443390 0.252880 0.676020 -0.489453
O7    O     O_R   0.056610 0.752880 0.323980 -0.475774
O8    O     O_R   0.943390 0.752880 0.676020 -0.489466
O9    O     O_R   0.545950 0.051210 0.330860 -0.526661
O10   O     O_R   0.454050 0.051210 0.669140 -0.512784
O11   O     O_R   0.045950 0.551210 0.330860 -0.526662
O12   O     O_R   0.954050 0.551210 0.669140 -0.512793
O13   O     O_R   0.681390 0.959480 0.325510 -0.505110
O14   O     O_R   0.318610 0.959480 0.674490 -0.496074
O15   O     O_R   0.181390 0.459480 0.325510 -0.505111
O16   O     O_R   0.818610 0.459480 0.674490 -0.496132
O17   O     O_3   0.667900 0.167900 0.250060 -0.245723
O18   O     O_3   0.332100 0.167900 0.749940 -0.300488
O19   O     O_3   0.167900 0.667900 0.250060 -0.245725
O20   O     O_3   0.832100 0.667900 0.749940 -0.300493
O21   O     O_R   0.765640 0.292100 0.175020 -0.506680
O22   O     O_R   0.234360 0.292100 0.824980 -0.502890
O23   O     O_R   0.265640 0.792100 0.175020 -0.506684
O24   O     O_R   0.734360 0.792100 0.824980 -0.502885
O25   O     O_R   0.670190 0.408840 0.168540 -0.521826
O26   O     O_R   0.329810 0.408840 0.831460 -0.516819
O27   O     O_R   0.170190 0.908840 0.168540 -0.521820
O28   O     O_R   0.829810 0.908840 0.831460 -0.516832
O29   O     O_R   0.556620 0.251410 0.175160 -0.515872
O30   O     O_R   0.443380 0.251410 0.824840 -0.521139
O31   O     O_R   0.056620 0.751410 0.175160 -0.515873
O32   O     O_R   0.943380 0.751410 0.824840 -0.521142
O33   O     O_R   0.545960 0.049620 0.170320 -0.534621
O34   O     O_R   0.454040 0.049620 0.829680 -0.519087
O35   O     O_R   0.045960 0.549620 0.170320 -0.534620
O36   O     O_R   0.954040 0.549620 0.829680 -0.519090
O37   O     O_R   0.681390 0.958010 0.176690 -0.500540
O38   O     O_R   0.318610 0.958010 0.823310 -0.493318
O39   O     O_R   0.181390 0.458010 0.176690 -0.500547
O40   O     O_R   0.818610 0.458010 0.823310 -0.493333
O41   O     O_R   0.787510 0.044390 0.330970 -0.520674
O42   O     O_R   0.212490 0.044390 0.669030 -0.519904
O43   O     O_R   0.287510 0.544390 0.330970 -0.520670
O44   O     O_R   0.712490 0.544390 0.669030 -0.519888
O45   O     O_R   0.765630 0.293570 0.323840 -0.514051
O46   O     O_R   0.234370 0.293570 0.676160 -0.508165
O47   O     O_R   0.265630 0.793570 0.323840 -0.514050
O48   O     O_R   0.734370 0.793570 0.676160 -0.508166
O49   O     O_R   0.670190 0.410420 0.329080 -0.484377
O50   O     O_R   0.329810 0.410420 0.670920 -0.495041
O51   O     O_R   0.170190 0.910420 0.329080 -0.484373
O52   O     O_R   0.829810 0.910420 0.670920 -0.495013
C125  C     C_2   0.903242 0.113463 0.581157 0.571625
O53   O     O_2   0.954829 0.064742 0.554156 -0.546679
O54   O     O_R   0.909864 0.181582 0.643766 -0.700818
H65   H     H_    0.959939 0.184076 0.661486 0.323060
C126  C     C_2   0.077783 0.974146 0.428625 0.645581
O55   O     O_2   0.078454 0.867156 0.444769 -0.514780
O56   O     O_R   0.031377 0.020457 0.377990 -0.711992
H66   H     H_    0.005430 0.956435 0.350164 0.324451
C127  C     C_2   0.403222 0.613509 0.581159 0.571473
O57   O     O_2   0.454808 0.564661 0.554177 -0.546609
O58   O     O_R   0.409842 0.681791 0.643751 -0.700859
H67   H     H_    0.459917 0.684295 0.661477 0.323035
C128  C     C_2   0.577783 0.474146 0.428625 0.645574
O59   O     O_2   0.578454 0.367157 0.444770 -0.514769
O60   O     O_R   0.531375 0.520456 0.377992 -0.711995
H68   H     H_    0.505431 0.456433 0.350164 0.324453
C129  C     C_3   0.577519 0.807952 0.065809 -0.397341
H69   H     H_    0.569419 0.835788 0.122157 0.181668
H70   H     H_    0.526741 0.811126 0.037422 0.112511
H71   H     H_    0.596911 0.713439 0.065445 0.123994
C130  C     C_3   0.249059 0.676915 0.910421 -0.395888
H72   H     H_    0.253829 0.577237 0.913469 0.162195
H73   H     H_    0.198293 0.704482 0.935451 0.136280
H74   H     H_    0.249024 0.703396 0.853321 0.158056
C131  C     C_3   0.077519 0.307939 0.065820 -0.397338
H75   H     H_    0.069424 0.335766 0.122170 0.181663
H76   H     H_    0.026738 0.311111 0.037440 0.112500
H77   H     H_    0.096915 0.213428 0.065450 0.124001
C132  C     C_3   0.749213 0.176901 0.910398 -0.395856
H78   H     H_    0.754015 0.077228 0.913464 0.162275
H79   H     H_    0.698418 0.204416 0.935389 0.136228
H80   H     H_    0.749204 0.203369 0.853299 0.158110

loop_
_geom_bond_atom_site_label_1
_geom_bond_atom_site_label_2
_ccdc_geom_bond_type
C108  O12   A    
C89   O1    A    
C55   C56   A    
C88   C96   S    
C67   C83   A    
C127  O57   D    
Cr10  O10   S    
C116  C123  A    
Cr5   O29   S    
Cr2   O46   S    
C85   H25   S    
C14   C18   A    
C48   O36   A    
Cr1   O45   S    
C51   C60   A    
C102  O46   A    
C73   C93   S    
C108  O8    A    
Cr7   O7    S    
C94   H30   S    
C31   H51   S    
C84   H24   S    
Cr3   O19   S    
O58   H67   S    
C74   C98   A    
C66   C70   A    
C53   C54   A    
Cr2   O2    S    
C132  H80   S    
C15   C19   A    
Cr1   O21   S    
Cr1   O1    S    
Cr5   O5    S    
C50   C54   A    
C45   O29   A    
C64   H16   S    
C59   H7    S    
C104  O52   A    
Cr2   O42   S    
C30   H50   S    
C13   C29   A    
C16   C20   A    
C110  O14   A    
C111  O15   A    
Cr8   O52   S    
C5    C11   A    
C109  O13   A    
Cr8   O28   S    
C6    C12   A    
C125  O53   D    
C82   H22   S    
C65   C69   A    
C88   C128  S    
C107  O11   A    
Cr12  O40   S    
Cr6   O30   S    
C11   H43   S    
Cr7   O31   S    
C22   C38   S    
C123  H3    S    
Cr2   O22   S    
C2    O22   A    
C130  H74   S    
Cr9   O9    S    
Cr11  O19   S    
Cr7   O19   S    
C126  O55   D    
Cr4   O4    S    
C121  H1    S    
C4    C13   S    
Cr6   O18   S    
C78   C82   A    
Cr9   O17   S    
C1    O21   A    
Cr5   O17   S    
C83   H23   S    
C86   C94   S    
C48   O32   A    
C77   H17   S    
Cr12  O12   S    
C114  C121  A    
C85   C93   S    
C45   C114  S    
Cr11  O15   S    
C113  C122  A    
C20   C24   A    
C52   C107  S    
C29   H49   S    
C51   C108  S    
C104  O48   A    
C7    H39   S    
Cr11  O11   S    
C78   C98   A    
C50   C105  S    
C3    O23   A    
C96   H32   S    
C69   C73   A    
C86   H26   S    
C37   H61   S    
C87   H27   S    
Cr4   O20   S    
C107  O7    A    
C44   C92   S    
Cr3   O23   S    
Cr2   O18   S    
C34   H58   S    
C62   H12   S    
C112  O16   A    
C109  O41   A    
C76   C96   S    
C99   C111  S    
C59   C60   A    
C35   H53   S    
C34   C38   S    
C129  H69   S    
C80   C100  A    
Cr12  O16   S    
C4    O24   A    
C46   O30   A    
Cr4   O24   S    
C38   H62   S    
C17   C33   S    
C98   C110  S    
C14   C30   A    
C42   C90   S    
Cr8   O32   S    
C9    C10   A    
C75   C99   A    
C72   C88   S    
C25   H45   S    
C80   H20   S    
C47   O35   A    
Cr6   O50   S    
C25   C29   A    
C47   C116  S    
Cr5   O49   S    
C40   C132  S    
Cr4   O44   S    
C81   H21   S    
C90   O38   A    
C75   C95   S    
C80   C84   A    
C68   C84   A    
C11   C12   A    
C89   O37   A    
C76   C100  A    
C123  C124  A    
Cr3   O43   S    
C68   C101  S    
C122  H2    S    
C3    O27   A    
C25   C41   A    
C125  O54   S    
C95   H31   S    
C32   H52   S    
C19   C23   A    
C78   H18   S    
C20   C36   S    
C52   C56   A    
C6    H38   S    
C51   C55   A    
C132  H78   S    
Cr10  O18   S    
C27   C31   A    
C15   C31   A    
C28   C44   A    
C43   C91   S    
C49   C58   A    
C124  H4    S    
C55   C63   S    
Cr8   O20   S    
C10   H42   S    
C73   C97   A    
C36   H60   S    
C86   C126  S    
C70   C74   A    
Cr6   O6    S    
C52   C59   A    
C7    C119  A    
C66   C82   A    
C97   C109  S    
C101  O45   A    
C110  O42   A    
C13   C17   A    
C65   C81   A    
C93   H29   S    
C28   C32   A    
C68   C72   A    
C93   H33   S    
C56   C64   S    
C130  H72   S    
Cr10  O34   S    
C79   C99   A    
C21   C37   S    
C72   C76   A    
Cr7   O27   S    
Cr9   O33   S    
Cr1   O41   S    
C2    C15   S    
C18   C34   S    
Cr5   O25   S    
C63   H15   S    
C121  C122  A    
C114  C118  A    
Cr4   O48   S    
C40   H64   S    
C48   C115  S    
C71   C87   S    
C26   H46   S    
C47   O31   A    
C39   C131  S    
C12   H44   S    
C71   C75   A    
C100  C112  S    
C115  C119  A    
Cr12  O20   S    
C131  H76   S    
C102  O50   A    
C24   C44   A    
C131  H75   S    
C21   C41   A    
C131  H77   S    
C132  H79   S    
C105  O9    A    
C53   C61   S    
O56   H66   S    
C70   C86   S    
C46   O34   A    
C115  C124  A    
C36   C40   S    
C9    H41   S    
C2    O26   A    
Cr8   O8    S    
C33   C37   S    
C128  O59   D    
C113  C117  A    
C1    O25   A    
C7    C9    A    
C8    C120  A    
C39   H63   S    
C87   C95   S    
C92   O40   A    
C111  O43   A    
C58   H6    S    
C62   H14   S    
C46   C113  S    
C64   H10   S    
C41   C89   S    
C18   C22   A    
C50   C57   A    
C5    H37   S    
C66   C103  S    
C69   C85   S    
C101  O49   A    
C91   O39   A    
Cr11  O35   S    
C45   O33   A    
Cr7   O51   S    
C106  O10   A    
C92   O4    A    
C106  O6    A    
C119  C120  A    
C8    H40   S    
C38   C130  S    
C105  O5    A    
C49   C106  S    
C36   H54   S    
C35   H59   S    
C16   C32   A    
C79   H19   S    
C54   C62   S    
C85   C125  S    
Cr10  O14   S    
C57   H5    S    
C33   H55   S    
O60   H68   S    
C103  O51   A    
C37   C129  S    
C129  H70   S    
C61   H11   S    
C127  O58   S    
Cr9   O13   S    
Cr11  O39   S    
C128  O60   S    
C88   H28   S    
C117  C118  A    
C60   H8    S    
C79   C83   A    
C57   C58   A    
C22   C42   A    
C95   H35   S    
C61   H13   S    
C23   C39   S    
C3    C14   S    
Cr12  O36   S    
C34   H56   S    
C130  H73   S    
C103  O47   A    
C67   C71   A    
C4    O28   A    
C26   C42   A    
C28   H48   S    
C61   C62   S    
C116  C120  A    
C27   H47   S    
C24   C40   S    
C49   C53   A    
Cr1   O17   S    
Cr10  O38   S    
C33   H57   S    
C63   C64   S    
Cr9   O37   S    
C27   C43   A    
C112  O44   A    
C35   C39   S    
Cr3   O47   S    
Cr6   O26   S    
C8    C10   A    
C77   C81   A    
C96   H36   S    
C129  H71   S    
C5    C117  A    
C74   C94   S    
C91   O3    A    
C87   C127  S    
C1    C16   S    
C19   C35   S    
C77   C97   A    
C65   C104  S    
C126  O56   S    
C23   C43   A    
Cr3   O3    S    
C63   H9    S    
C94   H34   S    
O54   H65   S    
C67   C102  S    
C6    C118  A    
C90   O2    A    
C26   C30   A    
C17   C21   A    
