data_mof_unit_24503.cif
_audit_creation_date              2012-12-10T17:26:18-0500
_audit_creation_method            fapswitch 2.2
_symmetry_space_group_name_H-M    P1
_symmetry_Int_Tables_number       1
_space_group_crystal_system       triclinic
_cell_length_a                    10.147173
_cell_length_b                    10.606759
_cell_length_c                    27.573397
_cell_angle_alpha                 90.401117
_cell_angle_beta                  81.03496
_cell_angle_gamma                 95.231157
_cell_volume                      2919.14433538

loop_
_atom_site_label
_atom_site_type_symbol
_atom_type_description
_atom_site_fract_x
_atom_site_fract_y
_atom_site_fract_z
_atom_type_partial_charge
C1    C     C_R   0.556048 0.733746 0.495054 0.878280
C2    C     C_R   0.483568 0.637627 0.128125 -0.091583
C3    C     C_R   0.502586 0.519877 0.646499 -0.205189
C4    C     C_R   0.498755 0.492778 0.352518 -0.211415
C5    C     C_R   0.450867 0.654165 0.028320 0.025232
C6    C     C_R   0.339522 0.439464 0.982410 0.024511
C7    C     C_R   0.331487 0.440430 0.034153 0.015472
C8    C     C_R   0.433487 0.662473 0.978555 0.013068
C9    C     C_R   0.399143 0.543794 0.055949 0.052593
C10   C     C_R   0.390015 0.550410 0.954898 0.057283
C11   C     C_R   0.531393 0.746725 0.049763 -0.200076
C12   C     C_R   0.443934 0.266015 0.501327 0.881639
C13   C     C_R   0.312453 0.327271 0.956856 -0.190941
C14   C     C_R   0.543538 0.742963 0.099243 0.231742
C15   C     C_R   0.315593 0.325878 0.906260 0.227353
C16   C     C_R   0.500956 0.503278 0.593944 0.947232
C17   C     C_R   0.500285 0.498938 0.405744 0.916708
C18   C     C_R   0.463821 0.776166 0.950404 0.131478
C19   C     C_R   0.264889 0.340039 0.065181 0.112565
C20   C     C_2   0.588257 0.867835 0.486432 0.027006
C21   C     C_2   0.412006 0.131660 0.495014 0.027999
C22   C     C_2   0.495840 0.931600 0.470129 -0.176252
C23   C     C_R   0.402103 0.548103 0.903129 -0.088434
C24   C     C_2   0.507704 0.067412 0.469880 -0.167990
C25   C     C_2   0.929652 0.519757 0.499756 0.001987
C26   C     C_2   0.075548 0.500569 0.492332 -0.013229
C27   C     C_R   0.488628 0.647380 0.824671 0.557348
C28   C     C_R   0.408468 0.409669 0.178816 0.562890
C29   C     C_R   0.366854 0.443797 0.827391 0.567322
C30   C     C_R   0.487495 0.628227 0.178697 0.566544
C31   C     C_R   0.540840 0.442742 0.725412 -0.032653
C32   C     C_R   0.600438 0.531803 0.267267 -0.033466
C33   C     C_R   0.555514 0.430699 0.674015 0.080447
C34   C     C_R   0.418849 0.535006 0.105392 -0.096237
C35   C     C_R   0.611381 0.536501 0.317641 0.101645
C36   C     C_R   0.441937 0.623392 0.669817 0.083793
C37   C     C_R   0.380561 0.442281 0.336237 0.077954
C38   C     C_R   0.412302 0.625878 0.720949 0.201218
C39   C     C_R   0.361643 0.463977 0.288192 0.211423
C40   C     C_R   0.464439 0.537582 0.748829 0.131162
C41   C     C_R   0.473066 0.503609 0.252941 0.121073
C42   C     C_R   0.721730 0.548769 0.229286 0.123523
C43   C     C_R   0.793043 0.668169 0.219645 -0.037960
C44   C     C_R   0.907574 0.681654 0.183905 -0.101011
C45   C     C_R   0.460718 0.655746 0.875673 -0.047366
C46   C     C_R   0.951331 0.576445 0.157415 -0.094837
C47   C     C_R   0.880175 0.457694 0.166449 -0.100556
C48   C     C_R   0.765580 0.443819 0.202122 -0.132157
C49   C     C_R   0.603308 0.356239 0.755300 0.123642
C50   C     C_R   0.555519 0.227644 0.760622 -0.033076
C51   C     C_R   0.610888 0.148123 0.790673 -0.095390
C52   C     C_R   0.713510 0.196454 0.815862 -0.084891
C53   C     C_R   0.761142 0.324321 0.810950 -0.108847
C54   C     C_R   0.706245 0.404108 0.780844 -0.151956
C55   C     C_R   0.376043 0.422116 0.131863 -0.052662
C56   C     C_R   0.486008 0.770064 0.899437 -0.135018
C57   C     C_R   0.295912 0.327270 0.112173 -0.134101
C58   C     C_R   0.359097 0.437781 0.878704 -0.094495
H1    H     H_    0.116367 0.443335 0.462203 0.179550
H2    H     H_    0.962395 0.773714 0.176747 0.170800
H3    H     H_    0.040242 0.586906 0.129874 0.154863
H4    H     H_    0.913969 0.376304 0.145887 0.177239
H5    H     H_    0.711430 0.351217 0.208840 0.176098
H6    H     H_    0.474430 0.189559 0.741971 0.186626
H7    H     H_    0.573469 0.049265 0.794745 0.188216
H8    H     H_    0.755828 0.134913 0.839296 0.166360
H9    H     H_    0.840320 0.361730 0.830612 0.169176
H10   H     H_    0.743257 0.503229 0.777625 0.173016
H11   H     H_    0.893157 0.597195 0.522184 0.165277
H12   H     H_    0.515995 0.856645 0.878377 0.200771
H13   H     H_    0.249306 0.246992 0.134604 0.215131
H14   H     H_    0.592735 0.819751 0.027645 0.194845
H15   H     H_    0.296386 0.237075 0.975482 0.212344
H16   H     H_    0.603548 0.114774 0.453428 0.207532
H17   H     H_    0.402708 0.883486 0.461869 0.197793
H18   H     H_    0.760047 0.750471 0.239842 0.186629
I1    I     I_    0.414084 0.786166 0.628269 -0.174855
I2    I     I_    0.658384 0.278926 0.638357 -0.228170
I3    I     I_    0.672369 0.893475 0.122860 -0.219594
I4    I     I_    0.269360 0.143636 0.876567 -0.222868
I5    I     I_    0.443606 0.962663 0.978915 -0.324454
I6    I     I_    0.089823 0.225044 0.052101 -0.318903
I7    I     I_    0.250924 0.300552 0.378540 -0.223986
I8    I     I_    0.220994 0.046138 0.527749 -0.172035
I9    I     I_    0.771941 0.953161 0.504890 -0.189537
I10   I     I_    0.089002 0.651046 0.582940 -0.136191
I11   I     I_    0.888992 0.291818 0.437441 -0.138573
I12   I     I_    0.277276 0.754776 0.756117 -0.189520
I13   I     I_    0.162311 0.447032 0.270726 -0.202733
I14   I     I_    0.799130 0.607198 0.339087 -0.239563
N1    N     N_R   0.439107 0.543406 0.801469 -0.336479
N2    N     N_R   0.457228 0.513673 0.202254 -0.339529
N3    N     N_2   0.842700 0.448890 0.480020 -0.030429
N4    N     N_2   0.157300 0.551110 0.519980 -0.039836
O1    O     O_R   0.431060 0.692470 0.504020 -0.599379
O2    O     O_2   0.388853 0.295377 0.201337 -0.518526
O3    O     O_2   0.517140 0.732138 0.204658 -0.521315
O4    O     O_2   0.302613 0.352741 0.803231 -0.523568
O5    O     O_R   0.568940 0.307530 0.495980 -0.598158
O6    O     O_R   0.651120 0.659650 0.491200 -0.602398
O7    O     O_R   0.348880 0.340350 0.508800 -0.587704
O8    O     O_R   0.389980 0.516390 0.577660 -0.573490
O9    O     O_R   0.610020 0.483610 0.422340 -0.575638
O10   O     O_R   0.610040 0.483570 0.564830 -0.593609
O11   O     O_R   0.389960 0.516430 0.435170 -0.617731
O12   O     O_2   0.563847 0.742478 0.798381 -0.552058
Zn1   Zn    Zn3+2 0.353060 0.521910 0.508560 1.046479
Zn2   Zn    Zn3+2 0.646940 0.478090 0.491440 1.051740

loop_
_geom_bond_atom_site_label_1
_geom_bond_atom_site_label_2
_ccdc_geom_bond_type
O7    Zn1   S    
C23   C58   A    
C26   N4    D    
C23   C45   A    
C50   H6    S    
C29   N1    A    
C24   H16   S    
C47   H4    S    
C39   C41   A    
C53   C54   A    
C19   C57   A    
C25   N3    D    
O5    Zn2   S    
O11   Zn1   S    
C30   O3    S    
C29   O4    S    
C5    C11   A    
C36   I1    S    
N3    Zn2   S    
C11   C14   A    
C33   I2    S    
C54   H10   S    
C3    C33   A    
C49   C54   A    
C18   I5    S    
C31   C40   A    
C51   H7    S    
C12   O5    A    
I10   N4    S    
C16   O10   A    
C47   C48   A    
C45   C56   A    
C4    C37   A    
C32   C41   A    
C31   C33   A    
C27   N1    A    
O9    Zn2   S    
C19   I6    S    
C26   H1    S    
C18   C56   A    
C27   C45   A    
C4    C35   A    
C34   C55   A    
C22   H17   S    
C31   C49   S    
C53   H9    S    
C1    O6    A    
C28   C55   A    
C44   C46   A    
N4    Zn1   S    
O6    Zn2   S    
C46   H3    S    
C51   C52   A    
C32   C35   A    
C30   N2    A    
C11   H14   S    
C48   H5    S    
C27   O12   S    
C25   C26   S    
C12   C21   S    
C8    C18   A    
C38   I12   S    
C43   C44   A    
C5    C9    A    
C17   O11   A    
C15   I4    S    
C21   I8    S    
C1    O1    A    
C20   I9    S    
C50   C51   A    
O8    Zn1   S    
C28   N2    A    
C42   C48   A    
C14   I3    S    
C57   H13   S    
O1    Zn1   S    
C4    C17   S    
C16   O8    A    
C20   C22   D    
C7    C19   A    
C55   C57   A    
C9    C34   A    
C15   C58   A    
C22   C24   S    
C25   H11   S    
C42   C43   A    
O10   Zn2   S    
C52   H8    S    
C52   C53   A    
C43   H18   S    
C7    C9    A    
C46   C47   A    
C1    C20   S    
C13   H15   S    
C6    C10   A    
C5    C8    A    
C6    C7    A    
C10   C23   A    
C56   H12   S    
C2    C30   A    
C28   O2    S    
C13   C15   A    
C17   O9    A    
C12   O7    A    
C37   C39   A    
C6    C13   A    
C38   C40   A    
C2    C34   A    
C3    C36   A    
C44   H2    S    
I11   N3    S    
C36   C38   A    
C40   N1    S    
C2    C14   A    
C35   I14   S    
C41   N2    S    
C29   C58   A    
C8    C10   A    
C49   C50   A    
C21   C24   D    
C32   C42   S    
C37   I7    S    
C39   I13   S    
C3    C16   S    
