data_mof_unit_16272.cif
_audit_creation_date              2012-12-10T17:24:47-0500
_audit_creation_method            fapswitch 2.2
_symmetry_space_group_name_H-M    P1
_symmetry_Int_Tables_number       1
_space_group_crystal_system       triclinic
_cell_length_a                    23.50906
_cell_length_b                    10.837437
_cell_length_c                    9.632158
_cell_angle_alpha                 91.740245
_cell_angle_beta                  89.911775
_cell_angle_gamma                 92.876065
_cell_volume                      2449.8399626

loop_
_atom_site_label
_atom_site_type_symbol
_atom_type_description
_atom_site_fract_x
_atom_site_fract_y
_atom_site_fract_z
_atom_type_partial_charge
C1    C     C_R   0.503313 0.263278 0.498136 0.792900
C2    C     C_R   0.123126 0.617693 0.524907 0.572839
C3    C     C_R   0.239206 0.517301 0.625515 -0.093131
C4    C     C_R   0.391049 0.499879 0.500104 0.799289
C5    C     C_R   0.298459 0.514699 0.625820 -0.203402
C6    C     C_R   0.328415 0.501232 0.500224 -0.043293
C7    C     C_R   0.297959 0.489901 0.374563 -0.201717
C8    C     C_R   0.238706 0.491935 0.374664 -0.094019
C9    C     C_R   0.209196 0.505870 0.500017 0.346982
C10   C     C_R   0.760975 0.501930 0.372949 -0.043654
C11   C     C_R   0.701635 0.498622 0.373307 -0.134151
C12   C     C_R   0.964674 0.293103 0.446029 -0.106957
C13   C     C_R   0.671620 0.504408 0.499533 -0.045188
C14   C     C_R   0.702092 0.514258 0.625220 -0.216976
C15   C     C_R   0.761457 0.517964 0.624484 -0.083415
C16   C     C_R   0.497667 0.737794 0.503106 0.808008
C17   C     C_R   0.791008 0.511493 0.498431 0.318748
C18   C     C_R   0.565007 0.135850 0.710055 -0.221723
C19   C     C_R   0.567700 0.091003 0.843221 -0.170015
C20   C     C_R   0.537928 0.980760 0.873289 0.495323
C21   C     C_R   0.515307 0.904327 0.765251 -0.269672
C22   C     C_R   0.515725 0.945499 0.627571 0.036445
C23   C     C_R   0.023752 0.291490 0.446500 -0.107946
C24   C     C_R   0.531369 0.070752 0.608101 0.102930
C25   C     C_R   0.507607 0.129784 0.495201 -0.104117
C26   C     C_R   0.477907 0.060095 0.392213 -0.103800
C27   C     C_R   0.474426 0.932191 0.396207 -0.153502
C28   C     C_R   0.608950 0.501187 0.499895 0.796873
C29   C     C_R   0.494912 0.872845 0.511408 -0.115447
C30   C     C_R   0.581685 0.651493 0.147445 -0.210442
C31   C     C_R   0.624239 0.718582 0.077169 0.429569
C32   C     C_R   0.622635 0.721046 0.933808 -0.257641
C33   C     C_R   0.579836 0.654489 0.860863 -0.248081
C34   C     C_R   0.056945 0.400738 0.472576 -0.021310
C35   C     C_R   0.539643 0.575071 0.927521 0.229749
C36   C     C_R   0.540096 0.574203 0.076690 0.197256
C37   C     C_R   0.462314 0.428148 0.071472 -0.019735
C38   C     C_R   0.462423 0.427955 0.923799 -0.036915
C39   C     C_R   0.882284 0.622899 0.523802 0.610409
C40   C     C_R   0.878099 0.405565 0.471818 0.550717
C41   C     C_R   0.937443 0.403989 0.471598 -0.007081
C42   C     C_R   0.970041 0.515368 0.497791 -0.064484
C43   C     C_R   0.942804 0.628169 0.523367 -0.148928
C44   C     C_R   0.030125 0.512907 0.498212 -0.009635
C45   C     C_R   0.063469 0.622138 0.524331 -0.092708
C46   C     C_R   0.036952 0.733473 0.548258 -0.204292
C47   C     C_R   0.977493 0.739308 0.547253 0.434933
C48   C     C_R   0.116607 0.400639 0.473810 0.545852
Cu1   Cu    Cu3+1 0.500000 0.499990 0.640660 0.943623
Cu2   Cu    Cu3+1 0.500000 0.500010 0.359340 0.977365
H1    H     H_    0.940403 0.206908 0.425589 0.206331
H2    H     H_    0.579462 0.670418 0.752593 0.223101
H3    H     H_    0.431591 0.368688 0.867033 0.147843
H4    H     H_    0.063094 0.817263 0.567383 0.234821
H5    H     H_    0.216528 0.527856 0.722751 0.146092
H6    H     H_    0.319827 0.479217 0.276217 0.161087
H7    H     H_    0.215652 0.483122 0.277339 0.145130
H8    H     H_    0.456484 0.105395 0.310352 0.208801
H9    H     H_    0.587186 0.148932 0.925418 0.195171
H10   H     H_    0.569092 0.932156 0.222491 0.391632
H11   H     H_    0.453768 0.879557 0.311586 0.224350
H12   H     H_    0.679364 0.491355 0.274837 0.170104
H13   H     H_    0.699349 0.846016 0.384246 0.398909
H14   H     H_    0.653890 0.777231 0.877990 0.200459
H15   H     H_    0.888671 0.994864 0.470188 0.390340
H16   H     H_    0.320742 0.523837 0.724199 0.164230
H17   H     H_    0.783705 0.497134 0.275224 0.162447
H18   H     H_    0.680175 0.519222 0.724036 0.170661
H19   H     H_    0.784565 0.525256 0.721789 0.159399
H20   H     H_    0.585018 0.225926 0.691172 0.177046
H21   H     H_    0.490701 0.822390 0.793531 0.214460
H22   H     H_    0.431401 0.369076 0.124433 0.141223
H23   H     H_    0.043282 0.204295 0.426428 0.218133
H24   H     H_    0.581876 0.666262 0.256620 0.229204
N1    N     N_R   0.852023 0.513433 0.497864 -0.481206
N2    N     N_R   0.148296 0.508104 0.499799 -0.472164
N3    N     N_R   0.500540 0.501210 0.147910 -0.191565
N4    N     N_R   0.500560 0.501290 0.852040 -0.200811
O1    O     O_R   0.500000 0.319640 0.618810 -0.579751
O2    O     O_R   0.582120 0.500020 0.618760 -0.609400
O3    O     O_R   0.582120 0.500050 0.381190 -0.598297
O4    O     O_2   0.853202 0.724801 0.549898 -0.429854
O5    O     O_2   0.466686 0.039685 0.069592 -0.317422
O6    O     O_2   0.494960 0.826092 0.062386 -0.358061
O7    O     O_3   0.568782 0.999031 0.154849 -0.499084
O8    O     O_2   0.733237 0.732866 0.150826 -0.283727
O9    O     O_2   0.688578 0.927804 0.110709 -0.222662
O10   O     O_3   0.663609 0.813825 0.338891 -0.575910
O11   O     O_2   0.916055 0.891256 0.705858 -0.216590
O12   O     O_2   0.846422 0.299783 0.447268 -0.515248
O13   O     O_2   0.998142 0.986435 0.586719 -0.304794
O14   O     O_3   0.909210 0.921414 0.438896 -0.469503
O15   O     O_2   0.142801 0.294013 0.450083 -0.513059
O16   O     O_2   0.155778 0.722078 0.549345 -0.513743
O17   O     O_R   0.500000 0.319660 0.381240 -0.564504
O18   O     O_R   0.417880 0.499950 0.618810 -0.580743
O19   O     O_R   0.417880 0.499980 0.381240 -0.582845
O20   O     O_R   0.500000 0.680340 0.618760 -0.610175
O21   O     O_R   0.500000 0.680360 0.381190 -0.573513
S1    S     S_3+6 0.515515 0.957939 0.043822 -0.040298
S2    S     S_3+6 0.679517 0.801179 0.168825 0.009698
S3    S     S_3+6 0.950495 0.888871 0.574212 0.057826

loop_
_geom_bond_atom_site_label_1
_geom_bond_atom_site_label_2
_ccdc_geom_bond_type
C18   H20   S    
H15   O14   S    
C22   C29   A    
H13   O10   S    
C27   C29   A    
C41   C42   A    
C48   N2    A    
C19   C20   A    
C11   H12   S    
O10   S2    S    
C7    C8    A    
C10   H17   S    
C33   H2    S    
C12   C23   A    
Cu2   O21   S    
C37   C38   A    
C21   H21   S    
C18   C24   A    
C31   S2    S    
C21   C22   A    
C36   N3    A    
C30   C31   A    
O11   S3    D    
Cu2   O17   S    
C10   C17   A    
Cu1   N4    S    
C18   C19   A    
C27   H11   S    
Cu1   O20   S    
C4    O18   A    
C3    H5    S    
C35   C36   A    
C8    C9    A    
C13   C28   S    
C9    N2    S    
C39   N1    A    
O14   S3    S    
C47   S3    S    
O9    S2    D    
C4    O19   A    
C1    C25   S    
C42   C44   A    
C7    H6    S    
C23   H23   S    
C2    C45   A    
C15   H19   S    
C48   O15   S    
O6    S1    D    
C2    O16   S    
C34   C44   A    
C24   C25   A    
C32   H14   S    
C4    C6    S    
C39   C43   A    
C38   N4    A    
C19   H9    S    
C16   C29   S    
C45   C46   A    
C37   N3    A    
Cu1   O1    S    
C12   C41   A    
C3    C9    A    
C8    H7    S    
C31   C32   A    
C20   S1    S    
C1    O17   A    
C23   C34   A    
C46   H4    S    
C26   C27   A    
C26   H8    S    
C40   C41   A    
O5    S1    D    
C1    O1    A    
C22   C24   A    
C34   C48   A    
C42   C43   A    
O13   S3    D    
Cu2   N3    S    
C12   H1    S    
C2    N2    A    
C44   C45   A    
C15   C17   A    
C46   C47   A    
Cu2   O19   S    
C28   O3    A    
C39   O4    S    
C5    H16   S    
C3    C5    A    
H10   O7    S    
C40   N1    A    
C16   O21   A    
C6    C7    A    
C35   N4    A    
Cu1   O2    S    
C30   C36   A    
C32   C33   A    
C25   C26   A    
O7    S1    S    
C11   C13   A    
C16   O20   A    
C5    C6    A    
C38   H3    S    
C30   H24   S    
C33   C35   A    
Cu1   O18   S    
C28   O2    A    
C10   C11   A    
C20   C21   A    
Cu1   Cu2   S    
C37   H22   S    
C17   N1    S    
C14   H18   S    
C14   C15   A    
C40   O12   S    
C13   C14   A    
O8    S2    D    
C43   C47   A    
Cu2   O3    S    
