data_mof_unit_8640.cif
_audit_creation_date              2012-12-11T16:45:41-0500
_audit_creation_method            fapswitch 2.2
_symmetry_space_group_name_H-M    P1
_symmetry_Int_Tables_number       1
_space_group_crystal_system       triclinic
_cell_length_a                    19.864935
_cell_length_b                    17.077566
_cell_length_c                    15.36291
_cell_angle_alpha                 89.698666
_cell_angle_beta                  52.544582
_cell_angle_gamma                 89.180934
_cell_volume                      4136.79414794

loop_
_atom_site_label
_atom_site_type_symbol
_atom_type_description
_atom_site_fract_x
_atom_site_fract_y
_atom_site_fract_z
_atom_type_partial_charge
C1    C     C_R   0.837764 0.670880 0.052391 -0.088812
C2    C     C_R   0.148877 0.310198 0.073465 0.174084
C3    C     C_R   0.348161 0.811177 0.934216 0.154661
C4    C     C_R   0.648871 0.810198 0.073474 0.174065
C5    C     C_R   0.888055 0.684719 0.305304 0.083840
C6    C     C_R   0.113259 0.684456 0.694744 0.075451
C7    C     C_R   0.388057 0.184720 0.305302 0.083849
C8    C     C_R   0.613262 0.184452 0.694739 0.075446
C9    C     C_R   0.857688 0.716635 0.483657 0.162983
C10   C     C_R   0.152502 0.713464 0.512346 0.155684
C11   C     C_R   0.357703 0.216645 0.483647 0.162979
C12   C     C_R   0.157525 0.675002 0.959156 -0.144725
C13   C     C_R   0.652523 0.213448 0.512330 0.155677
C14   C     C_R   0.871689 0.741749 0.386947 0.023155
C15   C     C_R   0.132193 0.740760 0.611377 0.039814
C16   C     C_R   0.371693 0.241754 0.386941 0.023148
C17   C     C_R   0.632200 0.240751 0.611366 0.039819
C18   C     C_R   0.355806 0.321143 0.379563 -0.193551
C19   C     C_R   0.644240 0.320518 0.620009 -0.196586
C20   C     C_R   0.855812 0.821141 0.379567 -0.193556
C21   C     C_R   0.144248 0.820524 0.620019 -0.196577
C22   C     C_R   0.306694 0.366816 0.475027 -0.187729
C23   C     C_R   0.337764 0.170879 0.052390 -0.088810
C24   C     C_R   0.693751 0.365739 0.524822 -0.186774
C25   C     C_R   0.806703 0.866816 0.475031 -0.187734
C26   C     C_R   0.193761 0.865744 0.524830 -0.186769
C27   C     C_R   0.272737 0.332459 0.577444 0.027160
C28   C     C_R   0.731514 0.330594 0.421749 0.046584
C29   C     C_R   0.772739 0.832457 0.577449 0.027165
C30   C     C_R   0.231513 0.830601 0.421758 0.046587
C31   C     C_R   0.808406 0.761198 0.577957 0.168114
C32   C     C_R   0.201924 0.757523 0.418624 0.114263
C33   C     C_R   0.308416 0.261207 0.577948 0.168124
C34   C     C_R   0.657524 0.175002 0.959157 -0.144679
C35   C     C_R   0.701942 0.257507 0.418608 0.114274
C36   C     C_3   0.769295 0.689917 0.648503 -0.520771
C37   C     C_3   0.249282 0.686225 0.350261 -0.454646
C38   C     C_3   0.269324 0.189925 0.648496 -0.520770
C39   C     C_3   0.749320 0.186212 0.350249 -0.454634
C40   C     C_R   0.850085 0.330601 0.218718 -0.110057
C41   C     C_R   0.151369 0.330421 0.780937 -0.142040
C42   C     C_R   0.350085 0.830600 0.218721 -0.110063
C43   C     C_R   0.651370 0.830423 0.780940 -0.142045
C44   C     C_3   0.823595 0.641416 0.545571 -0.524095
C45   C     C_R   0.809159 0.361457 0.323019 0.055888
C46   C     C_3   0.194793 0.638303 0.452497 -0.520437
C47   C     C_3   0.323630 0.141425 0.545564 -0.524095
C48   C     C_3   0.694833 0.138290 0.452486 -0.520462
C49   C     C_2   0.765350 0.191876 0.990981 0.019094
C50   C     C_2   0.203456 0.177898 0.068991 -0.078230
C51   C     C_2   0.265342 0.691882 0.990990 0.019056
C52   C     C_2   0.703454 0.677898 0.068992 -0.078198
C53   C     C_2   0.304344 0.751969 0.919790 -0.322877
C54   C     C_2   0.691143 0.754417 0.097861 -0.186148
C55   C     C_2   0.804342 0.251971 0.919793 -0.322783
C56   C     C_R   0.192830 0.361722 0.676869 0.073905
C57   C     C_2   0.191150 0.254416 0.097850 -0.186150
C58   C     C_R   0.864694 0.388257 0.898493 -0.142976
C59   C     C_R   0.132353 0.387859 0.105586 -0.166644
C60   C     C_R   0.364696 0.888257 0.898490 -0.142968
C61   C     C_R   0.632349 0.887859 0.105592 -0.166602
C62   C     C_R   0.907997 0.607069 0.302978 -0.159190
C63   C     C_R   0.092378 0.607619 0.697102 -0.156381
C64   C     C_R   0.407999 0.107070 0.302977 -0.159200
C65   C     C_R   0.592381 0.107616 0.697100 -0.156376
C66   C     C_R   0.882456 0.298516 0.987345 -0.165061
C67   C     C_R   0.309160 0.861458 0.323023 0.055898
C68   C     C_R   0.123830 0.298444 0.008640 -0.092405
C69   C     C_R   0.382459 0.798516 0.987341 -0.165073
C70   C     C_R   0.623826 0.798443 0.008645 -0.092407
C71   C     C_R   0.897292 0.698521 0.209600 -0.137167
C72   C     C_R   0.103861 0.697982 0.790294 -0.126520
C73   C     C_R   0.397293 0.198521 0.209599 -0.137164
C74   C     C_R   0.603862 0.197981 0.790291 -0.126524
C75   C     C_R   0.859238 0.421106 0.316487 -0.115160
C76   C     C_R   0.141323 0.421424 0.683849 -0.122179
C77   C     C_R   0.359240 0.921107 0.316488 -0.115161
C78   C     C_R   0.692833 0.861724 0.676871 0.073904
C79   C     C_R   0.641325 0.921425 0.683849 -0.122180
C80   C     C_R   0.827652 0.579211 0.956793 -0.147282
C81   C     C_R   0.166684 0.580077 0.054067 -0.123750
C82   C     C_R   0.327652 0.079210 0.956793 -0.147280
C83   C     C_R   0.666680 0.080082 0.054076 -0.123812
C84   C     C_R   0.784803 0.641739 0.030467 0.031772
C85   C     C_R   0.205942 0.645904 0.989665 0.088478
C86   C     C_R   0.284803 0.141738 0.030468 0.031764
C87   C     C_R   0.705939 0.145906 0.989670 0.088422
C88   C     C_2   0.761224 0.181787 0.090116 0.447545
C89   C     C_R   0.848158 0.311177 0.934221 0.154656
C90   C     C_2   0.140033 0.130128 0.072264 0.515261
C91   C     C_2   0.261188 0.681819 0.090148 0.447652
C92   C     C_2   0.640037 0.630133 0.072246 0.515247
H1    H     H_    0.825642 0.717983 0.106777 0.093191
H2    H     H_    0.236661 0.673903 0.290867 0.221088
H3    H     H_    0.286854 0.182173 0.704369 0.189537
H4    H     H_    0.736715 0.173872 0.290841 0.221031
H5    H     H_    0.700647 0.684137 0.687611 0.204460
H6    H     H_    0.317245 0.684721 0.316263 0.222749
H7    H     H_    0.200677 0.184128 0.687611 0.204459
H8    H     H_    0.817279 0.184726 0.316264 0.222762
H9    H     H_    0.872784 0.606152 0.541840 0.189651
H10   H     H_    0.151198 0.599297 0.450919 0.191258
H11   H     H_    0.372832 0.106177 0.541825 0.189651
H12   H     H_    0.165118 0.728998 0.917240 0.099823
H13   H     H_    0.651252 0.099270 0.450900 0.191246
H14   H     H_    0.785310 0.608605 0.527610 0.201059
H15   H     H_    0.231725 0.609563 0.476733 0.206729
H16   H     H_    0.285347 0.108598 0.527613 0.201055
H17   H     H_    0.731763 0.109566 0.476735 0.206737
H18   H     H_    0.299137 0.760566 0.854004 0.145512
H19   H     H_    0.730474 0.783479 0.114138 0.113709
H20   H     H_    0.799120 0.260579 0.854020 0.145484
H21   H     H_    0.230485 0.283474 0.114118 0.113711
H22   H     H_    0.827901 0.286046 0.192889 0.108031
H23   H     H_    0.325644 0.217984 0.106773 0.093187
H24   H     H_    0.174765 0.286033 0.806339 0.103202
H25   H     H_    0.327901 0.786045 0.192893 0.108019
H26   H     H_    0.674770 0.786039 0.806344 0.103203
H27   H     H_    0.857129 0.414772 0.840782 0.093026
H28   H     H_    0.136368 0.414656 0.165906 0.105397
H29   H     H_    0.357131 0.914772 0.840779 0.093026
H30   H     H_    0.636364 0.914657 0.165911 0.105380
H31   H     H_    0.923043 0.578860 0.352355 0.103312
H32   H     H_    0.078139 0.580744 0.646627 0.102343
H33   H     H_    0.423046 0.078862 0.352351 0.103307
H34   H     H_    0.665118 0.228997 0.917238 0.099809
H35   H     H_    0.578145 0.080740 0.646622 0.102339
H36   H     H_    0.899536 0.243316 0.004287 0.138503
H37   H     H_    0.120987 0.243780 0.976265 0.108917
H38   H     H_    0.399530 0.743314 0.004293 0.138427
H39   H     H_    0.620986 0.743779 0.976263 0.108884
H40   H     H_    0.899490 0.755123 0.176249 0.089158
H41   H     H_    0.103180 0.754182 0.822835 0.086254
H42   H     H_    0.399490 0.255123 0.176247 0.089154
H43   H     H_    0.603182 0.254182 0.822829 0.086253
H44   H     H_    0.846569 0.457664 0.382222 0.092655
H45   H     H_    0.286606 0.424572 0.469363 0.132873
H46   H     H_    0.153580 0.458735 0.618841 0.094331
H47   H     H_    0.346573 0.957666 0.382220 0.092651
H48   H     H_    0.653585 0.958735 0.618839 0.094331
H49   H     H_    0.805562 0.543897 0.920896 0.089168
H50   H     H_    0.183818 0.545867 0.097373 0.148362
H51   H     H_    0.305563 0.043897 0.920895 0.089167
H52   H     H_    0.683811 0.045881 0.097394 0.148279
H53   H     H_    0.371384 0.345324 0.304216 0.134339
H54   H     H_    0.624534 0.345519 0.696925 0.127783
H55   H     H_    0.871397 0.845324 0.304217 0.134343
H56   H     H_    0.710452 0.424234 0.531507 0.125872
H57   H     H_    0.124552 0.845522 0.696932 0.127784
H58   H     H_    0.734805 0.228412 0.150693 -0.004668
H59   H     H_    0.159383 0.076617 0.024515 -0.012340
H60   H     H_    0.234830 0.728469 0.150662 -0.004596
H61   H     H_    0.659393 0.576638 0.024462 -0.012361
H62   H     H_    0.786623 0.924575 0.469366 0.132875
H63   H     H_    0.210473 0.924234 0.531514 0.125870
H64   H     H_    0.786817 0.682152 0.704381 0.189533
N1    N     N_R   0.908660 0.628630 0.995840 -0.044285
N2    N     N_R   0.096530 0.421430 0.063580 -0.043821
N3    N     N_R   0.403470 0.921430 0.936420 -0.040636
N4    N     N_R   0.596530 0.921430 0.063580 -0.043816
N5    N     N_R   0.927500 0.575670 0.211370 -0.038669
N6    N     N_R   0.072500 0.575670 0.788630 -0.038492
N7    N     N_R   0.427500 0.075670 0.211370 -0.038669
N8    N     N_R   0.572500 0.075670 0.788630 -0.038490
N9    N     N_R   0.908660 0.365680 0.995820 -0.048796
N10   N     N_R   0.091340 0.365680 0.004180 -0.051544
N11   N     N_R   0.408660 0.865680 0.995820 -0.048788
N12   N     N_R   0.091340 0.628630 0.004160 -0.040792
N13   N     N_R   0.591340 0.865680 0.004180 -0.051543
N14   N     N_R   0.922310 0.631420 0.151980 -0.040459
N15   N     N_R   0.077690 0.631420 0.848020 -0.038111
N16   N     N_R   0.422310 0.131420 0.151980 -0.040459
N17   N     N_R   0.577690 0.131420 0.848020 -0.038111
N18   N     N_R   0.927500 0.426330 0.211360 -0.040626
N19   N     N_R   0.072500 0.426330 0.788640 -0.040982
N20   N     N_R   0.427500 0.926330 0.211360 -0.040627
N21   N     N_R   0.572500 0.926330 0.788640 -0.040981
N22   N     N_R   0.903470 0.570760 0.936440 -0.036945
N23   N     N_R   0.408660 0.128630 0.995840 -0.044285
N24   N     N_R   0.096530 0.570760 0.063560 -0.049295
N25   N     N_R   0.403470 0.070760 0.936440 -0.036945
N26   N     N_R   0.596530 0.070760 0.063560 -0.049277
N27   N     N_R   0.591340 0.128630 0.004160 -0.040790
N28   N     N_R   0.922310 0.368460 0.151950 -0.036711
N29   N     N_R   0.077690 0.368460 0.848050 -0.041125
N30   N     N_R   0.422310 0.868460 0.151950 -0.036712
N31   N     N_R   0.577690 0.868460 0.848050 -0.041123
N32   N     N_R   0.903470 0.421430 0.936420 -0.040634
Ni1   Ni    Ni4+2 0.000000 0.630300 0.000000 0.209040
Ni2   Ni    Ni4+2 0.500000 0.130300 0.000000 0.209038
Ni3   Ni    Ni4+2 0.000000 0.369700 0.000000 0.233953
Ni4   Ni    Ni4+2 0.500000 0.869700 0.000000 0.233941
Ni5   Ni    Ni4+2 0.988090 0.497570 0.863760 0.210505
Ni6   Ni    Ni4+2 0.011910 0.497570 0.136240 0.213313
Ni7   Ni    Ni4+2 0.488090 0.997570 0.863760 0.210505
Ni8   Ni    Ni4+2 0.511910 0.997570 0.136240 0.213306
O1    O     O_2   0.788652 0.121962 0.102897 -0.606962
O2    O     O_2   0.064757 0.147945 0.132883 -0.579248
O3    O     O_2   0.288507 0.621980 0.103036 -0.607101
O4    O     O_2   0.564757 0.647935 0.132889 -0.579239

loop_
_geom_bond_atom_site_label_1
_geom_bond_atom_site_label_2
_ccdc_geom_bond_type
C53   H18   S    
C88   O1    D    
C63   N6    A    
C83   C87   A    
C21   C26   A    
C59   H28   S    
C56   C76   A    
C55   H20   S    
C49   C87   S    
C11   C47   S    
C67   C77   A    
C60   N3    A    
C80   C84   A    
C18   H53   S    
C51   C85   S    
C4    C70   A    
C63   H32   S    
C72   H41   S    
N8    Ni7   S    
C7    C73   A    
C27   C33   A    
C43   C78   A    
C6    C72   A    
N11   Ni4   S    
C46   H10   S    
C82   N25   A    
N2    N10   A    
N2    Ni6   S    
C12   C85   A    
C65   H35   S    
C22   H45   S    
C3    C69   A    
C70   N13   A    
C12   H12   S    
C2    C68   A    
C10   C15   A    
C91   H60   S    
C59   N2    A    
C62   N5    A    
C20   C25   A    
N17   Ni2   S    
N15   Ni1   S    
N10   Ni3   S    
C52   C84   S    
N26   N27   A    
C37   H6    S    
C51   C91   S    
C71   H40   S    
C77   H47   S    
C50   C90   S    
C40   H22   S    
N6    N15   A    
C28   C35   A    
C66   H36   S    
C69   H38   S    
C23   C86   A    
C38   H3    S    
C10   C46   S    
N4    N13   A    
C79   N21   A    
C36   H5    S    
C45   C75   A    
C21   H57   S    
C23   N23   A    
C30   C67   S    
C34   N27   A    
N4    Ni8   S    
C91   O3    D    
C3    C60   A    
C42   N30   A    
C48   H17   S    
C6    C15   S    
C8    C65   A    
C18   C22   A    
N5    Ni6   S    
C46   H15   S    
C75   N18   A    
C49   C88   S    
C26   H63   S    
C68   H37   S    
C64   N7    A    
N25   Ni7   S    
C62   H31   S    
C52   C54   D    
N29   Ni3   S    
C66   C89   A    
N1    Ni1   S    
C25   C29   A    
C40   C45   A    
C7    C64   A    
N22   Ni5   S    
C28   C45   S    
C2    C57   S    
C19   H54   S    
C47   H11   S    
C29   C78   S    
C58   N32   A    
N9    N32   A    
C72   N15   A    
C14   C20   A    
C11   C33   A    
C74   N17   A    
C24   H56   S    
C61   N4    A    
N18   N28   A    
C9    C31   A    
C78   C79   A    
C82   H51   S    
C57   H21   S    
N16   Ni2   S    
C82   C86   A    
C4    C61   A    
N12   Ni1   S    
C90   H59   S    
C83   N26   A    
C61   H30   S    
C1    C84   A    
C80   N22   A    
C6    C63   A    
N3    Ni7   S    
C9    C14   A    
C69   N11   A    
C41   C56   A    
N28   Ni3   S    
N19   N29   A    
C11   C16   A    
C48   H13   S    
N14   Ni1   S    
C43   N31   A    
C34   H34   S    
C49   C55   D    
C74   H43   S    
C8    C74   A    
N31   Ni4   S    
C20   H55   S    
C41   N29   A    
N8    N17   A    
C16   C18   A    
C32   C37   S    
N20   Ni8   S    
C73   N16   A    
N20   N30   A    
N7    N16   A    
C5    C14   S    
C92   H61   S    
N5    N14   A    
C1    H1    S    
C7    C16   S    
C2    C59   A    
N32   Ni5   S    
N18   Ni6   S    
C77   N20   A    
C76   H46   S    
C37   H2    S    
C42   C67   A    
C36   C44   S    
N26   Ni8   S    
C41   H24   S    
C17   C19   A    
N27   Ni2   S    
N24   Ni6   S    
C36   H64   S    
C65   N8    A    
C47   H16   S    
C81   H50   S    
C9    C44   S    
N21   Ni7   S    
C66   N9    A    
C4    C54   S    
C25   H62   S    
C75   H44   S    
C50   C57   D    
C88   H58   S    
C5    C62   A    
C76   N19   A    
C24   C28   A    
C81   N24   A    
C38   H7    S    
C12   N12   A    
C13   C48   S    
C44   H9    S    
C42   H25   S    
C13   C35   A    
C90   O2    D    
C44   H14   S    
C27   C56   S    
C8    C17   S    
N21   N31   A    
C38   C47   S    
C22   C27   A    
N1    N22   A    
C1    N1    A    
C19   C24   A    
C5    C71   A    
N12   N24   A    
C30   C32   A    
C3    C53   S    
C39   H8    S    
C83   H52   S    
N23   Ni2   S    
N7    Ni8   S    
C80   H49   S    
C35   C39   S    
N6    Ni5   S    
C70   H39   S    
N9    Ni3   S    
N3    N11   A    
C54   H19   S    
C79   H48   S    
C34   C87   A    
N30   Ni4   S    
C60   H29   S    
C55   C89   S    
C58   C89   A    
C71   N14   A    
C39   H4    S    
C52   C92   S    
C50   C86   S    
C43   H26   S    
C23   H23   S    
C13   C17   A    
C10   C32   A    
C15   C21   A    
C58   H27   S    
C73   H42   S    
C29   C31   A    
C64   H33   S    
C31   C36   S    
C33   C38   S    
N23   N25   A    
N13   Ni4   S    
C51   C53   D    
C37   C46   S    
C92   O4    D    
N19   Ni5   S    
C81   C85   A    
C39   C48   S    
C40   N28   A    
C26   C30   A    
C68   N10   A    
