data_mof_unit_53603.cif
_audit_creation_date              2012-12-11T20:46:28-0500
_audit_creation_method            fapswitch 2.2
_symmetry_space_group_name_H-M    P1
_symmetry_Int_Tables_number       1
_space_group_crystal_system       triclinic
_cell_length_a                    8.267604
_cell_length_b                    18.797989
_cell_length_c                    18.86679
_cell_angle_alpha                 101.190831
_cell_angle_beta                  94.029716
_cell_angle_gamma                 91.250247
_cell_volume                      2867.42239991

loop_
_atom_site_label
_atom_site_type_symbol
_atom_type_description
_atom_site_fract_x
_atom_site_fract_y
_atom_site_fract_z
_atom_type_partial_charge
Ba1   Ba    Ba6+2 0.153490 0.533960 0.468530 1.671831
Ba2   Ba    Ba6+2 0.656680 0.466030 0.531410 1.681678
C1    C     C_3   0.404989 0.725759 0.215577 -0.090675
C2    C     C_R   0.087338 0.906086 0.573077 -0.084214
C3    C     C_R   0.225230 0.047593 0.558322 -0.098431
C4    C     C_3   0.915698 0.728997 0.328324 0.301929
C5    C     C_R   0.066137 0.023175 0.530571 0.026746
C6    C     C_R   0.282336 0.117767 0.558319 -0.097214
C7    C     C_R   0.183820 0.167286 0.530725 -0.037745
C8    C     C_R   0.028053 0.143144 0.497620 -0.003291
C9    C     C_R   0.969389 0.070610 0.496815 0.031137
C10   C     C_R   0.235994 0.240322 0.535346 -0.001577
C11   C     C_R   0.132349 0.288611 0.508990 -0.262011
C12   C     C_3   0.406505 0.696370 0.285924 0.359828
C13   C     C_R   0.982621 0.265452 0.472020 0.058177
C14   C     C_R   0.931633 0.191249 0.464594 -0.042481
C15   C     C_R   0.848417 0.928109 0.499125 0.017503
C16   C     C_3   0.906235 0.801850 0.303349 -0.267979
C17   C     C_R   0.789142 0.855812 0.498870 0.001043
C18   C     C_R   0.884222 0.808197 0.533324 -0.041038
C19   C     C_R   0.028342 0.836206 0.573364 -0.028818
C20   C     C_R   0.788227 0.163274 0.424575 -0.015465
C21   C     C_R   0.729824 0.093133 0.423756 -0.085265
C22   C     C_R   0.814608 0.046229 0.462183 0.008878
C23   C     C_3   0.462498 0.701061 0.688993 0.424918
C24   C     C_R   0.752249 0.975327 0.464754 0.016460
C25   C     C_R   0.594162 0.950510 0.435775 -0.092126
C26   C     C_R   0.633673 0.831517 0.465063 -0.039500
C27   C     C_R   0.536829 0.880473 0.435875 -0.092814
C28   C     C_3   0.797576 0.379071 0.311876 0.224405
C29   C     C_R   0.579903 0.758840 0.461264 -0.003977
C30   C     C_R   0.683310 0.710862 0.488208 -0.290801
C31   C     C_R   0.831383 0.734370 0.526711 -0.010548
C32   C     C_2   0.593667 0.531622 0.304878 -0.258268
C33   C     C_3   0.682849 0.575277 0.259566 -0.035384
C34   C     C_3   0.377943 0.770873 0.721137 -0.228558
C35   C     C_2   0.641708 0.552117 0.179239 -0.137734
C36   C     C_2   0.505184 0.511361 0.153912 -0.077904
C37   C     C_2   0.408320 0.482435 0.207243 -0.124630
C38   C     C_1   0.463920 0.490494 0.276477 0.087621
C39   C     C_R   0.350316 0.479653 0.931358 0.466804
C40   C     C_3   0.769652 0.361814 0.229387 -0.253095
C41   C     C_R   0.450907 0.498245 0.075016 0.467931
C42   C     C_R   0.393373 0.501057 0.806370 -0.136801
C43   C     C_R   0.346917 0.492729 0.732257 0.043393
C44   C     C_R   0.100405 0.428210 0.749508 0.018936
C45   C     C_3   0.912967 0.262558 0.665841 0.382504
C46   C     C_R   0.146483 0.436232 0.823842 -0.157510
C47   C     C_R   0.297019 0.470704 0.852761 -0.066352
C48   C     C_R   0.209084 0.450185 0.703427 -0.209846
C49   C     C_3   0.895621 0.656493 0.702488 0.267765
C50   C     C_3   0.880929 0.706507 0.775858 -0.446808
C51   C     C_3   0.347701 0.301531 0.347982 0.386863
C52   C     C_3   0.435757 0.231578 0.323808 -0.299114
C53   C     C_2   0.920317 0.334088 0.195206 0.562654
C54   C     C_2   0.969808 0.587848 0.712861 0.607144
C55   C     C_2   0.417115 0.791834 0.801541 0.506986
C56   C     C_3   0.934031 0.190085 0.690646 -0.115070
C57   C     C_2   0.057191 0.848503 0.327226 0.561534
C58   C     C_3   0.427709 0.303967 0.713331 0.340172
C59   C     C_3   0.455251 0.278882 0.784989 -0.354947
C60   C     C_R   0.003167 0.952534 0.533830 0.009536
H1    H     H_    0.355013 0.639867 0.274607 0.051948
H2    H     H_    0.432882 0.197555 0.365744 0.071438
H3    H     H_    0.562685 0.244632 0.314559 0.130347
H4    H     H_    0.535159 0.696496 0.306124 -0.110534
H5    H     H_    0.501377 0.699641 0.182418 0.067273
H6    H     H_    0.591994 0.713798 0.703073 -0.055740
H7    H     H_    0.417080 0.816055 0.695138 0.059037
H8    H     H_    0.244906 0.763018 0.710567 0.105687
H9    H     H_    0.433458 0.785156 0.228290 0.146500
H10   H     H_    0.803282 0.832091 0.327775 0.022343
H11   H     H_    0.841014 0.253909 0.612799 0.070853
H12   H     H_    0.667361 0.321199 0.213044 0.137701
H13   H     H_    0.036121 0.282922 0.658001 -0.150191
H14   H     H_    0.021103 0.157334 0.657129 0.079460
H15   H     H_    0.986507 0.200166 0.747736 0.119871
H16   H     H_    0.295084 0.306010 0.701197 -0.057180
H17   H     H_    0.486001 0.358746 0.719383 0.080577
H18   H     H_    0.395018 0.315637 0.827780 0.082803
H19   H     H_    0.587032 0.279767 0.801292 0.150604
H20   H     H_    0.993636 0.734477 0.379545 0.081139
H21   H     H_    0.403464 0.222932 0.779834 0.119075
H22   H     H_    0.172505 0.344644 0.513971 0.069515
H23   H     H_    0.736490 0.411721 0.209637 0.005577
H24   H     H_    0.404952 0.132510 0.580804 0.110498
H25   H     H_    0.099155 0.804420 0.605087 0.102073
H26   H     H_    0.718876 0.195443 0.393375 0.092187
H27   H     H_    0.415225 0.865359 0.412231 0.116255
H28   H     H_    0.644386 0.654550 0.481817 0.068398
H29   H     H_    0.310749 0.013182 0.579604 0.077008
H30   H     H_    0.198994 0.922602 0.605668 0.068182
H31   H     H_    0.618146 0.077005 0.391101 0.069632
H32   H     H_    0.791621 0.714963 0.340980 -0.062182
H33   H     H_    0.509397 0.984394 0.413284 0.085607
H34   H     H_    0.775370 0.644128 0.673985 0.008341
H35   H     H_    0.714329 0.575376 0.143094 0.107037
H36   H     H_    0.294578 0.452558 0.188321 0.110485
H37   H     H_    0.501213 0.533999 0.828092 0.105623
H38   H     H_    0.063555 0.417659 0.858880 0.105670
H39   H     H_    0.621481 0.544341 0.363105 0.071964
H40   H     H_    0.176475 0.442063 0.645807 0.096973
H41   H     H_    0.881642 0.792634 0.243495 0.133278
H42   H     H_    0.685898 0.400750 0.335236 0.015624
H43   H     H_    0.896779 0.421022 0.327477 0.067806
H44   H     H_    0.030100 0.368282 0.203312 0.015403
H45   H     H_    0.001088 0.715965 0.807164 0.118219
H46   H     H_    0.998067 0.576118 0.766397 -0.125239
H47   H     H_    0.130499 0.257579 0.298248 0.208909
H48   H     H_    0.124265 0.334142 0.359079 0.170978
H49   H     H_    0.160016 0.739035 0.201946 0.261935
H50   H     H_    0.219801 0.655639 0.163922 0.195631
H51   H     H_    0.524926 0.652906 0.589064 0.130156
H52   H     H_    0.439768 0.731806 0.590061 0.117982
H53   H     H_    0.378912 0.756379 0.836770 0.028631
H54   H     H_    0.729062 0.141387 0.631230 0.193612
H55   H     H_    0.701782 0.176981 0.719035 0.236293
H56   H     H_    0.794325 0.682059 0.807600 0.097311
H57   H     H_    0.096979 0.863117 0.384396 -0.011168
H58   H     H_    0.836243 0.759896 0.767884 0.146712
H59   H     H_    0.399057 0.327394 0.403218 0.081282
H60   H     H_    0.377720 0.200187 0.271911 0.126695
N1    N     N_R   0.494553 0.514028 0.957635 -0.239768
N2    N     N_R   0.543474 0.523181 0.027670 -0.238814
N3    N     N_R   0.306781 0.463337 0.048855 -0.234881
N4    N     N_R   0.257623 0.454173 0.978531 -0.234845
N5    N     N_3   0.177250 0.283971 0.349876 -0.529470
N6    N     N_3   0.249539 0.711199 0.172727 -0.460663
N7    N     N_3   0.430159 0.684036 0.610251 -0.398922
N8    N     N_3   0.781120 0.148124 0.684386 -0.479721
O1    O     O_2   0.117290 0.676350 0.548250 -0.407559
O2    O     O_2   0.764521 0.449085 0.751876 -0.492731
O3    O     O_3   0.833860 0.311142 0.717627 -0.599694
O4    O     O_3   0.869060 0.586940 0.542720 -0.447963
O5    O     O_3   0.438990 0.460930 0.412890 -0.493729
O6    O     O_2   0.623700 0.539890 0.674570 -0.487082
O7    O     O_3   0.409909 0.644787 0.723199 -0.654705
O8    O     O_2   0.569443 0.243966 0.525643 -0.496807
O9    O     O_3   0.497316 0.255397 0.658815 -0.601093
O10   O     O_3   0.356990 0.628630 0.417250 -0.467076
O11   O     O_2   0.243713 0.756939 0.471305 -0.505173
O12   O     O_3   0.364793 0.345668 0.296961 -0.645040
O13   O     O_3   0.995785 0.690833 0.662268 -0.640501
O14   O     O_3   0.317586 0.740416 0.337000 -0.596477
O15   O     O_2   0.186600 0.460070 0.325400 -0.483486
O16   O     O_3   0.942970 0.591450 0.378940 -0.479801
O17   O     O_2   0.013570 0.533325 0.245015 -0.491829
O18   O     O_2   0.920442 0.273209 0.158074 -0.549285
O19   O     O_2   0.998250 0.543919 0.659388 -0.576059
O20   O     O_2   0.491179 0.848793 0.827816 -0.552800
O21   O     O_2   0.134692 0.871212 0.283038 -0.565992
O22   O     O_3   0.975767 0.675102 0.274391 -0.592101
O23   O     O_2   0.693010 0.323600 0.451730 -0.471810
O24   O     O_3   0.941240 0.413050 0.457220 -0.484605
O25   O     O_3   0.453310 0.371360 0.582690 -0.490669
O26   O     O_3   0.835793 0.315391 0.336618 -0.641885
O27   O     O_3   0.371310 0.539060 0.587050 -0.426010
O28   O     O_3   0.867330 0.408540 0.621000 -0.431639
P1    P     P_3+3 0.945300 0.665790 0.568510 1.029072
P2    P     P_3+3 0.360080 0.438780 0.334620 0.965571
P3    P     P_3+3 0.904737 0.590282 0.287094 0.959563
P4    P     P_3+3 0.865000 0.334200 0.431430 0.973664
P5    P     P_3+3 0.890887 0.399928 0.711726 1.006172
P6    P     P_3+3 0.375079 0.722233 0.422762 0.948448
P7    P     P_3+3 0.437401 0.554217 0.679115 1.004485
P8    P     P_3+3 0.438367 0.277304 0.574971 0.935424

loop_
_geom_bond_atom_site_label_1
_geom_bond_atom_site_label_2
_ccdc_geom_bond_type
C42   C47   A    
C19   H25   S    
C58   H17   S    
Ba2   O25   S    
C4    H20   S    
C25   C27   A    
C13   P4    S    
Ba1   O15   S    
C17   C18   A    
C23   N7    S    
C41   N3    A    
O7    P7    S    
C56   H14   S    
N1    N2    A    
C55   H53   S    
C52   H3    S    
C51   C52   S    
C42   C43   A    
C5    C9    A    
C11   H22   S    
C58   H16   S    
C24   C25   A    
Ba2   O4    S    
H51   N7    S    
C32   C38   D    
C15   C24   A    
C26   C27   A    
C33   C35   S    
C22   C24   A    
C32   C33   S    
C10   P8    S    
C36   C37   S    
C40   C53   S    
C42   H37   S    
O6    P7    D    
C59   H18   S    
C13   C14   A    
C2    C60   A    
C9    C22   A    
Ba1   Ba2   S    
C39   C47   S    
C54   H46   S    
C51   N5    S    
C56   H15   S    
C25   H33   S    
H47   N5    S    
C30   H28   S    
C50   H45   S    
C6    C7    A    
C4    H32   S    
C57   H57   S    
C21   C22   A    
C20   H26   S    
C7    C8    A    
O22   P3    S    
Ba2   O28   S    
C49   H34   S    
C4    O22   S    
C28   O26   S    
O4    P1    S    
C52   H60   S    
O26   P4    S    
Ba2   O24   S    
C45   O3    S    
Ba2   P4    S    
Ba1   O16   S    
C23   H6    S    
C46   H38   S    
O3    P5    S    
C27   H27   S    
C34   H8    S    
C12   O14   S    
C26   C29   A    
C16   H10   S    
C4    C16   S    
O16   P3    S    
C44   C46   A    
C40   H12   S    
C32   H39   S    
C53   H44   S    
C49   C50   S    
Ba1   P1    S    
C45   H11   S    
C34   C55   S    
C59   H21   S    
O27   P7    S    
C37   C38   D    
C3    C5    A    
O15   P2    D    
C1    N6    S    
C37   H36   S    
C23   C34   S    
Ba2   O6    S    
C21   H31   S    
C58   C59   S    
O9    P8    S    
C23   O7    S    
C5    C60   A    
C35   C36   D    
H55   N8    S    
C15   C60   A    
C29   C30   A    
C51   O12   S    
C55   O20   D    
C12   H4    S    
C40   H23   S    
C33   P3    S    
C10   C11   A    
O1    P1    D    
C17   C26   A    
Ba1   O10   S    
C3    H29   S    
C1    C12   S    
O28   P5    S    
C18   C31   A    
C50   H58   S    
C46   C47   A    
C48   H40   S    
Ba2   O23   S    
C57   O21   D    
C44   P5    S    
C11   C13   A    
C28   H43   S    
O17   P3    D    
N3    N4    A    
H52   N7    S    
Ba1   O4    S    
O24   P4    S    
C34   H7    S    
C44   C48   A    
C29   P6    S    
C14   C20   A    
O5    P2    S    
C35   H35   S    
C39   N4    A    
C38   P2    S    
Ba1   P2    S    
C1    H5    S    
C49   C54   S    
O12   P2    S    
Ba1   O1    S    
C3    C6    A    
O13   P1    S    
C1    H9    S    
C49   O13   S    
O10   P6    S    
H48   N5    S    
Ba2   O5    S    
O23   P4    D    
O8    P8    D    
C30   C31   A    
C39   N1    A    
Ba1   O27   S    
O2    P5    D    
C45   H13   S    
C36   C41   S    
C59   H19   S    
C45   C56   S    
C2    C19   A    
C53   O18   D    
C8    C14   A    
C52   H2    S    
C43   C48   A    
C56   N8    S    
Ba2   O27   S    
C12   H1    S    
C15   C17   A    
C6    H24   S    
C16   H41   S    
Ba1   O24   S    
C7    C10   A    
H50   N6    S    
C8    C9    A    
C58   O9    S    
C16   C57   S    
H54   N8    S    
C18   C19   A    
O11   P6    D    
C28   H42   S    
H49   N6    S    
C20   C21   A    
C28   C40   S    
C51   H59   S    
O25   P8    S    
C54   O19   D    
Ba1   O5    S    
C43   P7    S    
C41   N2    A    
O14   P6    S    
C31   P1    S    
C2    H30   S    
C50   H56   S    
