data_mof_unit_22648.cif
_audit_creation_date              2012-12-11T15:24:02-0500
_audit_creation_method            fapswitch 2.2
_symmetry_space_group_name_H-M    P1
_symmetry_Int_Tables_number       1
_space_group_crystal_system       triclinic
_cell_length_a                    17.462854
_cell_length_b                    24.609764
_cell_length_c                    14.9928
_cell_angle_alpha                 90.195006
_cell_angle_beta                  125.807111
_cell_angle_gamma                 89.602024
_cell_volume                      5225.29661061

loop_
_atom_site_label
_atom_site_type_symbol
_atom_type_description
_atom_site_fract_x
_atom_site_fract_y
_atom_site_fract_z
_atom_type_partial_charge
C1    C     C_R   0.347014 0.350401 0.909118 -0.105749
C2    C     C_R   0.651507 0.349143 0.089879 -0.114160
C3    C     C_R   0.844092 0.851449 0.908799 -0.095375
C4    C     C_R   0.150454 0.848864 0.089865 -0.120285
C5    C     C_R   0.314975 0.641960 0.993592 0.179720
C6    C     C_R   0.679082 0.644874 0.001544 0.181637
C7    C     C_R   0.811388 0.136604 0.995519 0.175932
C8    C     C_R   0.166806 0.156034 0.002360 0.169002
C9    C     C_R   0.462630 0.498950 0.288488 0.057582
C10   C     C_R   0.436303 0.499216 0.634450 0.053316
C11   C     C_R   0.061770 0.998951 0.364915 0.054007
C12   C     C_R   0.042413 0.998365 0.716991 0.059458
C13   C     C_R   0.202648 0.498427 0.631893 0.130216
C14   C     C_R   0.825140 0.497537 0.311973 0.135584
C15   C     C_R   0.702645 0.998267 0.631807 0.127750
C16   C     C_R   0.325403 0.997957 0.305545 0.138145
C17   C     C_2   0.977280 0.457471 0.379261 -0.093005
C18   C     C_2   0.078872 0.453944 0.463841 -0.104733
C19   C     C_2   0.478098 0.957232 0.376013 -0.092481
C20   C     C_2   0.579224 0.953658 0.463277 -0.105355
C21   C     C_2   0.926708 0.497275 0.383652 -0.180677
C22   C     C_2   0.127879 0.498972 0.514902 -0.183444
C23   C     C_2   0.427030 0.998188 0.375922 -0.178371
C24   C     C_2   0.628437 0.998645 0.514561 -0.173297
C25   C     C_R   0.228497 0.724360 0.915202 -0.210365
C26   C     C_R   0.743687 0.733326 0.062847 -0.212628
C27   C     C_R   0.720266 0.217982 0.911801 -0.207769
C28   C     C_R   0.237681 0.242612 0.061773 -0.212608
C29   C     C_R   0.675701 0.262953 0.913670 -0.204618
C30   C     C_R   0.290582 0.282977 0.062537 -0.206757
C31   C     C_R   0.181894 0.768038 0.917524 -0.207618
C32   C     C_R   0.791113 0.776906 0.063263 -0.206489
C33   C     C_R   0.657055 0.267388 0.991761 -0.061681
C34   C     C_R   0.330186 0.275815 0.005224 -0.086869
C35   C     C_R   0.157539 0.768895 0.990920 -0.068689
C36   C     C_R   0.828837 0.774604 0.003579 -0.079852
C37   C     C_R   0.676037 0.224163 0.063537 0.417567
C38   C     C_R   0.320580 0.227929 0.949126 0.418721
C39   C     C_R   0.173491 0.724082 0.057657 0.423758
C40   C     C_R   0.822871 0.728059 0.945396 0.417993
C41   C     C_R   0.221554 0.679252 0.055363 0.384952
C42   C     C_R   0.774457 0.683342 0.945186 0.387928
C43   C     C_R   0.722943 0.178092 0.062476 0.385219
C44   C     C_R   0.266918 0.186605 0.948727 0.384636
C45   C     C_R   0.403944 0.630569 0.087495 -0.102445
C46   C     C_R   0.593913 0.628355 0.908550 -0.089409
C47   C     C_R   0.900729 0.124564 0.089476 -0.098875
C48   C     C_R   0.084433 0.137723 0.909615 -0.088843
C49   C     C_R   0.251420 0.681089 0.986468 -0.082085
C50   C     C_R   0.734707 0.687055 0.003604 -0.096224
C51   C     C_R   0.747640 0.176499 0.988511 -0.081767
C52   C     C_R   0.224954 0.195406 0.003868 -0.089852
C53   C     C_R   0.398174 0.548381 0.469891 -0.139117
C54   C     C_R   0.406313 0.548284 0.383777 -0.061634
C55   C     C_R   0.098270 0.047156 0.621287 -0.073585
C56   C     C_R   0.102361 0.047384 0.532031 -0.143152
C57   C     C_R   0.420530 0.499008 0.348277 0.132866
C58   C     C_R   0.404774 0.499176 0.520673 0.116726
C59   C     C_R   0.093163 0.998402 0.478831 0.119745
C60   C     C_R   0.084070 0.998008 0.656520 0.134371
C61   C     C_R   0.405906 0.449855 0.382932 -0.155795
C62   C     C_R   0.398103 0.449933 0.469420 -0.153935
C63   C     C_R   0.099745 0.948964 0.529214 -0.155217
C64   C     C_R   0.095403 0.948780 0.618283 -0.157058
C65   C     C_R   0.486751 0.453450 0.255030 -0.123532
C66   C     C_R   0.452803 0.453883 0.697803 -0.118774
C67   C     C_R   0.046107 0.953747 0.301449 -0.119544
C68   C     C_R   0.015852 0.953119 0.747665 -0.127157
C69   C     C_R   0.247409 0.544026 0.694506 -0.144660
C70   C     C_R   0.769167 0.543686 0.277343 -0.117468
C71   C     C_R   0.747494 0.043921 0.694301 -0.144171
C72   C     C_R   0.269399 0.044024 0.272120 -0.118238
C73   C     C_R   0.492995 0.544410 0.262944 -0.081729
C74   C     C_R   0.452366 0.544651 0.697752 -0.090200
C75   C     C_R   0.046752 0.044508 0.302264 -0.087873
C76   C     C_R   0.011999 0.044176 0.742575 -0.073626
C77   C     C_R   0.247959 0.453460 0.697308 -0.107957
C78   C     C_R   0.767636 0.452495 0.268354 -0.118487
C79   C     C_R   0.747977 0.953376 0.697387 -0.107808
C80   C     C_R   0.267940 0.952716 0.265052 -0.123683
C81   C     C_R   0.310568 0.624563 0.903793 -0.145916
C82   C     C_R   0.684450 0.629636 0.093240 -0.147182
C83   C     C_R   0.808774 0.121418 0.905213 -0.149821
C84   C     C_R   0.177087 0.136509 0.094104 -0.136969
C85   C     C_R   0.441638 0.349902 0.093038 -0.129172
C86   C     C_R   0.558991 0.349927 0.906350 -0.115456
C87   C     C_R   0.936641 0.851622 0.093370 -0.106687
C88   C     C_R   0.056515 0.849206 0.906623 -0.132220
C89   C     C_R   0.376129 0.321205 0.001676 0.186702
C90   C     C_R   0.622938 0.319460 0.997230 0.160754
C91   C     C_R   0.869954 0.823140 0.001290 0.160735
C92   C     C_R   0.120369 0.819077 0.997132 0.181637
H1    H     H_    0.299805 0.337881 0.824114 0.123416
H2    H     H_    0.695348 0.335519 0.174352 0.138877
H3    H     H_    0.798250 0.838512 0.823933 0.126979
H4    H     H_    0.194850 0.835233 0.174352 0.132877
H5    H     H_    0.959636 0.530505 0.442010 0.138084
H6    H     H_    0.101007 0.538550 0.476535 0.145655
H7    H     H_    0.459447 0.032450 0.431595 0.134782
H8    H     H_    0.602909 0.038181 0.475510 0.145896
H9    H     H_    0.252098 0.726163 0.862570 0.145221
H10   H     H_    0.711306 0.736449 0.106156 0.149005
H11   H     H_    0.739596 0.217995 0.855067 0.145795
H12   H     H_    0.204622 0.248663 0.103817 0.147621
H13   H     H_    0.661270 0.295951 0.857958 0.147169
H14   H     H_    0.298114 0.320613 0.104840 0.149326
H15   H     H_    0.169732 0.802655 0.866037 0.143242
H16   H     H_    0.795548 0.813282 0.107140 0.153351
H17   H     H_    0.396827 0.587224 0.502719 0.121972
H18   H     H_    0.410346 0.587040 0.353223 0.148721
H19   H     H_    0.097029 0.085868 0.654587 0.151249
H20   H     H_    0.103574 0.086242 0.499585 0.122880
H21   H     H_    0.409526 0.411060 0.351595 0.110402
H22   H     H_    0.396716 0.411169 0.502024 0.111261
H23   H     H_    0.098879 0.910216 0.494615 0.112967
H24   H     H_    0.091508 0.909972 0.648865 0.110227
H25   H     H_    0.433798 0.646424 0.168577 0.108760
H26   H     H_    0.564407 0.637501 0.823676 0.123029
H27   H     H_    0.928378 0.133553 0.173865 0.133966
H28   H     H_    0.049939 0.152721 0.826889 0.102989
H29   H     H_    0.477232 0.411344 0.265460 0.091085
H30   H     H_    0.436410 0.412115 0.671091 0.086288
H31   H     H_    0.062328 0.911862 0.327675 0.089982
H32   H     H_    0.025655 0.910891 0.737334 0.091077
H33   H     H_    0.237607 0.585018 0.663520 0.096667
H34   H     H_    0.792777 0.584508 0.306344 0.096890
H35   H     H_    0.737712 0.084887 0.663192 0.101546
H36   H     H_    0.293349 0.085109 0.297760 0.096722
H37   H     H_    0.496062 0.585425 0.289405 0.092308
H38   H     H_    0.434829 0.586344 0.670505 0.083672
H39   H     H_    0.064005 0.086083 0.330109 0.086004
H40   H     H_    0.013203 0.085422 0.720599 0.097184
H41   H     H_    0.239900 0.411734 0.670599 0.087313
H42   H     H_    0.788414 0.410206 0.284317 0.097909
H43   H     H_    0.740025 0.911633 0.670795 0.091041
H44   H     H_    0.289066 0.910479 0.280633 0.096230
H45   H     H_    0.253705 0.630262 0.817849 0.112264
H46   H     H_    0.736217 0.642486 0.176655 0.104543
H47   H     H_    0.751182 0.126600 0.819423 0.112385
H48   H     H_    0.227254 0.149352 0.178040 0.100087
H49   H     H_    0.483459 0.336178 0.177569 0.123218
H50   H     H_    0.515724 0.336832 0.821414 0.111596
H51   H     H_    0.976797 0.838491 0.178233 0.116685
H52   H     H_    0.012308 0.835568 0.822082 0.119061
H53   H     H_    0.942774 0.423686 0.322586 0.128201
H54   H     H_    0.107148 0.413856 0.497270 0.122282
H55   H     H_    0.443915 0.922463 0.322132 0.127087
H56   H     H_    0.606624 0.913621 0.497868 0.122943
N1    N     N_R   0.395440 0.396300 0.944370 -0.050809
N2    N     N_R   0.604560 0.396300 0.055630 -0.049137
N3    N     N_R   0.895440 0.896300 0.944370 -0.050780
N4    N     N_R   0.104560 0.896300 0.055630 -0.048466
N5    N     N_R   0.449890 0.602500 0.055780 -0.052710
N6    N     N_R   0.550110 0.602500 0.944220 -0.056998
N7    N     N_R   0.949890 0.102500 0.055780 -0.057703
N8    N     N_R   0.050110 0.102500 0.944220 -0.050362
N9    N     N_R   0.525090 0.470990 0.205640 -0.043146
N10   N     N_R   0.474910 0.470990 0.794360 -0.040461
N11   N     N_R   0.025090 0.970990 0.205640 -0.041234
N12   N     N_R   0.974910 0.970990 0.794360 -0.043854
N13   N     N_R   0.320240 0.527820 0.794510 -0.040663
N14   N     N_R   0.679760 0.527820 0.205490 -0.044520
N15   N     N_R   0.820240 0.027820 0.794510 -0.041598
N16   N     N_R   0.179760 0.027820 0.205490 -0.045879
N17   N     N_R   0.524580 0.527810 0.205160 -0.046085
N18   N     N_R   0.475420 0.527810 0.794840 -0.040011
N19   N     N_R   0.024580 0.027810 0.205160 -0.042195
N20   N     N_R   0.975420 0.027810 0.794840 -0.047130
N21   N     N_R   0.320750 0.470990 0.794990 -0.045318
N22   N     N_R   0.679250 0.470990 0.205010 -0.047000
N23   N     N_R   0.820750 0.970990 0.794990 -0.045927
N24   N     N_R   0.179250 0.970990 0.205010 -0.047305
N25   N     N_R   0.393580 0.602500 0.942610 -0.051417
N26   N     N_R   0.606420 0.602500 0.057390 -0.049783
N27   N     N_R   0.893580 0.102500 0.942610 -0.051526
N28   N     N_R   0.106420 0.102500 0.057390 -0.047336
N29   N     N_R   0.451750 0.396300 0.057540 -0.049553
N30   N     N_R   0.548250 0.396300 0.942460 -0.047516
N31   N     N_R   0.951750 0.896300 0.057540 -0.049072
N32   N     N_R   0.048250 0.896300 0.942460 -0.047830
Ni1   Ni    Ni4+2 0.435420 0.434250 0.870220 0.226329
Ni2   Ni    Ni4+2 0.564580 0.434250 0.129780 0.237607
Ni3   Ni    Ni4+2 0.935420 0.934250 0.870220 0.231443
Ni4   Ni    Ni4+2 0.064580 0.934250 0.129780 0.232274
Ni5   Ni    Ni4+2 0.563400 0.564580 0.128670 0.224151
Ni6   Ni    Ni4+2 0.436600 0.564580 0.871330 0.215527
Ni7   Ni    Ni4+2 0.063400 0.064580 0.128670 0.218125
Ni8   Ni    Ni4+2 0.936600 0.064580 0.871330 0.221092
Cl1   Cl    Cl    0.639068 0.226550 0.150858 -0.571031
Cl2   Cl    Cl    0.376939 0.219522 0.883081 -0.565784
Cl3   Cl    Cl    0.132188 0.723468 0.140723 -0.571826
Cl4   Cl    Cl    0.877823 0.725159 0.877023 -0.565355
Cl5   Cl    Cl    0.243028 0.621342 0.136299 -0.610073
Cl6   Cl    Cl    0.765168 0.623254 0.874654 -0.563102
Cl7   Cl    Cl    0.749870 0.123095 0.152042 -0.573063
Cl8   Cl    Cl    0.255072 0.124093 0.883349 -0.607441

loop_
_geom_bond_atom_site_label_1
_geom_bond_atom_site_label_2
_ccdc_geom_bond_type
C25   C31   A    
C23   H7    S    
C55   C56   A    
C2    N2    A    
C6    C82   A    
C83   N27   A    
C27   C29   A    
C28   C52   A    
C7    C83   A    
C19   C20   S    
C16   C72   A    
C86   N30   A    
N16   Ni7   S    
C29   H13   S    
C68   H32   S    
C83   H47   S    
C39   C41   A    
C53   C54   A    
C26   C32   A    
C12   C68   A    
C54   H18   S    
C70   H34   S    
C10   C66   A    
C9    C73   A    
C72   H36   S    
N20   Ni8   S    
C32   C36   A    
C14   C21   S    
N23   Ni3   S    
C10   C58   S    
C69   N13   A    
C62   H22   S    
C87   C91   A    
C26   C50   A    
N26   Ni5   S    
C24   H8    S    
N7    N27   A    
N29   Ni2   S    
C29   C33   A    
C78   N22   A    
C14   C78   A    
C39   Cl3   S    
C46   H26   S    
C3    C91   A    
C79   N23   A    
C42   Cl6   S    
C28   H12   S    
C41   Cl5   S    
N27   Ni8   S    
C4    H4    S    
C15   C79   A    
C82   N26   A    
C43   Cl7   S    
C11   C67   A    
C38   Cl2   S    
N14   N22   A    
C76   H40   S    
C66   H30   S    
C1    N1    A    
C65   H29   S    
N11   Ni4   S    
N4    Ni4   S    
N15   N23   A    
C8    C52   S    
N12   Ni3   S    
N32   Ni3   S    
N2    N30   A    
C63   H23   S    
C35   C92   S    
C44   C52   A    
C47   H27   S    
C48   N8    A    
C69   H33   S    
C34   C38   A    
C55   C60   A    
C30   H14   S    
N1    Ni1   S    
C14   C70   A    
C5    C49   S    
C56   H20   S    
C77   H41   S    
C11   C59   S    
C70   N14   A    
C41   C49   A    
N5    Ni5   S    
C75   H39   S    
C88   N32   A    
C9    C65   A    
N13   N21   A    
N8    Ni8   S    
C46   N6    A    
C13   C77   A    
N25   Ni6   S    
C44   Cl8   S    
N17   Ni5   S    
C37   Cl1   S    
C30   C34   A    
C68   N12   A    
C88   C92   A    
C2    H2    S    
C48   H28   S    
C86   C90   A    
C85   H49   S    
C22   H6    S    
N7    Ni7   S    
C85   C89   A    
C19   C23   D    
C71   H35   S    
C8    C84   A    
C81   H45   S    
C5    C45   A    
C64   H24   S    
C19   H55   S    
N15   Ni8   S    
C16   C80   A    
C81   N25   A    
N4    N32   A    
C35   C39   A    
C8    C48   A    
C38   C44   A    
N13   Ni6   S    
C5    C81   A    
N24   Ni4   S    
N3    N31   A    
C40   Cl4   S    
C85   N29   A    
C36   C40   A    
N5    N25   A    
N19   Ni7   S    
N1    N29   A    
C17   C18   S    
C72   N16   A    
C6    C50   S    
C4    N4    A    
C57   C61   A    
C78   H42   S    
C66   N10   A    
N21   Ni1   S    
C71   N15   A    
C58   C62   A    
C42   C50   A    
C36   C91   S    
C1    H1    S    
C15   C24   S    
C73   N17   A    
C16   C23   S    
C74   H38   S    
C61   H21   S    
C17   H53   S    
C31   C35   A    
C37   C43   A    
N16   N24   A    
C45   N5    A    
N9    Ni2   S    
C80   N24   A    
N9    N17   A    
C74   N18   A    
N2    Ni2   S    
C79   H43   S    
C86   H50   S    
N28   Ni7   S    
C33   C37   A    
N31   Ni4   S    
C53   H17   S    
C77   N21   A    
N8    N28   A    
C1    C89   A    
C6    C46   A    
C55   H19   S    
C18   C22   D    
C31   H15   S    
C3    N3    A    
C18   H54   S    
C67   H31   S    
N14   Ni5   S    
C3    H3    S    
C53   C58   A    
N3    Ni3   S    
C65   N9    A    
C15   C71   A    
C27   H11   S    
C59   C63   A    
C80   H44   S    
C56   C59   A    
C60   C64   A    
C13   C69   A    
C12   C76   A    
C34   C89   S    
C7    C51   S    
C28   C30   A    
C82   H46   S    
C11   C75   A    
C33   C90   S    
C26   H10   S    
C10   C74   A    
C25   H9    S    
C20   H56   S    
C47   N7    A    
C43   C51   A    
C73   H37   S    
N6    Ni6   S    
C40   C42   A    
C75   N19   A    
C27   C51   A    
N11   N19   A    
C13   C22   S    
C76   N20   A    
C9    C57   S    
N12   N20   A    
C61   C62   A    
C20   C24   D    
N10   Ni1   S    
C25   C49   A    
C45   H25   S    
N30   Ni1   S    
C21   H5    S    
N18   Ni6   S    
C87   N31   A    
C63   C64   A    
C12   C60   S    
N10   N18   A    
N6    N26   A    
C84   H48   S    
C2    C90   A    
C32   H16   S    
C67   N11   A    
C87   H51   S    
C84   N28   A    
C88   H52   S    
N22   Ni2   S    
C7    C47   A    
C4    C92   A    
C54   C57   A    
C17   C21   D    
