data_mof_unit_55283.cif
_audit_creation_date              2012-12-10T18:32:00-0500
_audit_creation_method            fapswitch 2.2
_symmetry_space_group_name_H-M    P1
_symmetry_Int_Tables_number       1
_space_group_crystal_system       triclinic
_cell_length_a                    10.910479
_cell_length_b                    15.089697
_cell_length_c                    15.726789
_cell_angle_alpha                 83.448237
_cell_angle_beta                  93.131764
_cell_angle_gamma                 106.133072
_cell_volume                      2470.27082193

loop_
_atom_site_label
_atom_site_type_symbol
_atom_type_description
_atom_site_fract_x
_atom_site_fract_y
_atom_site_fract_z
_atom_type_partial_charge
C1    C     C_R   0.482842 0.442235 0.662288 0.969976
C2    C     C_R   0.529823 0.436055 0.903594 -0.106087
C3    C     C_R   0.483892 0.339983 0.930260 -0.101056
C4    C     C_R   0.743065 0.500760 0.503148 1.028937
C5    C     C_R   0.580583 0.498828 0.965147 -0.021709
C6    C     C_R   0.549177 0.472901 0.050861 0.035585
C7    C     C_R   0.481039 0.380546 0.074951 -0.229753
C8    C     C_R   0.456797 0.312476 0.017727 0.511443
C9    C     C_R   0.667449 0.585753 0.944530 0.077906
C10   C     C_R   0.670764 0.659114 0.993134 0.388551
C11   C     C_R   0.617665 0.637346 0.075351 -0.029069
C12   C     C_3   0.119931 0.492757 0.504788 -0.330504
C13   C     C_R   0.579233 0.542269 0.108190 -0.053287
C14   C     C_R   0.611693 0.705288 0.129202 0.280554
C15   C     C_R   0.576502 0.677658 0.214365 -0.272841
C16   C     C_R   0.526828 0.556530 0.338982 0.937785
C17   C     C_R   0.576605 0.520211 0.196853 0.170047
C18   C     C_R   0.699452 0.852115 0.636129 0.308854
C19   C     C_R   0.663304 0.760546 0.615389 0.265107
C20   C     C_R   0.511039 0.792431 0.513888 -0.052937
C21   C     C_R   0.546734 0.888173 0.529159 -0.075709
C22   C     C_R   0.640287 0.916825 0.594483 -0.014976
C23   C     C_3   0.085142 0.549347 0.420007 -0.095468
C24   C     C_R   0.486964 0.954538 0.485588 0.036459
C25   C     C_R   0.510711 0.044702 0.515116 0.067332
C26   C     C_R   0.598996 0.067598 0.582469 -0.241079
C27   C     C_R   0.665531 0.007332 0.620273 0.259409
C28   C     C_R   0.257023 0.496735 0.501996 0.991013
C29   C     C_R   0.402822 0.934208 0.414312 0.081540
C30   C     C_R   0.325058 0.991248 0.387217 0.175659
C31   C     C_R   0.361247 0.084045 0.406208 -0.105143
C32   C     C_R   0.450537 0.111465 0.473336 -0.055732
C33   C     C_R   0.317757 0.151659 0.354609 0.356426
C34   C     C_3   0.101263 0.548761 0.582051 0.386617
C35   C     C_R   0.350668 0.242635 0.375998 0.300748
C36   C     C_R   0.476756 0.205109 0.494539 -0.028586
C37   C     C_3   0.886611 0.395578 0.500331 0.661475
C38   C     C_3   0.027488 0.389351 0.513959 0.105830
C39   C     C_3   0.948908 0.563276 0.423560 0.641416
C40   C     C_3   0.953520 0.536472 0.590857 0.427718
C41   C     C_3   0.880704 0.500505 0.505274 -0.281781
C42   C     C_R   0.481826 0.406071 0.754515 -0.229178
C43   C     C_R   0.560231 0.585768 0.249094 -0.140388
C44   C     C_R   0.458555 0.276631 0.867447 0.250692
C45   C     C_R   0.457629 0.309569 0.780450 0.292674
C46   C     C_R   0.510543 0.468351 0.817471 0.413739
H1    H     H_    0.154220 0.619474 0.414751 0.249275
H2    H     H_    0.384219 0.214802 0.108053 0.357524
H3    H     H_    0.762122 0.751864 0.906028 0.359425
H4    H     H_    0.346146 0.250331 0.693687 0.366380
H5    H     H_    0.469115 0.579291 0.844073 0.344308
H6    H     H_    0.798310 0.270246 0.549386 0.374785
H7    H     H_    0.761574 0.843148 0.751832 0.353524
H8    H     H_    0.301282 0.097680 0.247854 0.356069
H9    H     H_    0.907874 0.587939 0.301576 0.382495
H10   H     H_    0.968100 0.672884 0.565524 0.411085
H11   H     H_    0.567577 0.728857 0.254498 0.213331
H12   H     H_    0.444874 0.360415 0.138270 0.178645
H13   H     H_    0.538786 0.230673 0.546976 0.190975
H14   H     H_    0.428610 0.763796 0.475059 0.201037
H15   H     H_    0.619636 0.133345 0.607936 0.175826
H16   H     H_    0.896383 0.389756 0.375209 0.393677
H17   H     H_    0.171149 0.678168 0.609997 0.381087
H18   H     H_    0.877727 0.670022 0.415934 0.362737
I1    I     I_    0.655923 0.408266 0.248404 -0.192119
I2    I     I_    0.430403 0.853593 0.316901 -0.280841
I3    I     I_    0.051935 0.283853 0.438043 -0.159600
I4    I     I_    0.130810 0.514092 0.298662 -0.222427
I5    I     I_    0.867388 0.449410 0.705146 -0.109257
I6    I     I_    0.201624 0.522085 0.704014 -0.209409
I7    I     I_    0.429599 0.129923 0.895523 -0.034821
I8    I     I_    0.845235 0.582041 0.899286 -0.129603
I9    I     I_    0.638486 0.848733 0.088480 -0.091753
I10   I     I_    0.793339 0.065508 0.720650 -0.103282
I11   I     I_    0.287770 0.334376 0.282024 -0.159315
I12   I     I_    0.142604 0.927364 0.330771 -0.114850
I13   I     I_    0.740805 0.669614 0.694660 -0.114417
I14   I     I_    0.061157 0.307686 0.631929 -0.210824
N1    N     N_R   0.573860 0.731700 0.552730 -0.155014
N2    N     N_R   0.426060 0.268290 0.447230 -0.158821
O1    O     O_R   0.462770 0.383110 0.605620 -0.621605
O2    O     O_3   0.162501 0.643753 0.558878 -0.737560
O3    O     O_3   0.962482 0.658376 0.427855 -0.761176
O4    O     O_3   0.394008 0.221762 0.045119 -0.705651
O5    O     O_3   0.742194 0.748037 0.967367 -0.694022
O6    O     O_3   0.427728 0.245141 0.721999 -0.705006
O7    O     O_3   0.503452 0.558053 0.795423 -0.711061
O8    O     O_3   0.810124 0.334699 0.563444 -0.720959
O9    O     O_3   0.794548 0.877910 0.696629 -0.688645
O10   O     O_3   0.255978 0.133907 0.276915 -0.697288
O11   O     O_3   0.876856 0.538099 0.348669 -0.758926
O12   O     O_R   0.510160 0.531900 0.639510 -0.536820
O13   O     O_3   0.933338 0.620396 0.608259 -0.701577
O14   O     O_R   0.661510 0.425600 0.483070 -0.532808
O15   O     O_R   0.708900 0.574390 0.516960 -0.620431
O16   O     O_R   0.489840 0.468100 0.360490 -0.589025
O17   O     O_R   0.537230 0.616890 0.394380 -0.630726
O18   O     O_R   0.291100 0.425610 0.483040 -0.591521
O19   O     O_R   0.338490 0.574400 0.516930 -0.580780
O20   O     O_3   0.833403 0.365705 0.420734 -0.672242
Zn1   Zn    Zn3+2 0.468350 0.400660 0.477370 1.054896
Zn2   Zn    Zn3+2 0.531650 0.599340 0.522630 1.038894

loop_
_geom_bond_atom_site_label_1
_geom_bond_atom_site_label_2
_ccdc_geom_bond_type
C10   O5    S    
C37   O8    S    
C9    I8    S    
C40   O13   S    
C36   H13   S    
C7    C8    A    
C39   C41   S    
O1    Zn1   S    
C2    C46   A    
C12   C23   S    
C35   I11   S    
C26   C27   A    
C29   C30   A    
C12   C28   S    
C34   C40   S    
C32   C36   A    
C26   H15   S    
H8    O10   S    
C30   C31   A    
C11   C14   A    
C16   O17   A    
C4    C41   S    
C1    O1    A    
C35   N2    A    
C44   I7    S    
C18   C19   A    
C42   C46   A    
C19   I13   S    
C24   C29   A    
H9    O11   S    
O14   Zn1   S    
C31   C33   A    
N1    Zn2   S    
C20   H14   S    
C27   I10   S    
C9    C10   A    
C34   I6    S    
C7    H12   S    
O17   Zn2   S    
O15   Zn2   S    
O12   Zn2   S    
C25   C32   A    
C8    O4    S    
C21   C22   A    
C37   C41   S    
C15   H11   S    
C39   O11   S    
H10   O13   S    
C3    C44   A    
C16   O16   A    
C23   H1    S    
C40   I5    S    
H17   O2    S    
C14   I9    S    
H3    O5    S    
H6    O8    S    
C24   C25   A    
C3    C8    A    
C36   N2    A    
H5    O7    S    
C38   I14   S    
C25   C26   A    
H2    O4    S    
C42   C45   A    
C23   I4    S    
C17   C43   A    
H18   O3    S    
C5    C9    A    
C37   C38   S    
C4    O15   A    
C30   I12   S    
C31   C32   A    
C38   I3    S    
C19   N1    A    
C16   C43   S    
H16   O20   S    
C28   O19   A    
C40   C41   S    
C1    O12   A    
C22   C27   A    
H7    O9    S    
C4    O14   A    
C2    C5    A    
C12   C34   S    
C44   C45   A    
C46   O7    S    
C28   O18   A    
C20   N1    A    
C18   C22   A    
C18   O9    S    
C6    C7    A    
O18   Zn1   S    
C17   I1    S    
C13   C17   A    
N2    Zn1   S    
C2    C3    A    
C15   C43   A    
C33   O10   S    
C6    C13   A    
C11   C13   A    
C5    C6    A    
C23   C39   S    
C33   C35   A    
C45   O6    S    
C12   C38   S    
C10   C11   A    
H4    O6    S    
C39   O3    S    
C29   I2    S    
C1    C42   S    
O19   Zn2   S    
C20   C21   A    
C21   C24   A    
C14   C15   A    
C34   O2    S    
O16   Zn1   S    
C37   O20   S    
