data_mof_unit_59373.cif
_audit_creation_date              2012-12-10T17:17:54-0500
_audit_creation_method            fapswitch 2.2
_symmetry_space_group_name_H-M    P1
_symmetry_Int_Tables_number       1
_space_group_crystal_system       triclinic
_cell_length_a                    14.341109
_cell_length_b                    16.475175
_cell_length_c                    9.623021
_cell_angle_alpha                 91.797974
_cell_angle_beta                  89.755169
_cell_angle_gamma                 89.653991
_cell_volume                      2272.46964006

loop_
_atom_site_label
_atom_site_type_symbol
_atom_type_description
_atom_site_fract_x
_atom_site_fract_y
_atom_site_fract_z
_atom_type_partial_charge
C1    C     C_R   0.379363 0.882821 0.498719 0.791156
C2    C     C_R   0.378770 0.116477 0.500936 0.806390
C3    C     C_R   0.879365 0.382819 0.498719 0.791134
C4    C     C_R   0.878770 0.616477 0.500936 0.806373
C5    C     C_R   0.328971 0.249838 0.425669 -0.223864
C6    C     C_R   0.326034 0.748424 0.415574 -0.198711
C7    C     C_R   0.828977 0.749844 0.425695 -0.223864
C8    C     C_R   0.826053 0.248411 0.415601 -0.198786
C9    C     C_R   0.759439 0.807836 0.408602 0.210472
C10   C     C_R   0.766945 0.181633 0.422592 0.283039
C11   C     C_R   0.259434 0.307831 0.408585 0.210477
C12   C     C_R   0.266921 0.681650 0.422563 0.282992
C13   C     C_R   0.682354 0.810723 0.501306 -0.093971
C14   C     C_R   0.689959 0.183825 0.514824 -0.067395
C15   C     C_R   0.182360 0.310727 0.501311 -0.093992
C16   C     C_R   0.189951 0.683831 0.514818 -0.067453
C17   C     C_R   0.670390 0.997015 0.141366 -0.126232
C18   C     C_R   0.170390 0.497012 0.141365 -0.126286
C19   C     C_R   0.754085 0.991705 0.067258 -0.232716
C20   C     C_R   0.254084 0.491697 0.067255 -0.232832
C21   C     C_R   0.753355 0.985690 0.923759 0.434330
C22   C     C_R   0.253354 0.485683 0.923757 0.434356
C23   C     C_R   0.669750 0.991033 0.853198 -0.058461
C24   C     C_R   0.169750 0.491032 0.853196 -0.058411
C25   C     C_R   0.583552 0.995168 0.924155 0.148805
C26   C     C_R   0.083552 0.495169 0.924154 0.148836
C27   C     C_R   0.583708 0.997152 0.073445 0.119389
C28   C     C_R   0.083708 0.497152 0.073445 0.119435
C29   C     C_R   0.419683 0.003380 0.075318 0.431426
C30   C     C_R   0.919683 0.503380 0.075318 0.431428
C31   C     C_R   0.619805 0.118407 0.503310 0.785023
C32   C     C_R   0.617347 0.879871 0.499337 0.792363
C33   C     C_R   0.119804 0.618407 0.503310 0.785101
C34   C     C_R   0.117349 0.379873 0.499338 0.792401
C35   C     C_R   0.420067 0.007093 0.928141 0.457557
C36   C     C_R   0.920066 0.507091 0.928141 0.457554
C37   C     C_R   0.177396 0.096123 0.559651 -0.180914
C38   C     C_R   0.205529 0.894888 0.656118 -0.206091
C39   C     C_R   0.677395 0.596111 0.559597 -0.180941
C40   C     C_R   0.705524 0.394888 0.656099 -0.206089
C41   C     C_R   0.086642 0.088648 0.610362 -0.260139
C42   C     C_R   0.132328 0.898595 0.751003 -0.171403
C43   C     C_R   0.586634 0.588626 0.610275 -0.260200
C44   C     C_R   0.632321 0.398595 0.750981 -0.171390
C45   C     C_R   0.541744 0.656063 0.671471 0.400786
C46   C     C_R   0.590614 0.327518 0.791345 0.420655
C47   C     C_R   0.041769 0.156091 0.671571 0.400748
C48   C     C_R   0.090616 0.827518 0.791357 0.420649
C49   C     C_R   0.583790 0.732392 0.668313 0.316693
C50   C     C_R   0.620035 0.253068 0.731060 0.328899
C51   C     C_R   0.083823 0.232417 0.668384 0.316738
C52   C     C_R   0.120034 0.753068 0.731066 0.328892
C53   C     C_R   0.664850 0.742118 0.584823 -0.072512
C54   C     C_R   0.679144 0.251410 0.611020 -0.074949
C55   C     C_R   0.164868 0.242131 0.584857 -0.072505
C56   C     C_R   0.179141 0.751413 0.611024 -0.074916
C57   C     C_R   0.219891 0.172369 0.556587 0.086928
C58   C     C_R   0.231682 0.821908 0.587742 0.057293
C59   C     C_R   0.719883 0.672361 0.556556 0.086933
C60   C     C_R   0.731682 0.321906 0.587733 0.057279
C61   C     C_R   0.309769 0.181522 0.501191 -0.064524
C62   C     C_R   0.309213 0.818290 0.497076 -0.062384
C63   C     C_R   0.809767 0.681521 0.501192 -0.064513
C64   C     C_R   0.809219 0.318284 0.497079 -0.062374
Cu1   Cu    Cu3+1 0.499990 0.000000 0.640660 1.057670
Cu2   Cu    Cu3+1 0.999990 0.500000 0.640660 1.057678
Cu3   Cu    Cu3+1 0.500010 0.000000 0.359340 1.017219
Cu4   Cu    Cu3+1 0.000010 0.500000 0.359340 1.017239
H1    H     H_    0.392208 0.251998 0.363669 0.169619
H2    H     H_    0.387469 0.744626 0.349530 0.153708
H3    H     H_    0.892220 0.752010 0.363714 0.169600
H4    H     H_    0.887496 0.244613 0.349574 0.153686
H5    H     H_    0.675873 0.995954 0.743444 0.196502
H6    H     H_    0.175872 0.495955 0.743443 0.196511
H7    H     H_    0.210507 0.044890 0.507122 0.152579
H8    H     H_    0.242167 0.949265 0.635887 0.195137
H9    H     H_    0.710519 0.544882 0.507073 0.152597
H10   H     H_    0.742161 0.449265 0.635867 0.195136
H11   H     H_    0.052451 0.030298 0.605680 0.193651
H12   H     H_    0.113844 0.955864 0.802391 0.240629
H13   H     H_    0.552450 0.530273 0.605572 0.193676
H14   H     H_    0.613833 0.455865 0.802361 0.240633
H15   H     H_    0.676001 0.998154 0.251696 0.241800
H16   H     H_    0.176002 0.498151 0.251695 0.241801
H17   H     H_    0.819798 0.989223 0.121515 0.193511
H18   H     H_    0.319798 0.489211 0.121509 0.193520
N1    N     N_R   0.501200 0.000000 0.147910 -0.251706
N2    N     N_R   0.001200 0.500000 0.147910 -0.251706
N3    N     N_R   0.501270 0.000000 0.852040 -0.216551
N4    N     N_R   0.001270 0.500000 0.852040 -0.216558
O1    O     O_R   0.409820 0.909830 0.618810 -0.520580
O2    O     O_R   0.409820 0.090170 0.618810 -0.520608
O3    O     O_R   0.909820 0.409830 0.618810 -0.520605
O4    O     O_R   0.909820 0.590170 0.618810 -0.520611
O5    O     O_R   0.409840 0.909830 0.381240 -0.543860
O6    O     O_R   0.409840 0.090170 0.381240 -0.543634
O7    O     O_R   0.909840 0.409830 0.381240 -0.543844
O8    O     O_R   0.909840 0.590170 0.381240 -0.543637
O9    O     O_R   0.590170 0.090170 0.618760 -0.564097
O10   O     O_R   0.590170 0.909830 0.618760 -0.563532
O11   O     O_R   0.090170 0.590170 0.618760 -0.564093
O12   O     O_R   0.090170 0.409830 0.618760 -0.563535
O13   O     O_R   0.590190 0.090180 0.381190 -0.574532
O14   O     O_R   0.590190 0.909820 0.381190 -0.589516
O15   O     O_R   0.090190 0.590180 0.381190 -0.574543
O16   O     O_R   0.090190 0.409820 0.381190 -0.589495
Cl1   Cl    Cl    0.857021 0.968537 0.830532 -0.534132
Cl2   Cl    Cl    0.357018 0.468520 0.830532 -0.534112
Cl3   Cl    Cl    0.314283 0.028133 0.847081 -0.556581
Cl4   Cl    Cl    0.814281 0.528123 0.847077 -0.556567
Cl5   Cl    Cl    0.432398 0.645202 0.751500 -0.489040
Cl6   Cl    Cl    0.514054 0.331988 0.935259 -0.473632
Cl7   Cl    Cl    0.932443 0.145242 0.751671 -0.488967
Cl8   Cl    Cl    0.014051 0.831987 0.935266 -0.473659
Cl9   Cl    Cl    0.556658 0.799002 0.810137 -0.544245
Cl10  Cl    Cl    0.628245 0.176350 0.852701 -0.528183
Cl11  Cl    Cl    0.056741 0.299030 0.810228 -0.544340
Cl12  Cl    Cl    0.128244 0.676349 0.852702 -0.528225
N5    N     N_2   0.758313 0.849576 0.282009 -0.463798
H19   H     H_    0.823864 0.867777 0.252093 0.259189
C65   C     C_3   0.713953 0.802027 0.171319 -0.496730
H20   H     H_    0.716436 0.834387 0.072342 0.243226
H21   H     H_    0.639719 0.790698 0.197432 0.241362
H22   H     H_    0.750669 0.742883 0.153944 0.248164
N6    N     N_2   0.791067 0.109194 0.346537 -0.457180
H23   H     H_    0.827157 0.119285 0.255781 0.278473
C66   C     C_3   0.836900 0.049208 0.429745 -0.628094
H24   H     H_    0.852207 0.993956 0.365229 0.212490
H25   H     H_    0.791679 0.031848 0.517860 0.248865
H26   H     H_    0.903958 0.073324 0.469994 0.254915
N7    N     N_2   0.258299 0.349569 0.281990 -0.463794
H27   H     H_    0.323847 0.367778 0.252072 0.259182
C67   C     C_3   0.213943 0.302014 0.171302 -0.496644
H28   H     H_    0.216393 0.334382 0.072332 0.243255
H29   H     H_    0.139717 0.290658 0.197436 0.241355
H30   H     H_    0.250683 0.242885 0.153904 0.248158
N8    N     N_2   0.291031 0.609213 0.346497 -0.457222
H31   H     H_    0.327007 0.619314 0.255648 0.278517
C68   C     C_3   0.337025 0.549291 0.429638 -0.628174
H32   H     H_    0.352208 0.493990 0.365186 0.212511
H33   H     H_    0.291983 0.532003 0.517998 0.249169
H34   H     H_    0.404157 0.573438 0.469528 0.254759
Cl13  Cl    Cl    0.312166 0.003017 0.164919 -0.515425
Cl14  Cl    Cl    0.812166 0.503017 0.164918 -0.515420

loop_
_geom_bond_atom_site_label_1
_geom_bond_atom_site_label_2
_ccdc_geom_bond_type
C58   C62   A    
Cu1   O2    S    
Cu2   Cu4   S    
C42   H12   S    
C40   C60   A    
C4    O8    A    
Cu2   O12   S    
C13   C32   S    
Cu3   O6    S    
C14   C31   S    
C1    C62   S    
C66   H25   S    
C53   C59   A    
Cu3   O13   S    
Cu2   N4    S    
C54   C60   A    
C3    C64   S    
Cu1   N3    S    
N8    C68   S    
C4    C63   S    
C34   O12   A    
C33   O11   A    
C39   H9    S    
C22   C24   A    
C19   C21   A    
C24   C26   A    
C5    C11   A    
C46   Cl6   S    
C6    C12   A    
C68   H34   S    
C22   Cl2   S    
C29   Cl13  S    
C30   Cl14  S    
C18   C20   A    
C47   Cl7   S    
C9    C13   A    
Cu4   O7    S    
C65   H22   S    
C5    H1    S    
C17   C19   A    
C38   C58   A    
C11   C15   A    
C12   C16   A    
Cu1   Cu3   S    
C20   H18   S    
C28   N2    A    
C67   H30   S    
C18   H16   S    
C40   C44   A    
C32   O14   A    
C31   O9    A    
C10   N6    S    
C15   C34   S    
C50   Cl10  S    
C35   Cl3   S    
C2    C61   S    
Cu2   O4    S    
C37   H7    S    
C1    O1    A    
C15   C55   A    
Cu1   O1    S    
C38   H8    S    
Cu3   O5    S    
Cu2   O11   S    
Cu4   O16   S    
C23   H5    S    
C44   C46   A    
Cu3   O14   S    
C13   C53   A    
N5    C65   S    
C8    H4    S    
C65   H21   S    
C5    C61   A    
C17   C27   A    
C33   O15   A    
Cu1   O9    S    
C10   C14   A    
C39   C43   A    
C25   N3    A    
N7    C67   S    
C44   H14   S    
C32   O10   A    
C17   H15   S    
C34   O16   A    
C27   N1    A    
C16   C56   A    
C16   C33   S    
C9    N5    S    
C3    O7    A    
C45   C49   A    
C1    O5    A    
C39   C59   A    
C41   C47   A    
C18   C28   A    
C3    O3    A    
C42   C48   A    
N5    H19   S    
C2    O2    A    
C43   C45   A    
C7    C63   A    
C65   H20   S    
C21   Cl1   S    
C8    C64   A    
Cu2   O3    S    
C4    O4    A    
C35   N3    A    
C14   C54   A    
C20   C22   A    
C55   C57   A    
C36   Cl4   S    
C67   H28   S    
Cu4   N2    S    
C40   H10   S    
C59   C63   A    
C26   N4    A    
Cu4   O15   S    
C30   N2    A    
C66   H24   S    
C48   Cl8   S    
C36   N4    A    
C6    H2    S    
C46   C50   A    
C43   H13   S    
C49   Cl9   S    
Cu3   N1    S    
Cu1   O10   S    
C19   H17   S    
C11   N7    S    
C41   H11   S    
C47   C51   A    
C68   H32   S    
C45   Cl5   S    
C57   C61   A    
C25   C27   A    
N8    H31   S    
C29   C35   A    
C26   C28   A    
C30   C36   A    
C60   C64   A    
C6    C62   A    
C21   C23   A    
C66   H26   S    
C50   C54   A    
C7    H3    S    
C68   H33   S    
C24   H6    S    
N6    H23   S    
C49   C53   A    
C2    O6    A    
C51   Cl11  S    
C56   C58   A    
C51   C55   A    
C23   C25   A    
C37   C41   A    
N7    H27   S    
Cu4   O8    S    
C29   N1    A    
C38   C42   A    
C7    C9    A    
C48   C52   A    
C8    C10   A    
N6    C66   S    
C67   H29   S    
C12   N8    S    
C37   C57   A    
C52   C56   A    
C31   O13   A    
C52   Cl12  S    
