data_mof_unit_9997.cif
_audit_creation_date              2013-03-05T15:55:21-0500
_audit_creation_method            fapswitch 2.2
_symmetry_space_group_name_H-M    P1
_symmetry_Int_Tables_number       1
_space_group_crystal_system       triclinic
_cell_length_a                    27.732558
_cell_length_b                    10.71514
_cell_length_c                    9.868152
_cell_angle_alpha                 89.002148
_cell_angle_beta                  90.135056
_cell_angle_gamma                 91.6441
_cell_volume                      2930.74592589

loop_
_atom_site_label
_atom_site_type_symbol
_atom_site_description
_atom_site_fract_x
_atom_site_fract_y
_atom_site_fract_z
_atom_type_partial_charge
O1    O     O_R   0.500000 0.316780 0.614690 -0.651984
O2    O     O_R   0.500000 0.316750 0.385360 -0.638055
C1    C     C_R   0.502320 0.259482 0.502318 0.882035
O3    O     O_R   0.428760 0.500030 0.614650 -0.650473
O4    O     O_R   0.428750 0.500010 0.385320 -0.631601
C2    C     C_R   0.406037 0.498048 0.499787 0.878032
Zn1   Zn    Zn3+2 0.500000 0.500020 0.653130 0.932496
Zn2   Zn    Zn3+2 0.500000 0.499980 0.346870 0.948968
O5    O     O_R   0.500000 0.683250 0.614640 -0.624952
O6    O     O_R   0.500000 0.683220 0.385310 -0.616839
O7    O     O_R   0.571250 0.499990 0.614680 -0.620687
O8    O     O_R   0.571240 0.499970 0.385350 -0.618861
C3    C     C_R   0.494581 0.738594 0.499251 0.890546
C4    C     C_R   0.593967 0.499977 0.500191 0.884056
C5    C     C_R   0.175972 0.366452 0.510236 0.580596
O9    O     O_2   0.199401 0.257808 0.516718 -0.511885
N1    N     N_R   0.201528 0.476930 0.499977 -0.344200
C6    C     C_R   0.179435 0.589094 0.494961 0.556234
C7    C     C_R   0.278087 0.472122 0.372673 0.030535
C8    C     C_R   0.328415 0.479461 0.375523 -0.218699
C9    C     C_R   0.327776 0.492113 0.620939 -0.202144
C10   C     C_R   0.277801 0.484991 0.619560 -0.118524
C11   C     C_R   0.252845 0.475962 0.496726 0.298247
C12   C     C_R   0.101735 0.480416 0.506335 -0.044620
C13   C     C_R   0.125527 0.366039 0.513250 -0.026446
C14   C     C_R   0.098643 0.254182 0.521485 -0.119180
C15   C     C_R   0.129125 0.593008 0.497744 -0.021245
C16   C     C_R   0.353372 0.490555 0.498865 -0.023102
H1    H     H_    0.346275 0.499687 0.717376 0.169982
H2    H     H_    0.258182 0.488128 0.714164 0.151613
H3    H     H_    0.116138 0.165037 0.524855 0.192410
C17   C     C_R   0.646630 0.498341 0.500858 -0.044967
C18   C     C_R   0.972596 0.370714 0.527453 0.046957
C19   C     C_R   0.976336 0.599326 0.488439 0.048160
C20   C     C_R   0.949248 0.485907 0.507512 0.072105
C21   C     C_R   0.943890 0.261783 0.554195 -0.211891
C22   C     C_R   0.893951 0.265025 0.554971 -0.132755
C23   C     C_R   0.870728 0.376842 0.529794 -0.022655
C24   C     C_R   0.898185 0.487692 0.506362 -0.051300
C25   C     C_R   0.874451 0.600325 0.481592 -0.021452
C26   C     C_R   0.824026 0.599913 0.480363 0.505399
N2    N     N_R   0.798300 0.491158 0.503457 -0.358766
C27   C     C_R   0.820353 0.380749 0.528093 0.505945
C28   C     C_R   0.721744 0.484997 0.624765 -0.100423
C29   C     C_R   0.671709 0.487753 0.624180 -0.213484
C30   C     C_R   0.672284 0.506476 0.378330 -0.212194
C31   C     C_R   0.722349 0.504069 0.379343 -0.099221
C32   C     C_R   0.746996 0.493162 0.502468 0.321200
O10   O     O_2   0.793525 0.275227 0.549993 -0.549613
C33   C     C_R   0.023600 0.368137 0.520621 0.046979
C34   C     C_R   0.050679 0.482247 0.507719 0.074845
C35   C     C_R   0.027327 0.598206 0.495768 0.046849
C36   C     C_R   0.048668 0.254896 0.524752 -0.205846
H4    H     H_    0.652754 0.481161 0.719987 0.162281
H5    H     H_    0.740984 0.476862 0.719992 0.139203
H6    H     H_    0.873580 0.178978 0.575461 0.193232
H7    H     H_    0.958803 0.172301 0.577727 0.142098
H8    H     H_    0.030799 0.164365 0.527384 0.138809
O11   O     O_2   0.206214 0.696184 0.486638 -0.528502
C37   C     C_R   0.105919 0.706722 0.492687 -0.118149
H9    H     H_    0.348143 0.476698 0.280956 0.161332
H10   H     H_    0.126278 0.794554 0.488872 0.197624
C38   C     C_R   0.951299 0.710200 0.460865 -0.212094
C39   C     C_R   0.901345 0.710454 0.457899 -0.135602
O12   O     O_2   0.800770 0.707217 0.457203 -0.550524
C40   C     C_R   0.056005 0.709578 0.492232 -0.207632
H11   H     H_    0.969166 0.798517 0.437813 0.142035
H12   H     H_    0.653767 0.514849 0.281985 0.161106
H13   H     H_    0.883873 0.797829 0.436560 0.191140
H14   H     H_    0.742063 0.510418 0.284759 0.139222
H15   H     H_    0.041097 0.801257 0.491678 0.140233
H16   H     H_    0.510766 0.114696 0.289361 0.175219
C41   C     C_R   0.502078 0.104458 0.763750 -0.171795
H17   H     H_    0.522926 0.188815 0.782726 0.176576
C42   C     C_R   0.484488 0.039614 0.877982 -0.146368
H18   H     H_    0.489378 0.078601 0.977761 0.148059
C43   C     C_R   0.459748 0.926181 0.863248 -0.109152
H19   H     H_    0.444272 0.878017 0.950886 0.169071
C44   C     C_R   0.457017 0.871955 0.736169 -0.141787
H20   H     H_    0.437922 0.782863 0.728230 0.163300
C45   C     C_R   0.478829 0.932061 0.621821 0.097127
C46   C     C_R   0.494790 0.056437 0.631664 0.103371
C47   C     C_R   0.502875 0.125150 0.508362 -0.126931
C48   C     C_R   0.504143 0.064495 0.384111 -0.228593
H21   H     H_    0.503169 0.891953 0.284260 0.172411
C49   C     C_R   0.498097 0.937607 0.380124 -0.180012
C50   C     C_R   0.487355 0.870623 0.499058 -0.121436
H22   H     H_    0.554843 0.638474 0.123551 0.143889
C51   C     C_R   0.435747 0.338881 0.142951 -0.313442
H23   H     H_    0.434376 0.333378 0.250171 0.236649
C52   C     C_R   0.403562 0.260167 0.074144 0.396298
C53   C     C_R   0.403566 0.260983 0.933560 -0.249868
H24   H     H_    0.379101 0.199323 0.878839 0.208477
C54   C     C_R   0.435674 0.339214 0.862015 -0.258042
H25   H     H_    0.434430 0.331382 0.754766 0.235873
C55   C     C_R   0.468256 0.420693 0.928806 0.160286
C56   C     C_R   0.468276 0.420641 0.073556 0.126774
N3    N     N_R   0.499540 0.498800 0.142780 -0.107559
C57   C     C_R   0.530212 0.576271 0.070401 -0.115596
H26   H     H_    0.554812 0.638440 0.871739 0.153600
C58   C     C_R   0.530201 0.576229 0.926970 -0.118264
N4    N     N_R   0.499520 0.498720 0.857170 -0.118656
C59   C     C_2   0.253864 0.461720 0.238722 0.507498
H27   H     H_    0.275502 0.459715 0.147258 0.070376
O13   O     O_2   0.210034 0.455039 0.227694 -0.555434
S1    S     S_3+6 0.363388 0.158852 0.163763 0.029970
O14   O     O_2   0.312613 0.186831 0.122297 -0.240413
O15   O     O_2   0.373334 0.026173 0.128331 -0.301106
O16   O     O_3   0.369031 0.176557 0.332232 -0.536250
H28   H     H_    0.398831 0.132856 0.357432 0.353946

loop_
_geom_bond_atom_site_label_1
_geom_bond_atom_site_label_2
_geom_bond_distance
_ccdc_geom_bond_type
C58   N4    1.365573 A    
C55   N4    1.375200 A    
C26   N2    1.364823 A    
C20   C24   1.416804 A    
C7    C8    1.395917 A    
C12   C15   1.408472 A    
C56   N3    1.376672 A    
C43   H19   1.082570 S    
Zn1   O7    2.012933 S    
N1    C11   1.423925 S    
C47   C48   1.398678 A    
C21   C22   1.386402 A    
C48   C49   1.366371 A    
C15   C37   1.394294 A    
C23   C24   1.408358 A    
O7    C4    1.294868 A    
C5    C13   1.399247 A    
S1    O14   1.502460 D    
C5    O9    1.349855 S    
C18   C21   1.415188 A    
C37   H10   1.083668 S    
C19   C20   1.420209 A    
C41   H17   1.077859 S    
C8    H9    1.084140 S    
O5    C3    1.285156 A    
C19   C38   1.415180 A    
Zn2   N3    2.014259 S    
C22   H6    1.083634 S    
C7    C59   1.485822 S    
C2    C16   1.460459 S    
C31   C32   1.397436 A    
Zn1   N4    2.013375 S    
C51   C52   1.393919 A    
C12   C34   1.416711 A    
C37   C40   1.385429 A    
C14   H3    1.083662 S    
C9    C10   1.385908 A    
C41   C42   1.395471 A    
C52   S1    1.761737 S    
O3    Zn1   2.010955 S    
C45   C46   1.397109 A    
C43   C44   1.392249 A    
C38   H11   1.076542 S    
C33   C36   1.415563 A    
C34   C35   1.420515 A    
C12   C13   1.409001 A    
O3    C2    1.295778 A    
C21   H7    1.076501 S    
C52   C53   1.387186 A    
C44   C45   1.417578 A    
C49   C50   1.393345 A    
C27   O10   1.350059 S    
C26   O12   1.350156 S    
C8    C16   1.403916 A    
C33   C34   1.420405 A    
C18   C33   1.417311 A    
H21   C49   1.083842 S    
C9    H1    1.083255 S    
C44   H20   1.082258 S    
C51   C56   1.409584 A    
O1    C1    1.279474 A    
C7    C11   1.413438 A    
C42   H18   1.082981 S    
C31   H14   1.082944 S    
C30   H12   1.083080 S    
C22   C23   1.394712 A    
C40   H15   1.076610 S    
Zn2   O8    2.010952 S    
C55   C56   1.428400 A    
C3    C50   1.434487 S    
C53   C54   1.390511 A    
N1    C6    1.364674 A    
C59   O13   1.220283 D    
C17   C29   1.404749 A    
N2    C32   1.423574 S    
C39   H13   1.083661 S    
C54   C55   1.408938 A    
C42   C43   1.388180 A    
H16   C48   1.083959 S    
C25   C26   1.398319 A    
C57   C58   1.415409 A    
C9    C16   1.400260 A    
O8    C4    1.295446 A    
C29   H4    1.083072 S    
N3    C57   1.365470 A    
C1    C47   1.440113 S    
N2    C27   1.365115 A    
C14   C36   1.386640 A    
C41   C46   1.421521 A    
C24   C25   1.408570 A    
C35   C40   1.414952 A    
C28   C29   1.388775 A    
C5    N1    1.364515 A    
C30   C31   1.389424 A    
C10   H2    1.083155 S    
O1    Zn1   2.006225 S    
C17   C30   1.404485 A    
O2    Zn2   1.993232 S    
C6    C15   1.397414 A    
C4    C17   1.461086 S    
O6    C3    1.291520 A    
O4    Zn2   2.012936 S    
C36   H8    1.076488 S    
C19   C35   1.416192 A    
C25   C39   1.394330 A    
O2    C1    1.300008 A    
C13   C14   1.394494 A    
C23   C27   1.398902 A    
O16   H28   0.990591 S    
C45   C50   1.412424 A    
C28   H5    1.082969 S    
O4    C2    1.294185 A    
S1    O15   1.503246 D    
C53   H24   1.083245 S    
C18   C20   1.420665 A    
C54   H25   1.063521 S    
H22   C57   1.081784 S    
C38   C39   1.385672 A    
Zn1   O5    1.993234 S    
C6    O11   1.350217 S    
Zn2   O6    2.006225 S    
C46   C47   1.426003 A    
C59   H27   1.085900 S    
C10   C11   1.397836 A    
H26   C58   1.081775 S    
C51   H23   1.059386 S    
C28   C32   1.396900 A    
S1    O16   1.682963 S    
