data_mof_unit_68240.cif
_audit_creation_date              2012-12-11T17:19:20-0500
_audit_creation_method            fapswitch 2.2
_symmetry_space_group_name_H-M    P1
_symmetry_Int_Tables_number       1
_space_group_crystal_system       triclinic
_cell_length_a                    15.436409
_cell_length_b                    7.432037
_cell_length_c                    12.899961
_cell_angle_alpha                 89.999962
_cell_angle_beta                  100.397625
_cell_angle_gamma                 90.00003
_cell_volume                      1455.63256961

loop_
_atom_site_label
_atom_site_type_symbol
_atom_type_description
_atom_site_fract_x
_atom_site_fract_y
_atom_site_fract_z
_atom_type_partial_charge
O1    O     O_R   0.648180 0.355050 0.151550 -0.537833
O2    O     O_R   0.351820 0.644950 0.848450 -0.531169
O3    O     O_R   0.851820 0.855050 0.348450 -0.537833
O4    O     O_R   0.148180 0.144950 0.651550 -0.531170
O5    O     O_R   0.835240 0.681980 0.154280 -0.545922
O6    O     O_R   0.164760 0.318020 0.845720 -0.532389
O7    O     O_R   0.664760 0.181980 0.345720 -0.545922
O8    O     O_R   0.335240 0.818020 0.654280 -0.532389
C1    C     C_R   0.863652 0.516227 0.132976 0.790695
C2    C     C_R   0.141272 0.484313 0.872522 0.755367
C3    C     C_R   0.636347 0.016227 0.367024 0.790695
C4    C     C_R   0.358728 0.984313 0.627478 0.755367
O9    O     O_R   0.647870 0.684600 0.139630 -0.531189
O10   O     O_R   0.352130 0.315400 0.860370 -0.535314
O11   O     O_R   0.852130 0.184600 0.360370 -0.531189
O12   O     O_R   0.147870 0.815400 0.639630 -0.535314
O13   O     O_R   0.663110 0.857440 0.333700 -0.522197
O14   O     O_R   0.336890 0.142560 0.666300 -0.549296
O15   O     O_R   0.836890 0.357440 0.166300 -0.522197
O16   O     O_R   0.163110 0.642560 0.833700 -0.549296
C5    C     C_R   0.616348 0.516172 0.112037 0.748395
C6    C     C_R   0.386405 0.482991 0.883537 0.761355
C7    C     C_R   0.883652 0.016171 0.387963 0.748395
C8    C     C_R   0.113595 0.982991 0.616463 0.761355
O17   O     O_3   0.755220 0.522230 0.313690 -0.394496
O18   O     O_3   0.244780 0.477770 0.686310 -0.387950
O19   O     O_3   0.744780 0.022230 0.186310 -0.394496
O20   O     O_3   0.255220 0.977770 0.813690 -0.387950
V1    V     V_3+5 0.749030 0.796100 0.238190 1.346737
V2    V     V_3+5 0.250970 0.203900 0.761810 1.364702
V3    V     V_3+5 0.750970 0.296100 0.261810 1.346738
V4    V     V_3+5 0.249030 0.703900 0.738190 1.364702
C9    C     C_1   0.962940 0.004614 0.471469 -0.222996
C10   C     C_1   0.030197 0.992166 0.539034 -0.209786
C11   C     C_1   0.537060 0.504614 0.028531 -0.222996
C12   C     C_1   0.469803 0.492166 0.960966 -0.209787
C13   C     C_R   0.543487 0.971567 0.721401 0.060950
C14   C     C_R   0.448115 0.075504 0.274036 0.042585
C15   C     C_R   0.956513 0.471567 0.778600 0.060949
C16   C     C_R   0.051885 0.575504 0.225964 0.042585
C17   C     C_R   0.626916 0.908974 0.767237 0.120771
C18   C     C_R   0.363004 0.035662 0.219628 0.086802
C19   C     C_R   0.873084 0.408973 0.732763 0.120769
C20   C     C_R   0.136996 0.535662 0.280372 0.086802
C21   C     C_R   0.694737 0.917520 0.708980 0.253209
C22   C     C_R   0.295911 0.005136 0.277683 0.293079
C23   C     C_R   0.805263 0.417520 0.791020 0.253212
C24   C     C_R   0.204088 0.505136 0.222317 0.293078
C25   C     C_R   0.673658 0.931667 0.597843 0.144404
C26   C     C_R   0.314872 0.027009 0.389883 0.165819
C27   C     C_R   0.826342 0.431667 0.902157 0.144405
C28   C     C_R   0.185128 0.527010 0.110117 0.165819
C29   C     C_R   0.585455 0.968859 0.544916 -0.042084
C30   C     C_R   0.404947 0.017309 0.445029 -0.084492
C31   C     C_R   0.914545 0.468859 0.955084 -0.042085
C32   C     C_R   0.095053 0.517309 0.054971 -0.084492
C33   C     C_R   0.518217 0.981636 0.608244 -0.028522
C34   C     C_R   0.473658 0.033286 0.384089 -0.016085
C35   C     C_R   0.981783 0.481636 0.891756 -0.028522
C36   C     C_R   0.026342 0.533286 0.115911 -0.016084
C37   C     C_R   0.564469 0.007672 0.433349 -0.104185
C38   C     C_R   0.427784 0.997440 0.558534 -0.105834
C39   C     C_R   0.935531 0.507673 0.066652 -0.104186
C40   C     C_R   0.072216 0.497440 0.941466 -0.105834
C41   C     C_3   0.642187 0.832840 0.878717 -0.771847
H1    H     H_    0.711367 0.795073 0.907786 0.211806
H2    H     H_    0.624249 0.923701 0.938883 0.206721
H3    H     H_    0.601095 0.710602 0.878227 0.203186
C42   C     C_3   0.342455 0.049181 0.099582 -0.728412
H4    H     H_    0.322920 0.188327 0.074643 0.206111
H5    H     H_    0.400328 0.010343 0.064434 0.202336
H6    H     H_    0.288947 0.959925 0.063346 0.232256
C43   C     C_3   0.857812 0.332841 0.621283 -0.771846
H7    H     H_    0.788632 0.295073 0.592214 0.211807
H8    H     H_    0.875749 0.423703 0.561118 0.206720
H9    H     H_    0.898905 0.210603 0.621773 0.203186
C44   C     C_3   0.157545 0.549182 0.400417 -0.728412
H10   H     H_    0.177081 0.688327 0.425357 0.206111
H11   H     H_    0.099672 0.510344 0.435566 0.202336
H12   H     H_    0.211053 0.459924 0.436654 0.232255
C45   C     C_3   0.496159 0.076907 0.795245 -0.681104
H13   H     H_    0.539616 0.124412 0.867669 0.172261
H14   H     H_    0.474167 0.207193 0.758159 0.205195
H15   H     H_    0.443144 0.996071 0.820254 0.230089
C46   C     C_3   0.504153 0.189898 0.216730 -0.687027
H16   H     H_    0.467164 0.259215 0.147379 0.187525
H17   H     H_    0.531053 0.303692 0.268133 0.212417
H18   H     H_    0.552965 0.104605 0.186450 0.219151
C47   C     C_3   0.003841 0.576907 0.704755 -0.681104
H19   H     H_    0.960384 0.624412 0.632331 0.172261
H20   H     H_    0.025833 0.707193 0.741841 0.205195
H21   H     H_    0.056856 0.496072 0.679746 0.230089
C48   C     C_3   0.995847 0.689898 0.283270 -0.687027
H22   H     H_    0.032836 0.759216 0.352621 0.187525
H23   H     H_    0.968947 0.803692 0.231867 0.212418
H24   H     H_    0.947035 0.604605 0.313550 0.219151
N1    N     N_2   0.213447 0.933545 0.225465 -0.519263
H25   H     H_    0.182375 0.850962 0.269824 0.274509
C49   C     C_3   0.154612 0.034963 0.145892 -0.547185
H26   H     H_    0.090511 0.058032 0.171327 0.182480
H27   H     H_    0.140666 0.955940 0.071802 0.204168
H28   H     H_    0.182938 0.166355 0.130230 0.206963
N2    N     N_2   0.778497 0.979712 0.761859 -0.540377
H29   H     H_    0.799051 0.090207 0.726798 0.274613
C50   C     C_3   0.850213 0.857223 0.792906 -0.575791
H30   H     H_    0.866731 0.789878 0.723275 0.214176
H31   H     H_    0.834481 0.762134 0.851411 0.211177
H32   H     H_    0.909234 0.933424 0.831436 0.198227
N3    N     N_2   0.286552 0.433544 0.274535 -0.519263
H33   H     H_    0.317625 0.350962 0.230176 0.274509
C51   C     C_3   0.345388 0.534962 0.354108 -0.547185
H34   H     H_    0.409489 0.558031 0.328673 0.182479
H35   H     H_    0.359333 0.455940 0.428198 0.204168
H36   H     H_    0.317063 0.666355 0.369769 0.206962
N4    N     N_2   0.721503 0.479712 0.738141 -0.540378
H37   H     H_    0.700950 0.590209 0.773201 0.274614
C52   C     C_3   0.649787 0.357225 0.707095 -0.575789
H38   H     H_    0.633266 0.289885 0.776727 0.214174
H39   H     H_    0.665519 0.262130 0.648593 0.211177
H40   H     H_    0.590767 0.433426 0.668561 0.198227
N5    N     N_2   0.741767 0.895875 0.540282 -0.538883
H41   H     H_    0.800056 0.961932 0.566917 0.243372
C53   C     C_3   0.754603 0.705776 0.526924 -0.432359
H42   H     H_    0.809009 0.682489 0.483932 0.203031
H43   H     H_    0.693299 0.640412 0.485553 0.214886
H44   H     H_    0.773715 0.643016 0.603788 0.216504
N6    N     N_2   0.248477 0.087831 0.446371 -0.524018
H45   H     H_    0.270813 0.197328 0.491986 0.267927
C54   C     C_3   0.158852 0.119882 0.394678 -0.540361
H46   H     H_    0.122479 0.992908 0.379978 0.193756
H47   H     H_    0.156885 0.198322 0.322393 0.241424
H48   H     H_    0.124408 0.201400 0.446145 0.197226
N7    N     N_2   0.758233 0.395875 0.959718 -0.538883
H49   H     H_    0.699944 0.461933 0.933084 0.243371
C55   C     C_3   0.745395 0.205776 0.973075 -0.432356
H50   H     H_    0.690989 0.182489 0.016067 0.203030
H51   H     H_    0.806699 0.140410 0.014446 0.214886
H52   H     H_    0.726284 0.143017 0.896211 0.216505
N8    N     N_2   0.251523 0.587832 0.053629 -0.524017
H53   H     H_    0.229188 0.697328 0.008013 0.267927
C56   C     C_3   0.341148 0.619883 0.105322 -0.540360
H54   H     H_    0.375592 0.701400 0.053855 0.197226
H55   H     H_    0.377521 0.492908 0.120022 0.193756
H56   H     H_    0.343115 0.698322 0.177607 0.241424

loop_
_geom_bond_atom_site_label_1
_geom_bond_atom_site_label_2
_ccdc_geom_bond_type
O17   V3    S    
C55   H52   S    
O1    C5    A    
C48   H22   S    
C16   C36   A    
C31   C35   A    
O19   V1    S    
C53   H42   S    
C43   H7    S    
O3    C7    A    
C51   H34   S    
C16   C48   S    
O15   V3    S    
N1    H25   S    
C33   C38   A    
C44   H10   S    
O7    C3    A    
C50   H31   S    
C35   C40   A    
C26   C30   A    
C36   C39   A    
O9    V1    S    
C20   C44   S    
C14   C18   A    
N3    C51   S    
C30   C34   A    
O4    C8    A    
C53   H43   S    
N4    H37   S    
O1    V3    S    
C28   N8    S    
O13   V1    S    
O2    V4    S    
C18   C22   A    
C42   H5    S    
C21   N2    S    
N1    C49   S    
C14   C34   A    
C29   C37   A    
C19   C43   S    
C1    O15   A    
C11   C12   T    
C2    O16   A    
N4    C52   S    
C31   C39   A    
O2    C6    A    
C32   C40   A    
O14   V2    S    
C47   H20   S    
C16   C20   A    
C54   H48   S    
C34   C37   A    
O11   C7    A    
C24   N3    S    
C25   N5    S    
C48   H23   S    
C13   C17   A    
C43   H8    S    
C13   C45   S    
O10   V2    S    
C45   H14   S    
C45   H13   S    
O5    V1    S    
C44   H11   S    
C50   H32   S    
O7    V3    S    
C14   C46   S    
O8    V4    S    
C55   H50   S    
C7    C9    S    
N3    H33   S    
C56   H56   S    
C29   C33   A    
O18   V4    S    
C53   H44   S    
C15   C19   A    
C30   C38   A    
C41   H2    S    
C46   H16   S    
C18   C42   S    
C8    C10   S    
C32   C36   A    
C56   H55   S    
C42   H6    S    
C23   N4    S    
N6    C54   S    
O5    C1    A    
C4    C38   S    
C49   H26   S    
C21   C25   A    
O8    C4    A    
C41   H3    S    
C15   C35   A    
C9    C10   T    
O9    C5    A    
C51   H35   S    
N8    C56   S    
C47   H21   S    
N5    H41   S    
C49   H27   S    
C22   N1    S    
C48   H24   S    
N7    H49   S    
N2    C50   S    
C52   H40   S    
N6    H45   S    
C45   H15   S    
C54   H46   S    
O16   V4    S    
C46   H18   S    
C55   H51   S    
C3    O13   A    
O6    V2    S    
C1    C39   S    
C2    C40   S    
C3    C37   S    
O6    C2    A    
C23   C27   A    
N8    H53   S    
O11   V3    S    
C5    C11   S    
O12   V4    S    
C6    C12   S    
C50   H30   S    
C22   C26   A    
O10   C6    A    
C52   H39   S    
C56   H54   S    
C27   N7    S    
O3    V1    S    
C44   H12   S    
C25   C29   A    
O20   V2    S    
C43   H9    S    
C51   H36   S    
C27   C31   A    
C17   C41   S    
C42   H4    S    
O4    V2    S    
N5    C53   S    
C28   C32   A    
C46   H17   S    
C24   C28   A    
C49   H28   S    
O12   C8    A    
C41   H1    S    
C4    O14   A    
N2    H29   S    
N7    C55   S    
C17   C21   A    
C26   N6    S    
C47   H19   S    
C52   H38   S    
C19   C23   A    
C15   C47   S    
C13   C33   A    
C20   C24   A    
C54   H47   S    
