data_mof_unit_17207.cif
_audit_creation_date              2012-12-11T14:58:28-0500
_audit_creation_method            fapswitch 2.2
_symmetry_space_group_name_H-M    P1
_symmetry_Int_Tables_number       1
_space_group_crystal_system       triclinic
_cell_length_a                    10.913575
_cell_length_b                    10.910705
_cell_length_c                    18.769259
_cell_angle_alpha                 90.225784
_cell_angle_beta                  90.656361
_cell_angle_gamma                 59.94442
_cell_volume                      1934.30374605

loop_
_atom_site_label
_atom_site_type_symbol
_atom_type_description
_atom_site_fract_x
_atom_site_fract_y
_atom_site_fract_z
_atom_type_partial_charge
C1    C     C_R   0.356522 0.776464 0.398433 0.528398
C2    C     C_R   0.618992 0.123497 0.158901 0.093725
C3    C     C_R   0.369002 0.340457 0.158272 -0.010573
C4    C     C_R   0.512030 0.267678 0.266408 0.166072
C5    C     C_R   0.498030 0.247561 0.194237 -0.062104
C6    C     C_R   0.092406 0.720374 0.303182 -0.166448
C7    C     C_R   0.977152 0.815921 0.343376 -0.050700
C8    C     C_R   0.662401 0.980627 0.177661 0.292543
C9    C     C_R   0.777944 0.869657 0.143104 -0.054563
C10   C     C_R   0.263674 0.461734 0.192951 0.194935
C11   C     C_R   0.271781 0.473549 0.267433 -0.078404
C12   C     C_R   0.417538 0.379958 0.382603 0.583116
C13   C     C_R   0.909384 0.769456 0.389485 0.248354
C14   C     C_R   0.955525 0.622823 0.390835 -0.054196
C15   C     C_R   0.064235 0.526799 0.346931 0.274496
C16   C     C_R   0.139841 0.574819 0.305439 0.046685
C17   C     C_R   0.397598 0.373780 0.304762 -0.028476
C18   C     C_R   0.853533 0.246131 0.297417 -0.048109
C19   C     C_R   0.888597 0.224112 0.226423 -0.123227
C20   C     C_R   0.852847 0.340386 0.182020 0.018210
C21   C     C_R   0.781395 0.478399 0.208760 -0.125018
C22   C     C_R   0.744798 0.499909 0.279592 -0.137325
C23   C     C_R   0.722471 0.411011 0.394456 0.554751
C24   C     C_R   0.776006 0.384098 0.323175 0.066216
C25   C     C_R   0.405677 0.730239 0.272151 -0.132708
C26   C     C_R   0.390593 0.773950 0.201802 -0.089938
C27   C     C_R   0.313144 0.918262 0.185631 0.055997
C28   C     C_R   0.254564 0.018956 0.240242 -0.164344
C29   C     C_R   0.271336 0.974802 0.311216 -0.139094
C30   C     C_R   0.346037 0.829998 0.326826 0.040512
C31   C     C_R   0.391159 0.195811 0.693804 -0.136455
C32   C     C_R   0.381215 0.183825 0.765995 -0.120651
C33   C     C_R   0.295575 0.304218 0.807409 0.036895
C34   C     C_R   0.344435 0.769546 0.604654 0.550742
C35   C     C_R   0.209567 0.434991 0.774753 -0.138605
C36   C     C_R   0.221035 0.447594 0.701870 -0.127919
C37   C     C_R   0.318226 0.328957 0.662218 0.032699
C38   C     C_R   0.744452 0.475445 0.731637 -0.122744
C39   C     C_R   0.753711 0.463001 0.804640 -0.129603
C40   C     C_R   0.812168 0.329348 0.836118 0.030520
C41   C     C_R   0.843609 0.210407 0.793919 -0.128535
C42   C     C_R   0.828523 0.224173 0.720012 -0.134595
C43   C     C_R   0.784828 0.356134 0.688531 0.034832
C44   C     C_R   0.201091 0.831453 0.712862 -0.134750
C45   C     C_R   0.368029 0.349647 0.594839 0.557311
C46   C     C_R   0.193434 0.841025 0.786146 -0.139622
C47   C     C_R   0.302604 0.842091 0.825331 0.035714
C48   C     C_R   0.421653 0.829106 0.790375 -0.143393
C49   C     C_R   0.428711 0.820810 0.716847 -0.147037
C50   C     C_R   0.320048 0.818676 0.677784 0.037756
C51   C     C_R   0.911032 0.315695 0.111765 0.529691
C52   C     C_R   0.330908 0.295996 0.091364 0.565358
C53   C     C_R   0.273155 0.962014 0.112264 0.552694
C54   C     C_R   0.877843 0.310857 0.906034 0.542744
C55   C     C_R   0.291455 0.283880 0.883236 0.549515
C56   C     C_R   0.757784 0.379685 0.612352 0.561632
C57   C     C_R   0.276070 0.892968 0.898081 0.556432
C58   C     C_R   0.845011 0.897038 0.087775 -0.168593
C59   C     C_R   0.798312 0.036068 0.066917 -0.115825
C60   C     C_R   0.688355 0.148868 0.103174 -0.093093
Cr1   Cr    Cr6+3 0.601770 0.606860 0.505860 0.965798
Cr2   Cr    Cr6+3 0.291380 0.601660 0.495070 1.021586
Cr3   Cr    Cr6+3 0.606880 0.291510 0.499120 1.043413
Cr4   Cr    Cr6+3 0.062440 0.063090 0.008210 0.980681
Cr5   Cr    Cr6+3 0.062880 0.375170 0.998920 1.042821
Cr6   Cr    Cr6+3 0.374700 0.061720 0.992470 1.017437
H1    H     H_    0.910648 0.579896 0.426571 0.152551
H2    H     H_    0.884921 0.156072 0.331920 0.153388
H3    H     H_    0.948285 0.116277 0.207112 0.138260
H4    H     H_    0.756097 0.568888 0.175320 0.145140
H5    H     H_    0.690665 0.606916 0.300270 0.152122
H6    H     H_    0.458018 0.618040 0.283913 0.092146
H7    H     H_    0.432520 0.695388 0.159840 0.126286
H8    H     H_    0.192687 0.130751 0.227642 0.099707
H9    H     H_    0.813359 0.761066 0.157891 0.148764
H10   H     H_    0.223287 0.052298 0.353270 0.139153
H11   H     H_    0.464224 0.102944 0.663875 0.116094
H12   H     H_    0.444057 0.079852 0.789540 0.136508
H13   H     H_    0.139199 0.527413 0.805686 0.119592
H14   H     H_    0.162389 0.551813 0.677908 0.131123
H15   H     H_    0.705878 0.579478 0.709015 0.131590
H16   H     H_    0.727031 0.556480 0.836086 0.124453
H17   H     H_    0.888955 0.105917 0.817360 0.126485
H18   H     H_    0.855027 0.131955 0.687615 0.117084
H19   H     H_    0.115691 0.829152 0.684042 0.124727
H20   H     H_    0.943294 0.927136 0.340523 0.142571
H21   H     H_    0.099473 0.853178 0.811672 0.120541
H22   H     H_    0.506722 0.831247 0.819608 0.115305
H23   H     H_    0.520799 0.811990 0.690813 0.107752
H24   H     H_    0.931855 0.810167 0.060216 0.140095
H25   H     H_    0.847504 0.056251 0.022397 0.163233
H26   H     H_    0.655000 0.256322 0.086855 0.107834
H27   H     H_    0.145284 0.760607 0.270516 0.121207
O1    O     O_R   0.748800 0.497470 0.428000 -0.542156
O2    O     O_R   0.300070 0.471040 0.567100 -0.501119
O3    O     O_R   0.491670 0.258900 0.574910 -0.537089
O4    O     O_R   0.718780 0.304180 0.577850 -0.494127
O5    O     O_3   0.500010 0.500010 0.500020 -0.283856
O6    O     O_R   0.186690 0.923650 0.086970 -0.518715
O7    O     O_R   0.957250 0.194250 0.084630 -0.538859
O8    O     O_R   0.934970 0.407490 0.085330 -0.500539
O9    O     O_R   0.203780 0.365190 0.067090 -0.426390
O10   O     O_R   0.417600 0.174890 0.067840 -0.537328
O11   O     O_R   0.375320 0.946260 0.070860 -0.485906
O12   O     O_R   0.476420 0.724060 0.429470 -0.530580
O13   O     O_R   0.160600 0.919630 0.926660 -0.525437
O14   O     O_R   0.933060 0.190520 0.936020 -0.523659
O15   O     O_R   0.908880 0.403460 0.925020 -0.520114
O16   O     O_R   0.179600 0.361450 0.918490 -0.501465
O17   O     O_R   0.391510 0.170860 0.907530 -0.531134
O18   O     O_R   0.351130 0.942530 0.922260 -0.506427
O19   O     O_3   0.166667 0.166667 0.999870 -0.271226
O20   O     O_R   0.264580 0.744340 0.416750 -0.517185
O21   O     O_R   0.309380 0.472470 0.418200 -0.492604
O22   O     O_R   0.501710 0.260430 0.414300 -0.477907
O23   O     O_R   0.728090 0.305600 0.428960 -0.478745
O24   O     O_R   0.738760 0.495930 0.588610 -0.531960
O25   O     O_R   0.467110 0.722640 0.578360 -0.516754
O26   O     O_R   0.254530 0.742800 0.577360 -0.521788
O27   O     O_3   0.638626 0.178873 0.300015 -0.696429
H28   H     H_    0.632293 0.096224 0.316709 0.374947
O28   O     O_3   0.800236 0.873112 0.430437 -0.566373
C61   C     C_3   0.745917 0.818464 0.481375 -0.018836
H29   H     H_    0.831398 0.742584 0.517859 0.111676
H30   H     H_    0.691961 0.767428 0.454343 0.176775
C62   C     C_3   0.637108 0.939016 0.526423 -0.328860
H31   H     H_    0.688002 0.991830 0.554655 0.164828
H32   H     H_    0.549185 0.017139 0.492098 0.188117
H33   H     H_    0.593323 0.897082 0.566477 0.086495
O29   O     O_3   0.097848 0.386786 0.349586 -0.699424
H34   H     H_    0.162495 0.333703 0.310232 0.319289
O30   O     O_3   0.593752 0.944048 0.227234 -0.717741
H35   H     H_    0.502727 0.028510 0.239504 0.323937
O31   O     O_3   0.146267 0.557675 0.153874 -0.682292
H36   H     H_    0.105684 0.652761 0.174963 0.319622

loop_
_geom_bond_atom_site_label_1
_geom_bond_atom_site_label_2
_ccdc_geom_bond_type
C34   O25   A    
C52   O10   A    
C33   C55   S    
C62   H31   S    
C41   C42   A    
Cr1   O5    S    
Cr5   O8    S    
C28   H8    S    
C61   H29   S    
C29   H10   S    
C53   O6    A    
C52   O9    A    
C26   C27   A    
C54   O14   A    
C18   C24   A    
C56   O4    A    
C28   C29   A    
Cr2   O21   S    
C20   C51   S    
C38   C39   A    
C2    C60   A    
C61   H30   S    
C7    H20   S    
C53   O11   A    
C18   H2    S    
C15   C16   A    
C41   H17   S    
C25   C30   A    
C26   H7    S    
C9    C58   A    
C56   O24   A    
C23   O23   A    
Cr2   O5    S    
Cr4   O6    S    
C11   C17   A    
C47   C48   A    
Cr2   O2    S    
O30   H35   S    
C12   C17   S    
C8    O30   S    
C14   H1    S    
C48   H22   S    
Cr6   O18   S    
Cr1   O12   S    
Cr5   O15   S    
C12   O22   A    
Cr3   O22   S    
C57   O13   A    
C59   C60   A    
C13   C14   A    
C55   O16   A    
C1    O20   A    
Cr5   O9    S    
C44   C46   A    
C31   H11   S    
C12   O21   A    
C60   H26   S    
C34   C50   S    
Cr1   O24   S    
Cr6   O11   S    
C42   H18   S    
Cr2   O20   S    
C36   H14   S    
C39   C40   A    
Cr1   O1    S    
C18   C19   A    
C61   C62   S    
C62   H33   S    
C58   C59   A    
C6    C16   A    
Cr3   O3    S    
C31   C37   A    
C35   C36   A    
Cr5   O19   S    
C29   C30   A    
C47   C57   S    
C11   C16   S    
C31   C32   A    
C7    C13   A    
C23   C24   S    
C6    H27   S    
C8    C9    A    
C25   H6    S    
C59   H25   S    
Cr6   O17   S    
C58   H24   S    
Cr5   O16   S    
Cr2   O26   S    
C6    C7    A    
C4    C17   A    
C48   C49   A    
C40   C54   S    
C55   O17   A    
C22   C24   A    
C19   H3    S    
C2    C5    S    
C51   O8    A    
C42   C43   A    
Cr3   O23   S    
C37   C45   S    
C44   H19   S    
C45   O2    A    
C22   H5    S    
O27   H28   S    
Cr4   O14   S    
C46   H21   S    
C44   C50   A    
C34   O26   A    
C46   C47   A    
C36   C37   A    
C62   H32   S    
Cr1   O25   S    
Cr6   O10   S    
C2    C8    A    
C10   O31   S    
C39   H16   S    
C49   H23   S    
C4    C5    A    
C3    C5    A    
C3    C52   S    
C27   C53   S    
Cr4   O13   S    
O31   H36   S    
Cr3   O5    S    
C23   O1    A    
C54   O15   A    
C21   H4    S    
C51   O7    A    
C32   C33   A    
C19   C20   A    
O29   H34   S    
C25   C26   A    
C38   C43   A    
C38   H15   S    
C3    C10   A    
C13   O28   S    
C57   O18   A    
C15   O29   S    
C35   H13   S    
C1    C30   S    
C33   C35   A    
Cr4   O19   S    
C10   C11   A    
C32   H12   S    
C43   C56   S    
Cr4   O7    S    
C20   C21   A    
Cr3   O4    S    
C49   C50   A    
C27   C28   A    
C14   C15   A    
C4    O27   S    
C40   C41   A    
C9    H9    S    
Cr6   O19   S    
O28   C61   S    
C21   C22   A    
C45   O3    A    
C1    O12   A    
