data_mof_unit_30175.cif
_audit_creation_date              2012-12-11T15:49:58-0500
_audit_creation_method            fapswitch 2.2
_symmetry_space_group_name_H-M    P1
_symmetry_Int_Tables_number       1
_space_group_crystal_system       triclinic
_cell_length_a                    8.25422
_cell_length_b                    19.047082
_cell_length_c                    26.955773
_cell_angle_alpha                 95.524619
_cell_angle_beta                  92.59132
_cell_angle_gamma                 85.393531
_cell_volume                      4201.64176737

loop_
_atom_site_label
_atom_site_type_symbol
_atom_type_description
_atom_site_fract_x
_atom_site_fract_y
_atom_site_fract_z
_atom_type_partial_charge
Ba1   Ba    Ba6+2 0.854000 0.466860 0.523710 1.692709
Ba2   Ba    Ba6+2 0.335820 0.533080 0.476290 1.706252
Br1   Br    Br    0.518435 0.182318 0.682379 -0.541031
Br2   Br    Br    0.094243 0.239848 0.429764 -0.596302
C1    C     C_3   0.717467 0.218077 0.663437 0.114665
C2    C     C_R   0.829933 0.518817 0.167395 0.631277
C3    C     C_2   0.786060 0.565971 0.274816 -0.082211
C4    C     C_3   0.175979 0.318499 0.660995 0.272205
C5    C     C_3   0.752315 0.578702 0.329701 -0.070376
C6    C     C_1   0.979576 0.491299 0.344791 0.007299
C7    C     C_2   0.012920 0.481875 0.296522 -0.051667
C8    C     C_2   0.912306 0.520787 0.257970 0.197693
C9    C     C_R   0.029373 0.505410 0.102371 -0.069524
C10   C     C_R   0.150999 0.491196 0.139011 -0.033446
C11   C     C_R   0.309483 0.470245 0.123847 -0.008630
C12   C     C_3   0.683648 0.287585 0.639850 0.319222
C13   C     C_R   0.868362 0.521332 0.116954 -0.029593
C14   C     C_2   0.854214 0.531813 0.362526 -0.255333
C15   C     C_2   0.353009 0.485463 0.640500 -0.282664
C16   C     C_3   0.157046 0.307656 0.715526 -0.288089
C17   C     C_R   0.262569 0.472953 0.984125 0.022567
C18   C     C_R   0.993136 0.531720 0.965461 0.020736
C19   C     C_R   0.147754 0.502333 0.949497 0.056908
C20   C     C_R   0.408149 0.438068 0.965431 -0.102794
C21   C     C_R   0.440165 0.433485 0.914718 -0.050875
C22   C     C_R   0.332161 0.466292 0.880714 -0.032664
C23   C     C_3   0.510759 0.646018 0.627049 0.304532
C24   C     C_R   0.187944 0.502407 0.898413 -0.078538
C25   C     C_R   0.083891 0.538663 0.865095 -0.029480
C26   C     C_R   0.131026 0.542542 0.815570 0.597633
C27   C     C_R   0.364320 0.462585 0.829250 0.587190
C28   C     C_3   0.212808 0.309131 0.401776 0.508529
C29   C     C_2   0.463830 0.496526 0.728803 -0.073189
C30   C     C_3   0.502556 0.494628 0.673899 -0.049699
C31   C     C_1   0.211868 0.512690 0.656402 0.033061
C32   C     C_2   0.174705 0.508934 0.703460 -0.120475
C33   C     C_2   0.306957 0.502221 0.743815 0.187718
C34   C     C_3   0.481625 0.676447 0.680467 -0.328456
C35   C     C_R   0.227600 0.479238 0.035928 0.018403
C36   C     C_R   0.068701 0.503618 0.051084 0.060789
C37   C     C_R   0.948616 0.526263 0.015454 0.025906
C38   C     C_R   0.346138 0.462630 0.073418 -0.099331
C39   C     C_R   0.748268 0.538707 0.080681 -0.051968
C40   C     C_3   0.326908 0.267447 0.365408 -0.241136
C41   C     C_R   0.889526 0.566724 0.930900 -0.093210
C42   C     C_R   0.935702 0.571436 0.882203 -0.042658
C43   C     C_R   0.787655 0.542290 0.031213 -0.091382
C44   C     C_R   0.396226 0.299045 0.521862 -0.261154
C45   C     C_3   0.012512 0.698937 0.340468 0.457080
C46   C     C_R   0.535357 0.276307 0.495679 0.044118
C47   C     C_R   0.586640 0.204104 0.490039 -0.117364
C48   C     C_R   0.498907 0.154458 0.510967 0.006038
C49   C     C_R   0.356089 0.178278 0.536418 -0.065958
C50   C     C_R   0.303542 0.250364 0.540834 0.058617
C51   C     C_R   0.561835 0.038784 0.547293 -0.100014
C52   C     C_3   0.022422 0.684049 0.580100 0.260275
C53   C     C_R   0.616801 0.966793 0.543683 0.435594
C54   C     C_R   0.660730 0.931844 0.496513 -0.041957
C55   C     C_R   0.655304 0.971900 0.455171 -0.128063
C56   C     C_3   0.938058 0.743258 0.299569 0.277472
C57   C     C_R   0.604222 0.044041 0.459757 -0.048290
C58   C     C_R   0.555036 0.077978 0.505755 -0.014776
C59   C     C_R   0.853325 0.828489 0.465052 -0.135725
C60   C     C_R   0.897870 0.755372 0.459521 0.015528
C61   C     C_R   0.656607 0.733200 0.501111 0.024653
C62   C     C_R   0.608006 0.805467 0.505371 -0.034839
C63   C     C_R   0.707762 0.854300 0.488645 0.035352
C64   C     C_3   0.077749 0.758710 0.588128 -0.269764
C65   C     C_R   0.796976 0.708383 0.476509 -0.290039
C66   C     C_3   0.694163 0.374040 0.373847 0.252955
C67   C     C_3   0.514954 0.725279 0.363488 0.343977
C68   C     C_3   0.764409 0.341252 0.324231 0.342843
C69   C     C_3   0.470200 0.797552 0.345185 -0.232781
C70   C     C_R   0.112616 0.499584 0.190127 0.580463
H1    H     H_    0.797804 0.298445 0.622934 0.074843
H2    H     H_    0.792654 0.398914 0.396579 -0.018715
H3    H     H_    0.595738 0.415722 0.367474 0.067738
H4    H     H_    0.800598 0.225471 0.696766 0.111941
H5    H     H_    0.849751 0.376173 0.311309 -0.060374
H6    H     H_    0.834679 0.290198 0.329845 0.103168
H7    H     H_    0.587565 0.281418 0.609964 -0.017147
H8    H     H_    0.776757 0.177890 0.636045 0.071667
H9    H     H_    0.393327 0.629085 0.610186 0.014689
H10   H     H_    0.601824 0.599891 0.627148 0.023423
H11   H     H_    0.399382 0.725574 0.680572 0.155422
H12   H     H_    0.388223 0.305168 0.345720 0.176627
H13   H     H_    0.423547 0.638090 0.700985 0.056143
H14   H     H_    0.598905 0.688873 0.699852 0.138198
H15   H     H_    0.226496 0.346249 0.739627 0.107843
H16   H     H_    0.080918 0.650250 0.324110 0.059496
H17   H     H_    0.909019 0.682581 0.359918 -0.275805
H18   H     H_    0.834936 0.716194 0.280609 -0.041996
H19   H     H_    0.888644 0.795699 0.316424 0.035530
H20   H     H_    0.649186 0.717166 0.363606 -0.089655
H21   H     H_    0.474835 0.725942 0.402281 0.059784
H22   H     H_    0.542351 0.837530 0.366951 0.020965
H23   H     H_    0.417146 0.232705 0.385277 0.095465
H24   H     H_    0.339677 0.813297 0.350544 0.184239
H25   H     H_    0.120899 0.372221 0.655188 0.053306
H26   H     H_    0.497270 0.796605 0.305130 0.168202
H27   H     H_    0.098305 0.438158 0.284035 0.123045
H28   H     H_    0.405866 0.458210 0.151037 0.183718
H29   H     H_    0.565318 0.497845 0.755746 0.122996
H30   H     H_    0.552354 0.405085 0.902354 0.130185
H31   H     H_    0.497480 0.411467 0.988969 0.083321
H32   H     H_    0.470532 0.445975 0.065001 0.079321
H33   H     H_    0.717154 0.600190 0.250331 0.136078
H34   H     H_    0.257882 0.234121 0.337105 0.156516
H35   H     H_    0.623127 0.551604 0.090737 0.121097
H36   H     H_    0.774170 0.593612 0.941153 0.079426
H37   H     H_    0.307543 0.314956 0.653092 0.043842
H38   H     H_    0.852789 0.600021 0.857581 0.123506
H39   H     H_    0.048894 0.507911 0.712404 0.156875
H40   H     H_    0.688178 0.555577 0.005597 0.072600
H41   H     H_    0.835149 0.539747 0.402287 0.080268
H42   H     H_    0.362111 0.458185 0.603313 0.068878
H43   H     H_    0.496263 0.823698 0.523576 0.125725
H44   H     H_    0.527459 0.065095 0.583123 0.164748
H45   H     H_    0.888729 0.686917 0.574940 0.020216
H46   H     H_    0.694390 0.186768 0.469355 0.118452
H47   H     H_    0.688221 0.946874 0.418837 0.100095
H48   H     H_    0.026690 0.315865 0.724763 0.116866
H49   H     H_    0.599759 0.073044 0.427019 0.102791
H50   H     H_    0.933434 0.864930 0.452507 0.088297
H51   H     H_    0.283789 0.140875 0.551423 0.097508
H52   H     H_    0.833890 0.652379 0.473939 0.058996
H53   H     H_    0.355336 0.354634 0.525206 0.068266
H54   H     H_    0.203327 0.253256 0.723076 0.187205
H55   H     H_    0.281137 0.340004 0.431540 -0.029320
H56   H     H_    0.078767 0.657933 0.545850 0.061936
H57   H     H_    0.374299 0.370537 0.255214 0.372451
H58   H     H_    0.149380 0.645754 0.230587 0.329255
H59   H     H_    0.677687 0.959901 0.677977 0.384001
H60   H     H_    0.026260 0.786470 0.622666 0.178072
H61   H     H_    0.037261 0.788760 0.555994 0.094926
H62   H     H_    0.212452 0.756846 0.592070 0.128103
N1    N     N_R   0.952015 0.512416 0.204577 -0.426579
N2    N     N_R   0.267679 0.502663 0.796882 -0.424469
O1    O     O_2   0.913240 0.537010 0.617740 -0.466489
O2    O     O_2   0.237199 0.749613 0.464260 -0.501955
O3    O     O_3   0.116359 0.738443 0.372955 -0.594404
O4    O     O_3   0.145240 0.536960 0.557560 -0.494000
O5    O     O_3   0.557280 0.416300 0.475860 -0.491660
O6    O     O_2   0.376710 0.670070 0.522470 -0.473346
O7    O     O_3   0.570897 0.698245 0.601391 -0.598474
O8    O     O_2   0.426980 0.533454 0.321132 -0.382636
O9    O     O_3   0.440477 0.672304 0.332341 -0.529949
O10   O     O_2   0.223576 0.496984 0.221556 -0.552139
O11   O     O_2   0.476992 0.422449 0.813367 -0.579111
O12   O     O_3   0.634273 0.320259 0.398039 -0.648372
O13   O     O_2   0.687042 0.521267 0.177838 -0.568914
O14   O     O_2   0.051102 0.582653 0.789555 -0.595274
O15   O     O_3   0.669960 0.410470 0.588880 -0.496190
O16   O     O_2   0.833925 0.440664 0.673637 -0.503554
O17   O     O_3   0.066371 0.649878 0.623025 -0.621698
O18   O     O_3   0.633484 0.342298 0.676099 -0.586070
O19   O     O_2   0.812980 0.329910 0.477500 -0.403693
O20   O     O_3   0.078660 0.374870 0.564770 -0.487905
O21   O     O_2   0.962754 0.249522 0.540686 -0.450778
O22   O     O_2   0.693717 0.334792 0.225993 -0.248875
O23   O     O_3   0.096166 0.266704 0.630704 -0.606605
O24   O     O_2   0.561888 0.253780 0.273567 -0.285546
O25   O     O_3   0.455562 0.386972 0.281007 -0.512087
O26   O     O_2   0.987519 0.765637 0.204773 -0.249715
O27   O     O_2   0.167934 0.820078 0.268978 -0.244533
O28   O     O_3   0.214414 0.684708 0.245051 -0.457435
O29   O     O_2   0.478169 0.894848 0.608706 -0.295056
O30   O     O_2   0.770770 0.867681 0.597874 -0.324251
O31   O     O_3   0.675737 0.985831 0.647790 -0.472418
O32   O     O_2   0.276450 0.462960 0.382230 -0.454095
O33   O     O_3   0.044470 0.462980 0.442430 -0.477447
O34   O     O_3   0.519740 0.589470 0.411120 -0.495867
O35   O     O_3   0.101823 0.350728 0.374284 -0.650795
O36   O     O_3   0.632420 0.583650 0.524140 -0.483293
O37   O     O_3   0.111040 0.625070 0.435230 -0.478080
P1    P     P_3+3 0.082480 0.557670 0.610090 1.004389
P2    P     P_3+3 0.635220 0.340300 0.462910 1.020304
P3    P     P_3+3 0.109397 0.283709 0.568398 0.992317
P4    P     P_3+3 0.107220 0.442270 0.389900 1.010590
P5    P     P_3+3 0.092602 0.717802 0.434080 0.973848
P6    P     P_3+3 0.661405 0.423985 0.653800 0.972707
P7    P     P_3+3 0.561808 0.672403 0.537378 0.979757
P8    P     P_3+3 0.533707 0.590611 0.346880 1.049884
S1    S     S_3+6 0.616408 0.327321 0.274446 -0.064464
S2    S     S_3+6 0.079243 0.755301 0.253296 -0.023577
S3    S     S_3+6 0.635671 0.925400 0.600013 -0.072071

loop_
_geom_bond_atom_site_label_1
_geom_bond_atom_site_label_2
_ccdc_geom_bond_type
O17   P1    S    
C55   H47   S    
C43   H40   S    
C67   O9    S    
C51   C58   A    
Ba1   P1    S    
C56   S2    S    
C26   N2    Am   
C42   H38   S    
C69   H26   S    
O3    P5    S    
Ba2   O6    S    
C31   C32   D    
C66   O12   S    
C45   H16   S    
O36   P7    S    
C59   H50   S    
C67   H20   S    
C41   C42   A    
C44   C50   A    
C4    C16   S    
C45   C56   S    
O8    P8    D    
C5    P8    S    
C6    P4    S    
C10   C70   A    
C70   O10   D    
C24   C25   A    
C4    H25   S    
H58   O28   S    
O31   S3    S    
C16   H54   S    
C68   H5    S    
C4    O23   S    
C60   P5    S    
C61   C65   A    
C18   C37   A    
C67   H21   S    
O35   P4    S    
C23   C34   S    
C12   H1    S    
O16   P6    D    
C30   P6    S    
Ba1   Ba2   S    
H59   O31   S    
C9    C36   A    
Ba1   O4    S    
Ba1   P2    S    
C34   H13   S    
C1    C12   S    
C62   H43   S    
C45   O3    S    
C12   O18   S    
C16   H48   S    
Ba1   O1    S    
Ba2   O33   S    
C56   H19   S    
C44   C46   A    
C62   C63   A    
C22   C27   A    
C9    C10   A    
C66   H3    S    
Ba2   O5    S    
O33   P4    S    
O1    P1    D    
C3    C8    D    
C45   H17   S    
C52   O17   S    
C40   H12   S    
C32   H39   S    
C18   C19   A    
C28   H55   S    
C46   C47   A    
C35   C38   A    
O6    P7    D    
C61   P7    S    
C40   H34   S    
C17   C19   A    
C37   C43   A    
C69   H24   S    
C70   N1    Am   
C59   C63   A    
Ba1   O36   S    
C55   C57   A    
O30   S3    D    
C34   H11   S    
C47   C48   A    
C64   H62   S    
C46   P2    S    
C20   C21   A    
C68   S1    S    
O26   S2    D    
C4    H37   S    
C35   C36   A    
C67   C69   S    
C41   H36   S    
O4    P1    S    
C21   C22   A    
C52   C64   S    
O29   S3    D    
O7    P7    S    
Ba1   O33   S    
O27   S2    D    
C50   P3    S    
C34   H14   S    
C13   C39   A    
O24   S1    D    
C25   C26   A    
Ba1   O5    S    
Ba2   O37   S    
C40   H23   S    
C5    C14   S    
C26   O14   D    
C17   C35   A    
H57   O25   S    
C23   O7    S    
C47   H46   S    
C28   C40   S    
Ba1   O19   S    
C7    H27   S    
O19   P2    D    
C19   C24   A    
C27   N2    Am   
Ba1   O15   S    
C38   H32   S    
C53   S3    S    
Br2   C28   S    
C49   H51   S    
Ba2   O32   S    
O12   P2    S    
C2    O13   D    
C36   C37   A    
O15   P6    S    
C65   H52   S    
C33   N2    S    
C51   C53   A    
C66   H2    S    
Ba2   O4    S    
C52   H45   S    
C3    H33   S    
Ba2   P4    S    
C31   P1    S    
O21   P3    D    
C48   C49   A    
C28   O35   S    
O9    P8    S    
C3    C5    S    
C2    C13   A    
C23   H10   S    
O25   S1    S    
C29   H29   S    
C8    N1    S    
C64   H61   S    
C11   C38   A    
Br1   C1    S    
C15   C30   S    
C14   H41   S    
C66   C68   S    
O18   P6    S    
C21   H30   S    
C49   C50   A    
O37   P5    S    
C60   C65   A    
C16   H15   S    
O32   P4    D    
C22   C24   A    
C9    C13   A    
C25   C42   A    
C57   H49   S    
O28   S2    S    
C2    N1    Am   
C23   H9    S    
C54   C55   A    
C68   H6    S    
C15   C31   D    
Ba2   O36   S    
C44   H53   S    
C1    H8    S    
O34   P8    S    
Ba1   O20   S    
C53   C54   A    
C15   H42   S    
C6    C14   D    
C27   O11   D    
C64   H60   S    
C12   H7    S    
O2    P5    D    
C29   C30   S    
O5    P2    S    
C11   H28   S    
O20   P3    S    
C57   C58   A    
C29   C33   D    
C6    C7    D    
C59   C60   A    
C1    H4    S    
C54   C63   S    
C18   C41   A    
C32   C33   S    
C61   C62   A    
C17   C20   A    
C10   C11   A    
C48   C58   S    
C20   H31   S    
C39   H35   S    
C69   H22   S    
O23   P3    S    
C56   H18   S    
C39   C43   A    
O22   S1    D    
C52   H56   S    
C7    C8    S    
Ba2   O34   S    
C51   H44   S    
