data_mof_unit_42631.cif
_audit_creation_date              2013-03-05T16:12:08-0500
_audit_creation_method            fapswitch 2.2
_symmetry_space_group_name_H-M    P1
_symmetry_Int_Tables_number       1
_space_group_crystal_system       triclinic
_cell_length_a                    10.760386
_cell_length_b                    9.62261
_cell_length_c                    27.721507
_cell_angle_alpha                 90.851542
_cell_angle_beta                  88.312013
_cell_angle_gamma                 89.318577
_cell_volume                      2868.58716466

loop_
_atom_site_label
_atom_site_type_symbol
_atom_site_description
_atom_site_fract_x
_atom_site_fract_y
_atom_site_fract_z
_atom_type_partial_charge
O1    O     O_R   0.317570 0.620260 0.500030 -0.574122
O2    O     O_R   0.317570 0.379740 0.500030 -0.573628
C1    C     C_R   0.261111 0.500888 0.503526 0.809387
O3    O     O_R   0.499900 0.620250 0.430280 -0.504187
O4    O     O_R   0.499900 0.379750 0.430280 -0.497496
C2    C     C_R   0.496628 0.499366 0.407781 0.881595
Cu1   Cu    Cu3+1 0.499860 0.642410 0.500020 1.037808
Cu2   Cu    Cu3+1 0.499860 0.357590 0.500020 1.036810
O5    O     O_R   0.682190 0.620260 0.500010 -0.530331
O6    O     O_R   0.682190 0.379740 0.500010 -0.545812
O7    O     O_R   0.499860 0.620280 0.569750 -0.594391
O8    O     O_R   0.499860 0.379720 0.569750 -0.595914
C3    C     C_R   0.738754 0.500123 0.503805 0.817975
C4    C     C_R   0.499181 0.500960 0.592264 0.866085
C5    C     C_R   0.368607 0.492259 0.178602 0.636863
O9    O     O_2   0.273563 0.432727 0.203091 -0.464135
N1    N     N_R   0.473561 0.523990 0.202559 -0.470830
C6    C     C_R   0.577688 0.570986 0.179141 0.625590
C7    C     C_R   0.528507 0.398366 0.275483 -0.120835
C8    C     C_R   0.534153 0.391327 0.325630 -0.110199
C9    C     C_R   0.426007 0.613009 0.333333 -0.163525
C10   C     C_R   0.420125 0.620473 0.283287 0.438994
C11   C     C_R   0.472831 0.513472 0.254132 0.229012
C12   C     C_R   0.471232 0.555104 0.103052 -0.102861
C13   C     C_R   0.361104 0.518256 0.128715 -0.022920
C14   C     C_R   0.247353 0.512689 0.104047 -0.122147
C15   C     C_R   0.580763 0.584287 0.128448 -0.113286
C16   C     C_R   0.485407 0.500167 0.354954 -0.129781
H1    H     H_    0.383696 0.695529 0.355278 0.252931
C17   C     C_R   0.496347 0.503834 0.645291 -0.040592
C18   C     C_R   0.375064 0.499670 0.976313 0.080137
C19   C     C_R   0.581717 0.602408 0.974509 0.030931
C20   C     C_R   0.480697 0.545216 0.949826 0.077304
C21   C     C_R   0.285681 0.422308 0.952088 -0.202010
C22   C     C_R   0.286548 0.410644 0.901958 -0.013523
C23   C     C_R   0.387582 0.465161 0.874305 -0.042615
C24   C     C_R   0.485398 0.532436 0.898586 -0.047154
C25   C     C_R   0.587964 0.586511 0.871743 -0.100920
C26   C     C_R   0.583407 0.583452 0.820822 0.588501
N2    N     N_R   0.490986 0.514446 0.798310 -0.452064
C27   C     C_R   0.397925 0.450368 0.823526 0.611880
C28   C     C_R   0.451993 0.627818 0.720933 0.447378
C29   C     C_R   0.455595 0.624220 0.670597 -0.200719
C30   C     C_R   0.533267 0.386551 0.671047 -0.168084
C31   C     C_R   0.531171 0.390460 0.721370 -0.128060
C32   C     C_R   0.490937 0.510869 0.746515 0.262484
O10   O     O_2   0.317166 0.372016 0.799127 -0.463419
C33   C     C_R   0.363972 0.526501 0.026873 0.058775
C34   C     C_R   0.472232 0.560624 0.051910 0.061238
C35   C     C_R   0.581705 0.598766 0.025894 -0.003623
C36   C     C_R   0.248313 0.523523 0.053214 -0.103875
H2    H     H_    0.424962 0.714980 0.651358 0.164743
H3    H     H_    0.212033 0.371343 0.972238 0.125498
O11   O     O_2   0.677293 0.603134 0.205267 -0.412255
C37   C     C_R   0.688591 0.624925 0.102166 0.414886
H4    H     H_    0.579292 0.302689 0.341094 0.239714
H5    H     H_    0.568968 0.315378 0.253124 0.187088
C38   C     C_R   0.681541 0.656725 0.947063 -0.167072
C39   C     C_R   0.688105 0.646238 0.896742 -0.031901
O12   O     O_2   0.668285 0.651143 0.793569 -0.510742
C40   C     C_R   0.688426 0.629643 0.052112 -0.242993
H6    H     H_    0.757549 0.707922 0.964056 0.186231
H7    H     H_    0.565183 0.292585 0.652333 0.155236
H8    H     H_    0.561218 0.300080 0.740929 0.176563
H9    H     H_    0.776112 0.653584 0.034670 0.176085
C41   C     C_3   0.070738 0.639390 0.533153 -0.243013
C42   C     C_3   0.072816 0.370289 0.534928 -0.177453
H10   H     H_    0.104764 0.727858 0.511211 0.156420
H11   H     H_    0.097109 0.280507 0.510332 0.128006
C43   C     C_3   0.925741 0.644566 0.529755 -0.168319
C44   C     C_3   0.927539 0.377926 0.538237 -0.227519
H12   H     H_    0.907704 0.723361 0.502056 0.186878
H13   H     H_    0.900197 0.283770 0.518941 0.196451
H14   H     H_    0.104423 0.591434 0.436103 0.235954
H15   H     H_    0.116604 0.405974 0.435562 0.221045
H16   H     H_    0.894805 0.568485 0.432606 0.232841
H17   H     H_    0.906367 0.384737 0.440198 0.235977
C45   C     C_3   0.075376 0.496837 0.455922 -0.426996
C46   C     C_3   0.123366 0.502293 0.508273 0.051340
C47   C     C_3   0.877283 0.502497 0.508407 0.017924
C48   C     C_3   0.932872 0.486629 0.456207 -0.411782
C49   C     C_3   0.610226 0.078167 0.472921 0.691028
C50   C     C_3   0.586835 0.918913 0.461823 0.661970
H18   H     H_    0.582984 0.135100 0.571774 0.236182
H19   H     H_    0.629655 0.892591 0.557232 0.240829
C51   C     C_3   0.509293 0.084245 0.550916 -0.389841
C52   C     C_3   0.531953 0.919114 0.548935 -0.391636
C53   C     C_3   0.379916 0.084969 0.484471 0.263799
C54   C     C_3   0.372983 0.920479 0.491755 0.277519
N3    N     N_3   0.500250 0.143650 0.501060 -0.251855
N4    N     N_3   0.500250 0.856350 0.501060 -0.256259
H20   H     H_    0.302627 0.129987 0.507413 0.094497
H21   H     H_    0.311589 0.903229 0.524183 0.055516
H22   H     H_    0.423173 0.108217 0.572967 0.171141
H23   H     H_    0.473803 0.872899 0.578146 0.194323
Cl1   Cl    Cl    0.829670 0.671377 0.128659 -0.481101
C55   C     C_2   0.806596 0.688532 0.872521 0.509347
H24   H     H_    0.844889 0.630083 0.841717 0.143261
O13   O     O_2   0.865066 0.787040 0.887814 -0.495015
C56   C     C_2   0.124060 0.667979 0.582471 0.424993
H25   H     H_    0.212380 0.720731 0.584606 0.053979
O14   O     O_2   0.072810 0.630303 0.619790 -0.423379
C57   C     C_2   0.134112 0.327811 0.581297 0.488312
H26   H     H_    0.103493 0.233747 0.598954 0.075820
O15   O     O_2   0.219057 0.392818 0.598603 -0.537668
C58   C     C_2   0.857744 0.706021 0.574121 0.522514
H27   H     H_    0.884049 0.808123 0.587163 0.078942
O16   O     O_2   0.772791 0.646540 0.594935 -0.537959
C59   C     C_2   0.864756 0.366008 0.587812 0.440256
H28   H     H_    0.774422 0.317411 0.590821 0.077038
O17   O     O_2   0.910569 0.412777 0.624283 -0.434324
Cl2   Cl    Cl    0.349203 0.766569 0.257776 -0.432831
Cl3   Cl    Cl    0.751986 0.093173 0.506425 -0.676578
Cl4   Cl    Cl    0.734331 0.836014 0.450232 -0.506225
Cl5   Cl    Cl    0.656650 0.165622 0.418982 -0.453302
Cl6   Cl    Cl    0.531251 0.896593 0.401184 -0.390665
Cl7   Cl    Cl    0.341745 0.143781 0.425297 -0.431088
Cl8   Cl    Cl    0.282512 0.841143 0.444961 -0.509901
C60   C     C_2   0.125814 0.512258 0.130948 0.554239
H29   H     H_    0.053839 0.440833 0.120457 0.054689
O18   O     O_2   0.103931 0.595623 0.163845 -0.385432
Cl9   Cl    Cl    0.396960 0.779225 0.751282 -0.515933
C61   C     C_2   0.174567 0.347985 0.881261 0.511125
H30   H     H_    0.139973 0.250525 0.895207 0.061818
O19   O     O_2   0.114463 0.410006 0.851521 -0.458783
C62   C     C_2   0.129168 0.557348 0.029341 0.384390
H31   H     H_    0.042114 0.513090 0.041907 0.056809
O20   O     O_2   0.126933 0.639266 0.996128 -0.482015

loop_
_geom_bond_atom_site_label_1
_geom_bond_atom_site_label_2
_geom_bond_distance
_ccdc_geom_bond_type
C38   H6    1.076533 S    
C41   H10   1.112849 S    
C62   H31   1.083912 S    
C52   N4    1.500092 S    
C7    C8    1.395888 A    
C12   C15   1.419333 A    
C19   C38   1.408161 A    
C8    H4    1.077243 S    
C1    C46   1.484035 S    
C55   H24   1.083868 S    
C42   C57   1.521054 S    
C61   H30   1.085422 S    
C41   C43   1.566079 S    
C31   C32   1.400744 A    
C7    H5    1.082840 S    
Cu1   O7    1.947858 S    
C41   C46   1.571295 S    
N1    C11   1.434565 S    
C23   C24   1.423019 A    
H18   C51   1.109225 S    
C49   Cl5   1.788010 S    
C59   O17   1.220165 D    
O4    C2    1.317854 A    
O7    C4    1.314952 A    
C15   C37   1.414018 A    
C29   H2    1.083138 S    
C61   O19   1.221071 D    
C58   H27   1.085460 S    
C5    O9    1.348917 S    
C37   C40   1.389025 A    
C5    N1    1.362377 A    
C21   C22   1.392294 A    
C28   C32   1.405343 A    
C41   C56   1.520795 S    
O5    C3    1.307131 A    
C51   H22   1.114887 S    
C33   C36   1.425076 A    
C2    C16   1.473078 S    
C53   H20   1.111697 S    
C52   H23   1.110173 S    
C18   C20   1.412591 A    
C54   N4    1.525828 S    
C53   C54   1.600969 S    
C60   O18   1.221363 D    
C3    C47   1.500225 S    
C9    C10   1.393537 A    
C50   Cl4   1.786265 S    
C17   C30   1.404014 A    
C23   C27   1.413721 A    
C4    C17   1.469268 S    
O3    Cu1   1.941856 S    
C44   C47   1.566382 S    
C55   O13   1.221497 D    
H19   C52   1.110360 S    
C30   H7    1.082962 S    
C43   C47   1.581807 S    
Cu1   Cu2   2.740711 S    
C42   C46   1.573533 S    
C12   C13   1.415617 A    
O3    C2    1.313021 A    
C51   N3    1.508802 S    
C26   N2    1.363574 A    
C44   H13   1.093064 S    
C51   C52   1.604603 S    
C37   Cl1   1.765156 S    
C8    C16   1.403331 A    
C38   C39   1.396748 A    
C9    H1    1.081017 S    
C20   C24   1.423312 A    
O1    C1    1.309334 A    
C22   C23   1.421696 A    
C7    C11   1.400236 A    
C24   C25   1.421015 A    
H17   C48   1.113913 S    
Cu2   O8    1.941567 S    
Cu1   N4    2.058490 S    
C56   O14   1.219886 D    
N1    C6    1.363537 A    
C27   O10   1.347645 S    
C18   C21   1.403713 A    
C57   O15   1.219607 D    
C14   C60   1.486359 S    
C19   C35   1.425401 A    
N2    C27   1.363027 A    
C9    C16   1.404351 A    
C53   N3    1.500571 S    
C49   C50   1.583062 S    
C10   Cl2   1.759182 S    
C18   C33   1.422696 A    
C43   C58   1.520763 S    
C39   C55   1.487329 S    
C17   C29   1.404281 A    
Cu2   N3    2.059248 S    
C28   C29   1.394695 A    
N2    C32   1.435750 S    
C30   C31   1.394499 A    
C28   Cl9   1.759211 S    
C12   C34   1.419237 A    
Cu1   O5    1.970955 S    
C33   C34   1.412994 A    
C62   O20   1.221496 D    
O1    Cu1   1.975569 S    
C36   C62   1.494668 S    
C50   Cl6   1.811402 S    
O2    Cu2   1.970528 S    
C6    C15   1.412441 A    
C49   Cl3   1.815216 S    
O8    C4    1.314729 A    
C47   C48   1.554132 S    
O6    C3    1.319218 A    
H16   C48   1.113412 S    
O4    Cu2   1.948157 S    
C60   H29   1.084785 S    
C50   N4    1.544885 S    
C31   H8    1.082831 S    
C49   N3    1.522900 S    
C19   C20   1.414042 A    
C22   C61   1.480669 S    
O2    C1    1.309116 A    
C13   C14   1.420734 A    
C59   H28   1.085203 S    
C45   C46   1.554994 S    
C45   C48   1.537507 S    
C25   C26   1.413780 A    
C58   O16   1.219561 D    
C26   O12   1.348092 S    
C44   C59   1.519889 S    
C56   H25   1.085470 S    
C42   C44   1.564023 S    
C54   H21   1.115419 S    
H15   C45   1.114083 S    
C5    C13   1.413493 A    
C6    O11   1.347572 S    
C25   C39   1.420778 A    
C40   H9    1.076456 S    
C54   Cl8   1.809937 S    
C21   H3    1.082511 S    
Cu2   O6    1.975995 S    
C34   C35   1.417938 A    
H14   C45   1.113397 S    
C57   H26   1.085433 S    
C35   C40   1.409307 A    
C10   C11   1.403350 A    
C43   H12   1.106692 S    
C42   H11   1.116351 S    
C53   Cl7   1.800438 S    
C14   C36   1.414287 A    
