data_mof_unit_39336.cif
_audit_creation_date              2012-12-10T17:47:04-0500
_audit_creation_method            fapswitch 2.2
_symmetry_space_group_name_H-M    P1
_symmetry_Int_Tables_number       1
_space_group_crystal_system       triclinic
_cell_length_a                    9.952685
_cell_length_b                    10.70824
_cell_length_c                    13.557086
_cell_angle_alpha                 90.964931
_cell_angle_beta                  81.557464
_cell_angle_gamma                 88.450021
_cell_volume                      1428.36002818

loop_
_atom_site_label
_atom_site_type_symbol
_atom_type_description
_atom_site_fract_x
_atom_site_fract_y
_atom_site_fract_z
_atom_type_partial_charge
C1    C     C_R   0.496146 0.739922 0.509966 0.876582
C2    C     C_R   0.614665 0.932086 0.524336 -0.245513
C3    C     C_R   0.625129 0.057737 0.507960 -0.003696
C4    C     C_R   0.474231 0.500415 0.685890 0.888335
C5    C     C_R   0.512687 0.124855 0.479218 -0.168998
C6    C     C_R   0.831396 0.623939 0.654640 -0.189149
C7    C     C_R   0.873982 0.636556 0.747837 0.028237
C8    C     C_R   0.994890 0.576902 0.763918 -0.203964
C9    C     C_R   0.082271 0.523395 0.683140 -0.142733
C10   C     C_R   0.050527 0.530262 0.585625 0.150162
C11   C     C_R   0.911423 0.554024 0.578040 0.131561
C12   C     C_1   0.453138 0.502564 0.790581 -0.176087
C13   C     C_R   0.946470 0.452439 0.421625 0.018322
C14   C     C_R   0.089460 0.460769 0.419174 -0.149733
C15   C     C_R   0.504204 0.259850 0.490752 0.876442
C16   C     C_R   0.525821 0.500470 0.314117 0.909602
C17   C     C_1   0.547219 0.499982 0.209399 -0.145087
C18   C     C_2   0.559757 0.498162 0.016717 -0.135422
C19   C     C_2   0.441135 0.506089 0.983226 -0.149289
C20   C     C_1   0.441905 0.504472 0.879032 0.018761
C21   C     C_1   0.558805 0.499113 0.120928 0.025930
C22   C     C_1   0.788696 0.701740 0.828464 0.148591
C23   C     C_R   0.239831 0.907975 0.535262 0.036598
C24   C     C_1   0.205557 0.838065 0.624800 0.184953
C25   C     C_1   0.326552 0.192644 0.326570 0.155782
C26   C     C_1   0.752933 0.112340 0.521428 0.210358
C27   C     C_1   0.897276 0.390230 0.339842 0.226566
C28   C     C_R   0.135052 0.963335 0.491303 -0.188145
C29   C     C_R   0.164564 0.057036 0.421859 -0.179370
C30   C     C_R   0.294064 0.107836 0.407617 0.045745
C31   C     C_R   0.395220 0.060772 0.462146 0.024174
C32   C     C_R   0.374774 0.945533 0.507123 0.034855
C33   C     C_R   0.491299 0.874424 0.521581 -0.134367
H1    H     H_    0.736795 0.668341 0.643143 0.180792
H2    H     H_    0.161132 0.462440 0.700973 0.185864
H3    H     H_    0.157344 0.428050 0.353720 0.167514
H4    H     H_    0.655806 0.490359 0.966805 0.163941
H5    H     H_    0.703698 0.879150 0.539485 0.162613
H6    H     H_    0.085537 0.092958 0.381985 0.158435
H7    H     H_    0.345087 0.513538 0.033170 0.160036
H8    H     H_    0.022269 0.572500 0.838277 0.156322
H9    H     H_    0.031351 0.933849 0.510493 0.151594
N1    N     N_R   0.857120 0.501200 0.500900 -0.129517
N2    N     N_R   0.142720 0.501280 0.500940 -0.117859
N3    N     N_1   0.720065 0.754223 0.893196 -0.193315
N4    N     N_1   0.180089 0.784817 0.698280 -0.198341
N5    N     N_1   0.352419 0.258973 0.260446 -0.216356
N6    N     N_1   0.854783 0.156148 0.532671 -0.213245
N7    N     N_1   0.858987 0.339223 0.273817 -0.209076
O1    O     O_R   0.385310 0.683220 0.500000 -0.605084
O2    O     O_R   0.614640 0.683250 0.500010 -0.638495
O3    O     O_R   0.368830 0.499960 0.640340 -0.629792
O4    O     O_R   0.598160 0.499980 0.640350 -0.617118
O5    O     O_R   0.385360 0.316750 0.499990 -0.608242
O6    O     O_R   0.614690 0.316780 0.500000 -0.602042
O7    O     O_R   0.401840 0.500020 0.359650 -0.609150
O8    O     O_R   0.631170 0.500040 0.359660 -0.605141
Zn1   Zn    Zn3+2 0.346870 0.499980 0.499990 0.962503
Zn2   Zn    Zn3+2 0.653130 0.500020 0.500010 0.963155

loop_
_geom_bond_atom_site_label_1
_geom_bond_atom_site_label_2
_ccdc_geom_bond_type
C25   C30   S    
C23   C24   S    
C16   O7    A    
C11   N1    A    
C6    C7    A    
C1    O1    A    
N1    Zn2   S    
C4    O4    A    
C4    C12   S    
C7    C22   S    
C9    C10   A    
C2    H5    S    
C19   C20   S    
C26   N6    T    
C24   N4    T    
C23   C32   A    
C29   H6    S    
C2    C3    A    
O4    Zn2   S    
C1    C33   S    
C7    C8    A    
C15   O6    A    
C23   C28   A    
C32   C33   A    
C1    O2    A    
C12   C20   T    
C29   C30   A    
O3    Zn1   S    
C4    O3    A    
C27   N7    T    
C19   H7    S    
C2    C33   A    
C28   H9    S    
C28   C29   A    
C18   H4    S    
O7    Zn1   S    
O6    Zn2   S    
C16   O8    A    
C14   H3    S    
C30   C31   A    
C5    C15   S    
O8    Zn2   S    
C10   C11   A    
C10   N2    A    
C18   C21   S    
C15   O5    A    
C6    H1    S    
C13   N1    A    
C22   N3    T    
O2    Zn2   S    
C8    H8    S    
C14   N2    A    
C18   C19   D    
O5    Zn1   S    
C6    C11   A    
C9    H2    S    
C25   N5    T    
C13   C27   S    
C3    C5    A    
C13   C14   A    
C3    C26   S    
C17   C21   T    
C31   C32   A    
C16   C17   S    
N2    Zn1   S    
C8    C9    A    
C5    C31   A    
O1    Zn1   S    
