data_mof_unit_63802.cif
_audit_creation_date              2012-12-10T19:27:18-0500
_audit_creation_method            fapswitch 2.2
_symmetry_space_group_name_H-M    P1
_symmetry_Int_Tables_number       1
_space_group_crystal_system       triclinic
_cell_length_a                    18.922359
_cell_length_b                    18.949353
_cell_length_c                    18.566075
_cell_angle_alpha                 109.585053
_cell_angle_beta                  109.244474
_cell_angle_gamma                 110.344032
_cell_volume                      5075.6975701

loop_
_atom_site_label
_atom_site_type_symbol
_atom_type_description
_atom_site_fract_x
_atom_site_fract_y
_atom_site_fract_z
_atom_type_partial_charge
Br1   Br    Br    0.366128 0.151479 0.381499 -0.427987
Br2   Br    Br    0.913598 0.158601 0.893961 -0.498155
Br3   Br    Br    0.810499 0.600241 0.056041 -0.501096
Br4   Br    Br    0.253918 0.806437 0.311598 -0.443961
Br5   Br    Br    0.123256 0.657915 0.330022 -0.496662
Br6   Br    Br    0.823886 0.320792 0.721942 -0.500525
Br7   Br    Br    0.626078 0.146780 0.632126 -0.424476
C1    C     C_R   0.380262 0.379895 0.500593 0.873496
C2    C     C_R   0.583911 0.347828 0.632015 -0.175855
C3    C     C_R   0.272982 0.226889 0.439803 0.001201
C4    C     C_R   0.620701 0.501989 0.620928 0.850842
C5    C     C_R   0.315584 0.314604 0.502640 -0.119270
C6    C     C_R   0.292527 0.337817 0.568354 -0.171198
C7    C     C_R   0.227461 0.273015 0.567920 -0.206379
C8    C     C_R   0.185039 0.185551 0.501339 -0.009087
C9    C     C_R   0.209531 0.165059 0.438649 -0.031473
C10   C     C_3   0.190655 0.091225 0.358123 -0.573548
C11   C     C_3   0.263537 0.161872 0.358732 0.714614
C12   C     C_R   0.762948 0.582779 0.757318 0.073808
C13   C     C_R   0.241420 0.423941 0.242325 0.113239
C14   C     C_R   0.317002 0.500439 0.312644 -0.092697
C15   C     C_R   0.328521 0.580231 0.318998 -0.188978
C16   C     C_R   0.620178 0.619988 0.499962 0.852359
C17   C     C_R   0.263921 0.580402 0.254606 -0.132555
C18   C     C_R   0.186573 0.501046 0.185763 -0.086827
C19   C     C_R   0.178059 0.424364 0.182596 0.097590
C20   C     C_3   0.119106 0.327757 0.133257 -0.417149
C21   C     C_3   0.191316 0.327460 0.202662 -0.453160
C22   C     C_R   0.751169 0.675245 0.489821 0.063805
C23   C     C_R   0.813684 0.500295 0.812793 -0.153193
C24   C     C_R   0.683389 0.684651 0.496255 -0.057349
C25   C     C_R   0.674486 0.754225 0.493543 -0.192313
C26   C     C_R   0.738814 0.818532 0.493492 -0.200608
C27   C     C_R   0.812897 0.814248 0.499229 -0.036915
C28   C     C_R   0.380133 0.499337 0.379284 0.875886
C29   C     C_R   0.816369 0.740392 0.493251 0.069958
C30   C     C_3   0.885738 0.731165 0.550226 0.261968
C31   C     C_3   0.813251 0.658439 0.545518 -0.536426
C32   C     C_R   0.003670 0.380152 0.883565 0.925445
C33   C     C_R   0.879725 0.499420 0.879095 0.937134
C34   C     C_R   0.737650 0.420334 0.739835 -0.024305
C35   C     C_R   0.999282 0.620127 0.119227 0.944594
C36   C     C_R   0.120103 0.500043 0.119999 0.895524
C37   C     C_R   0.000455 0.119254 0.620640 0.869403
C38   C     C_R   0.119669 0.119300 0.499716 0.875489
C39   C     C_R   0.998827 0.879670 0.378936 0.891183
C40   C     C_R   0.780968 0.663292 0.760490 -0.165265
C41   C     C_R   0.879864 0.880873 0.500928 0.865590
C42   C     C_R   0.954067 0.226764 0.787852 0.117139
C43   C     C_R   0.008181 0.315006 0.821262 -0.092019
C44   C     C_R   0.065930 0.338730 0.789647 -0.169279
C45   C     C_R   0.667992 0.424064 0.687531 0.041537
C46   C     C_R   0.064061 0.273823 0.723153 -0.203928
C47   C     C_R   0.004427 0.185669 0.688379 -0.032675
C48   C     C_R   0.951936 0.164853 0.723612 0.052002
C49   C     C_3   0.877047 0.091260 0.711581 -0.529011
C50   C     C_3   0.878820 0.162157 0.785128 0.150420
C51   C     C_R   0.075820 0.758160 0.255611 0.041539
C52   C     C_R   0.852881 0.741942 0.834069 -0.115366
C53   C     C_R   0.997152 0.687080 0.181380 -0.154624
C54   C     C_R   0.919104 0.687409 0.164458 0.241664
C55   C     C_R   0.920290 0.752903 0.229130 -0.217490
C56   C     C_R   0.684790 0.503280 0.689870 -0.149049
C57   C     C_R   0.998434 0.816280 0.309884 -0.116665
C58   C     C_R   0.076393 0.821511 0.319400 0.007519
C59   C     C_3   0.151299 0.833647 0.393485 -0.453063
C60   C     C_3   0.151130 0.763373 0.322676 0.447129
C61   C     C_R   0.907351 0.742064 0.905798 -0.121404
C62   C     C_R   0.893147 0.663259 0.901817 -0.113038
C63   C     C_R   0.823838 0.582048 0.824810 0.082779
C64   C     C_R   0.727949 0.336495 0.715148 0.221741
C65   C     C_R   0.644186 0.261040 0.660603 0.312145
C66   C     C_R   0.571990 0.267920 0.622474 -0.183776
H1    H     H_    0.507208 0.210266 0.580336 0.210193
H2    H     H_    0.739864 0.666782 0.706949 0.150333
H3    H     H_    0.222745 0.295163 0.175019 0.234299
H4    H     H_    0.619256 0.759591 0.493339 0.165502
H5    H     H_    0.732946 0.873386 0.493379 0.166914
H6    H     H_    0.920477 0.709918 0.517768 0.106935
H7    H     H_    0.803205 0.592958 0.507420 0.189799
H8    H     H_    0.815922 0.673585 0.610000 0.214735
H9    H     H_    0.110675 0.406600 0.814358 0.175061
H10   H     H_    0.107456 0.292166 0.698064 0.135792
H11   H     H_    0.817839 0.057396 0.645613 0.206234
H12   H     H_    0.209982 0.290939 0.618463 0.134661
H13   H     H_    0.865125 0.803050 0.836253 0.163117
H14   H     H_    0.895789 0.047876 0.730303 0.242401
H15   H     H_    0.820281 0.168293 0.761811 0.199186
H16   H     H_    0.859856 0.751640 0.218175 0.190373
H17   H     H_    0.209929 0.899789 0.428604 0.220039
H18   H     H_    0.132499 0.813781 0.437382 0.223280
H19   H     H_    0.961359 0.803362 0.964416 0.155455
H20   H     H_    0.936510 0.667531 0.960267 0.160029
H21   H     H_    0.526913 0.349580 0.596362 0.167401
H22   H     H_    0.324283 0.405235 0.619597 0.175844
H23   H     H_    0.207274 0.045142 0.373153 0.221379
H24   H     H_    0.184342 0.182236 0.280308 0.314572
H25   H     H_    0.983058 0.791506 0.668431 0.342161
H26   H     H_    0.124025 0.060273 0.301607 0.207290
H27   H     H_    0.386995 0.641633 0.372926 0.169013
H28   H     H_    0.273527 0.641945 0.259495 0.209874
H29   H     H_    0.058455 0.308237 0.137095 0.235644
H30   H     H_    0.109446 0.296469 0.065635 0.227921
H31   H     H_    0.172624 0.308719 0.247162 0.204602
O1    O     O_R   0.408400 0.356680 0.448290 -0.578577
O2    O     O_R   0.948300 0.091670 0.539990 -0.610524
O3    O     O_R   0.143340 0.091640 0.551750 -0.617756
O4    O     O_R   0.408370 0.460100 0.551700 -0.628377
O5    O     O_R   0.039900 0.091690 0.448360 -0.617752
O6    O     O_R   0.051700 0.908430 0.460110 -0.622433
O7    O     O_R   0.948260 0.908480 0.356720 -0.623230
O8    O     O_R   0.960100 0.908410 0.551740 -0.573317
O9    O     O_R   0.856660 0.908460 0.448350 -0.631025
O10   O     O_R   0.591630 0.448290 0.539910 -0.601584
O11   O     O_R   0.591590 0.551710 0.643320 -0.623583
O12   O     O_R   0.051700 0.460090 0.908430 -0.629217
O13   O     O_R   0.591630 0.539900 0.448300 -0.612796
O14   O     O_R   0.591600 0.643320 0.551710 -0.627180
O15   O     O_R   0.408410 0.448290 0.356680 -0.609652
O16   O     O_R   0.408370 0.551710 0.460090 -0.613231
O17   O     O_R   0.948260 0.356680 0.908450 -0.586727
O18   O     O_3   0.234155 0.173333 0.285650 -0.725015
O19   O     O_3   0.941002 0.804650 0.635770 -0.711056
O20   O     O_R   0.856640 0.448300 0.908430 -0.581132
O21   O     O_R   0.960090 0.551710 0.908400 -0.632214
O22   O     O_R   0.948250 0.539920 0.091630 -0.572447
O23   O     O_R   0.051690 0.643330 0.091610 -0.618194
O24   O     O_R   0.039870 0.448310 0.091660 -0.603072
O25   O     O_R   0.143310 0.551720 0.091640 -0.621697
O26   O     O_R   0.051740 0.091620 0.643380 -0.614584
Zn1   Zn    Zn3+2 0.500020 0.430950 0.430950 1.050928
Zn2   Zn    Zn3+2 0.499980 0.569050 0.569050 0.993893
Zn3   Zn    Zn3+2 0.930910 0.430960 0.000050 1.088158
Zn4   Zn    Zn3+2 0.069050 0.569060 0.000020 1.018930
Zn5   Zn    Zn3+2 0.069070 0.000020 0.569080 1.014917
Zn6   Zn    Zn3+2 0.930930 0.000080 0.431020 0.999560

loop_
_geom_bond_atom_site_label_1
_geom_bond_atom_site_label_2
_ccdc_geom_bond_type
O21   Zn4   S    
C48   C49   S    
O10   Zn1   S    
C28   O15   A    
O26   Zn5   S    
O23   Zn4   S    
Br5   C60   S    
C1    O1    A    
C18   C36   S    
C16   O14   A    
O6    Zn5   S    
Br2   C50   S    
O1    Zn1   S    
C46   C47   A    
C30   H6    S    
C22   C29   A    
Br1   C11   S    
C30   C31   S    
C13   C19   A    
O20   Zn3   S    
C6    H22   S    
C29   C30   S    
C62   H20   S    
C62   C63   A    
C38   O5    A    
C26   H5    S    
O12   Zn4   S    
C37   O26   A    
C8    C9    A    
C55   H16   S    
C42   C50   S    
C49   C50   S    
C17   H28   S    
C66   H1    S    
C4    O10   A    
C55   C57   A    
C25   H4    S    
C30   O19   S    
O22   Zn3   S    
C12   C56   A    
C9    C10   S    
O9    Zn6   S    
C22   C31   S    
O15   Zn1   S    
C23   C34   A    
C6    C7    A    
C4    O11   A    
C34   C45   A    
C34   C64   A    
O2    Zn6   S    
C59   C60   S    
C14   C15   A    
O5    Zn6   S    
C28   O16   A    
Br6   C64   S    
C2    C45   A    
C2    C66   A    
O13   Zn1   S    
C1    O4    A    
C23   C63   A    
C49   H11   S    
O11   Zn2   S    
Br3   C54   S    
H25   O19   S    
C33   O20   A    
C15   H27   S    
C36   O25   A    
C17   C18   A    
C59   H17   S    
C35   C53   S    
Br7   C65   S    
C61   C62   A    
C49   H14   S    
C13   C21   S    
C43   C44   A    
C18   C19   A    
C42   C48   A    
C39   C57   S    
C53   C54   A    
C44   C46   A    
C16   C24   S    
H24   O18   S    
C52   C61   A    
C21   H31   S    
C51   C58   A    
C24   C25   A    
C1    C5    S    
C10   C11   S    
C19   C20   S    
C23   C33   S    
C10   H23   S    
C13   C14   A    
C10   H26   S    
C44   H9    S    
C3    C5    A    
C35   O23   A    
C11   O18   S    
C41   O8    A    
C58   C59   S    
C39   O6    A    
C31   H8    S    
C15   C17   A    
C27   C41   S    
C8    C38   S    
O8    Zn5   S    
C21   H3    S    
C47   C48   A    
O16   Zn2   S    
O3    Zn5   S    
C7    H12   S    
C65   C66   A    
C45   C56   A    
C36   O24   A    
C16   O13   A    
Br4   C60   S    
C59   H18   S    
C14   C28   S    
C37   O2    A    
C20   H29   S    
C4    C56   S    
C32   O17   A    
C50   H15   S    
C46   H10   S    
C25   C26   A    
C52   H13   S    
C40   H2    S    
C64   C65   A    
C22   C24   A    
C3    C9    A    
O24   Zn3   S    
C57   C58   A    
C31   H7    S    
C3    C11   S    
C33   O21   A    
C20   H30   S    
C61   H19   S    
C26   C27   A    
C27   C29   A    
C54   C55   A    
O7    Zn6   S    
O4    Zn2   S    
O14   Zn2   S    
C35   O22   A    
C40   C52   A    
O25   Zn4   S    
C37   C47   S    
C51   C60   S    
C32   C43   S    
C5    C6    A    
C42   C43   A    
C12   C40   A    
C20   C21   S    
C32   O12   A    
C7    C8    A    
C12   C63   A    
O17   Zn3   S    
C39   O7    A    
C51   C53   A    
C2    H21   S    
C38   O3    A    
C41   O9    A    
