data_mof_unit_34358.cif
_audit_creation_date              2012-12-11T14:54:19-0500
_audit_creation_method            fapswitch 2.2
_symmetry_space_group_name_H-M    P1
_symmetry_Int_Tables_number       1
_space_group_crystal_system       triclinic
_cell_length_a                    18.98523
_cell_length_b                    10.91124
_cell_length_c                    18.876082
_cell_angle_alpha                 90.133159
_cell_angle_beta                  90.035983
_cell_angle_gamma                 90.022802
_cell_volume                      3910.21406436

loop_
_atom_site_label
_atom_site_type_symbol
_atom_type_description
_atom_site_fract_x
_atom_site_fract_y
_atom_site_fract_z
_atom_type_partial_charge
C1    C     C_R   0.728026 0.372638 0.644024 0.568119
C2    C     C_R   0.270742 0.374113 0.354994 0.548491
C3    C     C_R   0.228026 0.872638 0.644024 0.568118
C4    C     C_R   0.770741 0.874113 0.354994 0.548491
C5    C     C_3   0.451393 0.368210 0.465953 -0.235517
C6    C     C_3   0.462379 0.364182 0.545429 -0.261416
C7    C     C_3   0.951394 0.868210 0.465953 -0.235518
C8    C     C_3   0.962379 0.864182 0.545429 -0.261416
C9    C     C_R   0.723577 0.830613 0.544652 0.372965
C10   C     C_R   0.309219 0.883013 0.463727 0.358369
C11   C     C_R   0.223577 0.330613 0.544652 0.372965
C12   C     C_R   0.809219 0.383014 0.463727 0.358368
C13   C     C_R   0.727208 0.811448 0.472014 -0.075219
C14   C     C_R   0.303479 0.872261 0.536816 -0.113462
C15   C     C_R   0.227208 0.311448 0.472014 -0.075219
C16   C     C_R   0.803479 0.372261 0.536816 -0.113462
C17   C     C_R   0.753678 0.904019 0.427410 -0.025523
C18   C     C_R   0.239315 0.898102 0.569626 -0.012168
C19   C     C_R   0.253678 0.404019 0.427410 -0.025523
C20   C     C_R   0.739315 0.398101 0.569625 -0.012167
C21   C     C_R   0.775746 0.015691 0.455291 -0.160332
C22   C     C_R   0.180189 0.929634 0.528672 -0.104978
C23   C     C_R   0.275746 0.515691 0.455291 -0.160331
C24   C     C_R   0.680188 0.429630 0.528672 -0.104979
C25   C     C_R   0.772734 0.034219 0.527418 -0.188981
C26   C     C_R   0.185242 0.937974 0.456344 -0.193150
C27   C     C_R   0.272733 0.534219 0.527418 -0.188980
C28   C     C_R   0.685242 0.437971 0.456344 -0.193149
C29   C     C_R   0.747421 0.941671 0.572410 0.036467
C30   C     C_R   0.250196 0.920196 0.423451 0.018018
C31   C     C_R   0.247421 0.441671 0.572410 0.036467
C32   C     C_R   0.750196 0.420195 0.423450 0.018017
C33   C     C_R   0.534132 0.059195 0.972158 -0.095197
C34   C     C_R   0.525117 0.062811 0.044446 -0.125230
C35   C     C_R   0.034134 0.559198 0.972159 -0.095195
C36   C     C_R   0.025119 0.562814 0.044446 -0.125232
C37   C     C_R   0.498106 0.168221 0.076371 0.018332
C38   C     C_R   0.518359 0.162197 0.930434 0.036909
C39   C     C_R   0.998105 0.668221 0.076371 0.018331
C40   C     C_R   0.018359 0.662197 0.930433 0.036912
C41   C     C_R   0.485913 0.274113 0.035675 -0.135948
C42   C     C_R   0.496465 0.271226 0.962700 -0.145678
C43   C     C_R   0.985909 0.774112 0.035674 -0.135946
C44   C     C_R   0.996461 0.771224 0.962699 -0.145676
C45   C     C_R   0.536812 0.152936 0.643233 0.554313
C46   C     C_R   0.469879 0.155512 0.352328 0.561975
C47   C     C_R   0.036812 0.652936 0.643233 0.554313
C48   C     C_R   0.969879 0.655512 0.352328 0.561975
C49   C     C_R   0.791257 0.020066 0.972323 -0.154402
C50   C     C_R   0.183963 0.932450 0.043046 -0.120781
C51   C     C_R   0.291257 0.520065 0.972323 -0.154400
C52   C     C_R   0.683963 0.432443 0.043047 -0.120782
C53   C     C_R   0.792377 0.007123 0.044723 -0.198999
C54   C     C_R   0.178551 0.922507 0.970631 -0.172133
C55   C     C_R   0.292377 0.507122 0.044723 -0.198998
C56   C     C_R   0.678550 0.422499 0.970632 -0.172133
C57   C     C_R   0.750385 0.918122 0.076939 0.031383
C58   C     C_R   0.238491 0.897808 0.929223 0.036391
C59   C     C_R   0.250385 0.418122 0.076939 0.031383
C60   C     C_R   0.738491 0.397807 0.929223 0.036392
C61   C     C_R   0.701858 0.849916 0.036066 0.357909
C62   C     C_R   0.303750 0.877862 0.961814 0.349243
C63   C     C_R   0.201858 0.349915 0.036065 0.357909
C64   C     C_R   0.803751 0.377870 0.961813 0.349243
C65   C     C_R   0.699985 0.864911 0.963050 -0.106008
C66   C     C_R   0.309290 0.889587 0.034852 -0.103430
C67   C     C_R   0.199985 0.364910 0.963050 -0.106010
C68   C     C_R   0.809291 0.389594 0.034850 -0.103429
C69   C     C_R   0.746231 0.947296 0.930782 -0.031836
C70   C     C_R   0.249699 0.921082 0.075273 -0.029216
C71   C     C_R   0.246231 0.447296 0.930782 -0.031837
C72   C     C_R   0.749699 0.421082 0.075273 -0.029215
C73   C     C_R   0.740973 0.971562 0.646603 0.585027
C74   C     C_R   0.258868 0.968674 0.352499 0.549669
C75   C     C_R   0.240972 0.471562 0.646603 0.585026
C76   C     C_R   0.758868 0.468674 0.352499 0.549669
C77   C     C_R   0.727617 0.373829 0.854486 0.583584
C78   C     C_R   0.269904 0.378514 0.147664 0.566654
C79   C     C_R   0.227617 0.873829 0.854486 0.583582
C80   C     C_R   0.769904 0.878515 0.147664 0.566653
C81   C     C_R   0.535819 0.156467 0.855566 0.553051
C82   C     C_R   0.468182 0.157562 0.146866 0.544165
C83   C     C_R   0.035819 0.656467 0.855566 0.553051
C84   C     C_R   0.968182 0.657562 0.146866 0.544164
C85   C     C_R   0.740060 0.976244 0.856210 0.548561
C86   C     C_R   0.258762 0.969934 0.146015 0.547034
C87   C     C_R   0.240061 0.476244 0.856210 0.548561
C88   C     C_R   0.758762 0.469934 0.146015 0.547034
C89   C     C_R   0.509312 0.164101 0.418562 -0.005270
C90   C     C_R   0.521756 0.153118 0.567100 -0.010929
C91   C     C_R   0.009312 0.664101 0.418562 -0.005270
C92   C     C_R   0.021757 0.653118 0.567099 -0.010930
C93   C     C_R   0.506074 0.270260 0.460200 -0.033609
C94   C     C_R   0.515395 0.265458 0.532694 -0.030792
C95   C     C_R   0.006074 0.770260 0.460200 -0.033608
C96   C     C_R   0.015395 0.765458 0.532694 -0.030791
C97   C     C_R   0.532152 0.045247 0.524644 0.098943
C98   C     C_R   0.534278 0.055590 0.450329 0.107588
C99   C     C_R   0.032152 0.545247 0.524644 0.098943
C100  C     C_R   0.034278 0.555590 0.450329 0.107589
Cr1   Cr    Cr6+3 0.771950 0.169480 0.750100 1.075125
Cr2   Cr    Cr6+3 0.228050 0.169480 0.249900 1.095408
Cr3   Cr    Cr6+3 0.271950 0.669480 0.750100 1.075126
Cr4   Cr    Cr6+3 0.728050 0.669480 0.249900 1.095408
Cr5   Cr    Cr6+3 0.614930 0.323340 0.749170 1.045977
Cr6   Cr    Cr6+3 0.385070 0.323340 0.250830 1.029383
Cr7   Cr    Cr6+3 0.114930 0.823340 0.749170 1.045977
Cr8   Cr    Cr6+3 0.885070 0.823340 0.250830 1.029383
Cr9   Cr    Cr6+3 0.616590 0.010620 0.750610 1.095132
Cr10  Cr    Cr6+3 0.383410 0.010620 0.249390 1.098363
Cr11  Cr    Cr6+3 0.116590 0.510620 0.750610 1.095133
Cr12  Cr    Cr6+3 0.883410 0.510620 0.249390 1.098363
H1    H     H_    0.825276 0.088897 0.949176 0.195147
H2    H     H_    0.137332 0.955644 0.073337 0.169744
H3    H     H_    0.325276 0.588896 0.949176 0.195154
H4    H     H_    0.637331 0.455632 0.073339 0.169738
H5    H     H_    0.829254 0.062154 0.074995 0.152998
H6    H     H_    0.126770 0.933054 0.947302 0.157000
H7    H     H_    0.329255 0.562153 0.074995 0.152998
H8    H     H_    0.626768 0.433040 0.947304 0.156997
H9    H     H_    0.662974 0.811843 0.931833 0.153034
H10   H     H_    0.360843 0.881229 0.058997 0.162757
H11   H     H_    0.162974 0.311842 0.931832 0.153034
H12   H     H_    0.860845 0.381243 0.058996 0.162759
H13   H     H_    0.898272 0.835737 0.450051 0.166737
H14   H     H_    0.986929 0.948970 0.566946 0.166035
H15   H     H_    0.398272 0.335737 0.450051 0.166737
H16   H     H_    0.486929 0.448970 0.566946 0.166035
H17   H     H_    0.468692 0.455887 0.441653 0.168709
H18   H     H_    0.415348 0.331364 0.574981 0.151238
H19   H     H_    0.968692 0.955887 0.441653 0.168709
H20   H     H_    0.915348 0.831364 0.574981 0.151238
H21   H     H_    0.711907 0.722904 0.450953 0.167931
H22   H     H_    0.348767 0.843803 0.567583 0.166473
H23   H     H_    0.211908 0.222904 0.450954 0.167930
H24   H     H_    0.848768 0.343805 0.567583 0.166473
H25   H     H_    0.797240 0.086745 0.421581 0.172051
H26   H     H_    0.129056 0.946247 0.552190 0.178011
H27   H     H_    0.297239 0.586745 0.421581 0.172052
H28   H     H_    0.629055 0.446242 0.552190 0.178010
H29   H     H_    0.789951 0.121672 0.548184 0.155161
H30   H     H_    0.138967 0.965348 0.426672 0.158463
H31   H     H_    0.289950 0.621672 0.548184 0.155161
H32   H     H_    0.638966 0.465344 0.426672 0.158463
H33   H     H_    0.554141 0.975116 0.949159 0.160549
H34   H     H_    0.535613 0.980603 0.074793 0.168400
H35   H     H_    0.054146 0.475121 0.949160 0.160546
H36   H     H_    0.035618 0.480608 0.074794 0.168399
H37   H     H_    0.464671 0.356629 0.059452 0.146340
H38   H     H_    0.486380 0.352618 0.931559 0.134208
H39   H     H_    0.964664 0.856625 0.059451 0.146341
H40   H     H_    0.986373 0.852614 0.931557 0.134208
O1    O     O_R   0.787510 0.042610 0.670410 -0.536785
O2    O     O_R   0.212490 0.042610 0.329590 -0.538075
O3    O     O_R   0.287510 0.542610 0.670410 -0.536784
O4    O     O_R   0.712490 0.542610 0.329590 -0.538074
O5    O     O_R   0.556450 0.252890 0.823790 -0.512547
O6    O     O_R   0.443550 0.252890 0.176210 -0.508156
O7    O     O_R   0.056450 0.752890 0.823790 -0.512547
O8    O     O_R   0.943550 0.752890 0.176210 -0.508157
O9    O     O_R   0.545750 0.051070 0.830560 -0.502064
O10   O     O_R   0.454250 0.051070 0.169440 -0.515525
O11   O     O_R   0.045750 0.551070 0.830560 -0.502061
O12   O     O_R   0.954250 0.551070 0.169440 -0.515525
O13   O     O_R   0.681210 0.959150 0.825320 -0.509621
O14   O     O_R   0.318790 0.959150 0.174680 -0.519136
O15   O     O_R   0.181210 0.459150 0.825320 -0.509622
O16   O     O_R   0.818790 0.459150 0.174680 -0.519137
O17   O     O_3   0.667820 0.167810 0.749960 -0.292320
O18   O     O_3   0.332180 0.167810 0.250040 -0.277629
O19   O     O_3   0.167820 0.667810 0.749960 -0.292319
O20   O     O_3   0.832180 0.667810 0.250040 -0.277630
O21   O     O_R   0.765670 0.292090 0.675090 -0.512803
O22   O     O_R   0.234330 0.292090 0.324910 -0.490775
O23   O     O_R   0.265670 0.792090 0.675090 -0.512803
O24   O     O_R   0.734330 0.792090 0.324910 -0.490775
O25   O     O_R   0.670220 0.409020 0.668560 -0.491391
O26   O     O_R   0.329780 0.409020 0.331440 -0.521806
O27   O     O_R   0.170220 0.909020 0.668560 -0.491392
O28   O     O_R   0.829780 0.909020 0.331440 -0.521806
O29   O     O_R   0.556580 0.251590 0.674980 -0.504022
O30   O     O_R   0.443420 0.251590 0.325020 -0.515279
O31   O     O_R   0.056580 0.751590 0.674980 -0.504022
O32   O     O_R   0.943420 0.751590 0.325020 -0.515279
O33   O     O_R   0.545890 0.049670 0.670030 -0.478886
O34   O     O_R   0.454110 0.049670 0.329970 -0.438895
O35   O     O_R   0.045890 0.549670 0.670030 -0.478886
O36   O     O_R   0.954110 0.549670 0.329970 -0.438894
O37   O     O_R   0.681340 0.957860 0.676500 -0.445069
O38   O     O_R   0.318660 0.957860 0.323500 -0.431267
O39   O     O_R   0.181340 0.457860 0.676500 -0.445070
O40   O     O_R   0.818660 0.457860 0.323500 -0.431267
O41   O     O_R   0.787380 0.044010 0.830940 -0.504665
O42   O     O_R   0.212620 0.044010 0.169060 -0.473598
O43   O     O_R   0.287380 0.544010 0.830940 -0.504663
O44   O     O_R   0.712620 0.544010 0.169060 -0.473596
O45   O     O_R   0.765540 0.293390 0.823910 -0.441206
O46   O     O_R   0.234460 0.293390 0.176090 -0.424567
O47   O     O_R   0.265540 0.793390 0.823910 -0.441203
O48   O     O_R   0.734460 0.793390 0.176090 -0.424567
O49   O     O_R   0.670090 0.410410 0.829090 -0.530722
O50   O     O_R   0.329910 0.410410 0.170910 -0.536519
O51   O     O_R   0.170090 0.910410 0.829090 -0.530723
O52   O     O_R   0.829910 0.910410 0.170910 -0.536519
I1    I     I_    0.530056 0.860463 0.565625 -0.188523
I2    I     I_    0.571224 0.905313 0.386048 -0.247585
I3    I     I_    0.030056 0.360463 0.565625 -0.188524
I4    I     I_    0.071224 0.405313 0.386048 -0.247586
F1    F     F_    0.658993 0.764570 0.065648 -0.624394
F2    F     F_    0.362035 0.850671 0.923218 -0.627002
F3    F     F_    0.158993 0.264570 0.065648 -0.624396
F4    F     F_    0.862036 0.350686 0.923216 -0.627000
F5    F     F_    0.699218 0.740461 0.587610 -0.614411
F6    F     F_    0.373018 0.862702 0.433445 -0.598090
F7    F     F_    0.199219 0.240460 0.587610 -0.614412
F8    F     F_    0.873018 0.362705 0.433445 -0.598089

loop_
_geom_bond_atom_site_label_1
_geom_bond_atom_site_label_2
_ccdc_geom_bond_type
Cr2   O18   S    
C49   H1    S    
C14   H22   S    
C64   F4    S    
C58   C62   A    
C93   C94   A    
C55   C59   A    
C34   C37   A    
C56   H8    S    
C41   C42   A    
C88   O44   A    
Cr1   O21   S    
C95   C96   A    
C8    C96   S    
C21   H25   S    
C6    H18   S    
C45   O33   A    
C68   H12   S    
C1    O25   A    
C97   C98   A    
C100  I4    S    
C45   O29   A    
C7    C8    S    
Cr4   O24   S    
C46   C89   S    
Cr7   O19   S    
C24   H28   S    
C15   C19   A    
C88   O16   A    
C44   H40   S    
C51   C71   A    
C37   C41   A    
C52   C72   A    
C64   C68   A    
C29   C73   S    
C23   H27   S    
C80   O52   A    
Cr9   O17   S    
C39   C84   S    
C48   O36   A    
C83   O11   A    
Cr2   O46   S    
C5    C6    S    
C30   C74   S    
C53   H5    S    
C41   H37   S    
Cr12  O16   S    
Cr5   O49   S    
C92   C96   A    
Cr8   O28   S    
C3    C18   S    
C47   C92   S    
Cr1   O45   S    
C78   O50   A    
C9    C13   A    
Cr6   O30   S    
C3    O27   A    
C73   O37   A    
C74   O38   A    
C11   C15   A    
C36   H36   S    
C87   O15   A    
C35   C36   A    
Cr9   O37   S    
C6    C94   S    
C48   C91   S    
C86   O14   A    
C8    H20   S    
C27   H31   S    
C66   H10   S    
Cr1   O17   S    
C2    O26   A    
C28   H32   S    
C23   C27   A    
C91   C100  A    
C17   C21   A    
Cr2   O2    S    
C90   C97   A    
C67   C71   A    
C84   O12   A    
C9    C29   A    
Cr6   O26   S    
Cr4   O20   S    
C5    H17   S    
C11   F7    S    
C11   C31   A    
C49   C69   A    
C12   C32   A    
Cr3   O19   S    
Cr4   O48   S    
C40   C83   S    
Cr9   O13   S    
Cr3   O43   S    
C4    O28   A    
C42   H38   S    
C75   O39   A    
Cr2   O42   S    
C59   C78   S    
C72   C88   S    
Cr1   O41   S    
C90   C94   A    
C40   C44   A    
C52   H4    S    
Cr10  O10   S    
Cr12  O12   S    
C63   C67   A    
C60   C77   S    
C59   C63   A    
C81   O5    A    
Cr8   O32   S    
C27   C31   A    
C16   H24   S    
C12   C16   A    
Cr11  O39   S    
C28   C32   A    
Cr11  O11   S    
C47   O31   A    
C10   C14   A    
Cr5   O25   S    
C48   O32   A    
C62   C66   A    
C10   F6    S    
Cr3   O47   S    
C82   O10   A    
C51   C55   A    
C9    F5    S    
Cr6   O6    S    
C76   O4    A    
C51   H3    S    
C56   C60   A    
Cr7   O31   S    
C68   C72   A    
C50   H2    S    
C74   O2    A    
C61   F1    S    
C19   C23   A    
C43   C44   A    
Cr7   O51   S    
C76   O40   A    
C69   C85   S    
C61   C65   A    
Cr6   O50   S    
C10   C30   A    
C31   C75   S    
C99   C100  A    
Cr1   O1    S    
C16   C20   A    
Cr5   O5    S    
Cr7   O7    S    
C5    H15   S    
Cr3   O23   S    
C33   C34   A    
C62   F2    S    
C83   O7    A    
C35   H35   S    
C46   O34   A    
C97   I1    S    
C45   C90   S    
C33   H33   S    
Cr12  O40   S    
C71   C87   S    
C4    C17   S    
C58   C79   S    
C8    H14   S    
C7    H13   S    
C57   C80   S    
C26   C30   A    
C65   H9    S    
C54   H6    S    
C38   C81   S    
C22   C26   A    
Cr5   O17   S    
C1    O21   A    
Cr4   O4    S    
Cr11  O15   S    
C12   F8    S    
C47   O35   A    
C70   C86   S    
Cr10  O18   S    
C43   H39   S    
C3    O23   A    
Cr12  O36   S    
C54   C58   A    
Cr3   O3    S    
C65   C69   A    
C21   C25   A    
Cr10  O34   S    
C1    C20   S    
C53   C57   A    
C79   O47   A    
Cr7   O27   S    
C2    C19   S    
C18   C22   A    
C6    H16   S    
C7    H19   S    
C14   C18   A    
C36   C39   A    
C25   H29   S    
C24   C28   A    
C63   F3    S    
C77   O49   A    
C32   C76   S    
C5    C93   S    
C84   O8    A    
C57   C61   A    
Cr8   O8    S    
Cr2   O22   S    
C7    C95   S    
C22   H26   S    
Cr11  O35   S    
C33   C38   A    
C13   C17   A    
C89   C98   A    
C60   C64   A    
C79   O51   A    
Cr9   O33   S    
C46   O30   A    
Cr8   O20   S    
C35   C40   A    
C50   C70   A    
C85   O13   A    
C67   H11   S    
C50   C54   A    
Cr9   O9    S    
C86   O42   A    
C25   C29   A    
Cr10  O14   S    
C85   O41   A    
C66   C70   A    
C82   O6    A    
Cr10  O38   S    
C78   O46   A    
Cr11  O19   S    
C89   C93   A    
C37   C82   S    
C13   H21   S    
C49   C53   A    
C4    O24   A    
C91   C95   A    
C38   C42   A    
C75   O3    A    
C55   H7    S    
C15   H23   S    
C39   C43   A    
Cr8   O52   S    
Cr6   O18   S    
C73   O1    A    
C99   I3    S    
C34   H34   S    
C98   I2    S    
C81   O9    A    
C87   O43   A    
Cr5   O29   S    
C26   H30   S    
C77   O45   A    
C20   C24   A    
C2    O22   A    
C52   C56   A    
C92   C99   A    
Cr4   O44   S    
Cr12  O20   S    
C80   O48   A    
