data_mof_unit_50741.cif
_audit_creation_date              2012-12-10T19:48:31-0500
_audit_creation_method            fapswitch 2.2
_symmetry_space_group_name_H-M    P1
_symmetry_Int_Tables_number       1
_space_group_crystal_system       triclinic
_cell_length_a                    10.843786
_cell_length_b                    10.670933
_cell_length_c                    9.448378
_cell_angle_alpha                 86.642036
_cell_angle_beta                  91.6192
_cell_angle_gamma                 87.738213
_cell_volume                      1090.06351768

loop_
_atom_site_label
_atom_site_type_symbol
_atom_type_description
_atom_site_fract_x
_atom_site_fract_y
_atom_site_fract_z
_atom_type_partial_charge
C1    C     C_R   0.500764 0.259207 0.503057 0.779324
C2    C     C_R   0.499180 0.740790 0.496926 0.779339
C3    C     C_R   0.872113 0.498527 0.513066 -0.063847
C4    C     C_R   0.127904 0.501032 0.487021 -0.064202
C5    C     C_R   0.949041 0.416052 0.604455 0.041939
C6    C     C_R   0.050989 0.583330 0.395591 0.041786
C7    C     C_3   0.614837 0.032771 0.534996 -0.185169
C8    C     C_3   0.385080 0.967215 0.464904 -0.185111
C9    C     C_3   0.579366 0.963183 0.401973 -0.134239
C10   C     C_3   0.420546 0.036801 0.597927 -0.133789
C11   C     C_3   0.498720 0.878167 0.493194 -0.002088
C12   C     C_3   0.501196 0.121822 0.506721 -0.001901
C13   C     C_3   0.534174 0.945589 0.626544 -0.063646
C14   C     C_3   0.465744 0.054400 0.373357 -0.063401
C15   C     C_3   0.559445 0.593393 0.046079 0.018886
C16   C     C_3   0.440575 0.406616 0.953931 0.020212
C17   C     C_3   0.448121 0.602420 0.941051 -0.009785
C18   C     C_3   0.551899 0.397593 0.058949 -0.008800
C19   C     C_3   0.611208 0.490826 0.953426 -0.012339
C20   C     C_3   0.388805 0.509191 0.046568 -0.011911
C21   C     C_R   0.262177 0.503781 0.496168 0.774969
C22   C     C_R   0.737824 0.496014 0.503858 0.774695
C23   C     C_R   0.231716 0.793983 0.138118 0.286038
C24   C     C_R   0.767589 0.204917 0.860981 0.285562
C25   C     C_R   0.196635 0.729135 0.263763 -0.208753
C26   C     C_R   0.802706 0.270387 0.735714 -0.209102
C27   C     C_R   0.090988 0.655941 0.264042 -0.007587
C28   C     C_R   0.909068 0.342578 0.735580 -0.007776
C29   C     C_R   0.019521 0.655224 0.134965 0.309975
C30   C     C_R   0.981245 0.341323 0.864400 0.309692
C31   C     C_R   0.051405 0.727467 0.014601 -0.149174
C32   C     C_R   0.949391 0.268174 0.984107 -0.147578
C33   C     C_R   0.157755 0.794970 0.015526 -0.211523
C34   C     C_R   0.842296 0.201908 0.983107 -0.210105
C35   C     C_R   0.924837 0.587030 0.421311 -0.164292
C36   C     C_R   0.075195 0.412389 0.578575 -0.163492
Cu1   Cu    Cu3+1 0.500030 0.499990 0.643150 0.969951
Cu2   Cu    Cu3+1 0.499970 0.500010 0.356850 0.970116
H1    H     H_    0.184361 0.845788 0.919349 0.172763
H2    H     H_    0.815715 0.150521 0.078934 0.172735
H3    H     H_    0.403721 0.688314 0.886684 0.162969
H4    H     H_    0.596338 0.311710 0.113307 0.163363
H5    H     H_    0.609295 0.672318 0.089353 0.180308
H6    H     H_    0.390780 0.327663 0.910675 0.181944
H7    H     H_    0.703807 0.481618 0.907664 0.187721
H8    H     H_    0.296188 0.518429 0.092278 0.187738
H9    H     H_    0.252218 0.734779 0.359518 0.144567
H10   H     H_    0.746627 0.265908 0.640167 0.145139
H11   H     H_    0.996174 0.726765 0.917382 0.192965
H12   H     H_    0.005205 0.267319 0.081043 0.192789
H13   H     H_    0.864775 0.656837 0.362870 0.162738
H14   H     H_    0.135296 0.342220 0.636356 0.162937
H15   H     H_    0.643440 0.931000 0.320683 0.165412
H16   H     H_    0.356447 0.068979 0.679196 0.166150
H17   H     H_    0.709463 0.059804 0.564254 0.147513
H18   H     H_    0.290440 0.940203 0.435642 0.147617
H19   H     H_    0.562326 0.896887 0.730199 0.191270
H20   H     H_    0.437618 0.103110 0.269697 0.191611
N1    N     N_3   0.500090 0.499970 0.858290 -0.182548
N2    N     N_3   0.499910 0.500030 0.141710 -0.182602
O1    O     O_R   0.500060 0.316850 0.620870 -0.550995
O2    O     O_R   0.499940 0.683150 0.379130 -0.551315
O3    O     O_R   0.500000 0.316860 0.379090 -0.598078
O4    O     O_R   0.500000 0.683140 0.620910 -0.598148
O5    O     O_R   0.319670 0.500010 0.620890 -0.544635
O6    O     O_R   0.680330 0.499990 0.379110 -0.544603
O7    O     O_R   0.319620 0.500010 0.379110 -0.584026
O8    O     O_R   0.680380 0.499990 0.620890 -0.584380
Br1   Br    Br    0.383690 0.876018 0.124379 -0.606606
Br2   Br    Br    0.614661 0.124718 0.875061 -0.607037
Br3   Br    Br    0.881975 0.550988 0.108405 -0.613584
Br4   Br    Br    0.119639 0.444169 0.892094 -0.614563

loop_
_geom_bond_atom_site_label_1
_geom_bond_atom_site_label_2
_ccdc_geom_bond_type
C4    C36   A    
C27   C29   A    
C15   N2    S    
C23   Br1   S    
C7    H17   S    
C5    C36   A    
C8    H18   S    
C24   Br2   S    
C15   C19   S    
C33   H1    S    
C34   H2    S    
C24   C26   A    
C18   H4    S    
C13   H19   S    
Cu1   O8    S    
C17   C20   S    
C6    C35   A    
C15   C17   S    
C18   C19   S    
C22   O6    A    
Cu2   O6    S    
C23   C33   A    
Cu1   O5    S    
C31   C33   A    
C20   N2    S    
C16   H6    S    
C36   H14   S    
C26   H10   S    
C21   O7    A    
C1    C12   S    
C31   H11   S    
C2    C11   S    
C1    O3    A    
C2    O4    A    
C7    C12   S    
C14   H20   S    
C4    C6    A    
C19   N1    S    
C24   C34   A    
C16   N1    S    
C32   C34   A    
C9    C14   S    
Cu1   Cu2   S    
C5    C28   S    
Cu1   O1    S    
C6    C27   S    
C3    C35   A    
C16   C20   S    
C32   H12   S    
C9    C11   S    
C22   O8    A    
Cu1   N1    S    
C10   C12   S    
C17   N1    S    
Cu2   N2    S    
C18   N2    S    
C12   C14   S    
C35   H13   S    
C9    H15   S    
Cu1   O4    S    
Cu2   O3    S    
C7    C9    S    
C25   H9    S    
C8    C14   S    
C21   O5    A    
C8    C10   S    
C3    C5    A    
C10   C13   S    
C1    O1    A    
C30   Br4   S    
C19   H7    S    
C25   C27   A    
C26   C28   A    
C28   C30   A    
C15   H5    S    
C29   C31   A    
C30   C32   A    
C4    C21   S    
C11   C13   S    
C8    C11   S    
C23   C25   A    
C10   H16   S    
C17   H3    S    
C7    C13   S    
Cu2   O7    S    
C16   C18   S    
C3    C22   S    
C29   Br3   S    
C20   H8    S    
C2    O2    A    
Cu2   O2    S    
