data_mof_unit_13468.cif
_audit_creation_date              2012-12-11T16:07:13-0500
_audit_creation_method            fapswitch 2.2
_symmetry_space_group_name_H-M    P1
_symmetry_Int_Tables_number       1
_space_group_crystal_system       triclinic
_cell_length_a                    17.15339
_cell_length_b                    17.153135
_cell_length_c                    17.190018
_cell_angle_alpha                 89.99954
_cell_angle_beta                  89.999127
_cell_angle_gamma                 89.99978
_cell_volume                      5057.89487858

loop_
_atom_site_label
_atom_site_type_symbol
_atom_type_description
_atom_site_fract_x
_atom_site_fract_y
_atom_site_fract_z
_atom_type_partial_charge
C1    C     C_R   0.421670 0.670168 0.646290 0.672868
C2    C     C_R   0.607738 0.699164 0.602479 0.758218
C3    C     C_3   0.743718 0.271212 0.723843 -0.193854
C4    C     C_3   0.788723 0.803802 0.371455 -0.178763
C5    C     C_3   0.196071 0.211423 0.628559 -0.178688
C6    C     C_3   0.728779 0.256271 0.276156 -0.193834
C7    C     C_3   0.256505 0.729055 0.723767 -0.194127
C8    C     C_3   0.756155 0.771365 0.776124 -0.193679
C9    C     C_3   0.228808 0.243704 0.223834 -0.193870
C10   C     C_3   0.696084 0.288584 0.871437 -0.178710
C11   C     C_3   0.288782 0.696273 0.128570 -0.178661
C12   C     C_3   0.243732 0.228783 0.776144 -0.193819
C13   C     C_R   0.670191 0.421666 0.353724 0.672778
C14   C     C_3   0.771070 0.756395 0.223821 -0.193985
C15   C     C_3   0.303684 0.711162 0.871443 -0.178694
C16   C     C_3   0.711428 0.303925 0.128565 -0.178699
C17   C     C_R   0.330626 0.578418 0.646894 0.675704
C18   C     C_R   0.608363 0.699027 0.397691 0.771190
C19   C     C_R   0.392251 0.300835 0.602468 0.758175
C20   C     C_R   0.329823 0.578335 0.353717 0.672853
C21   C     C_R   0.669371 0.421571 0.646897 0.675731
C22   C     C_R   0.891630 0.199024 0.102310 0.771364
C23   C     C_R   0.107759 0.800844 0.897514 0.758256
C24   C     C_R   0.170188 0.078335 0.146277 0.672757
C25   C     C_R   0.578431 0.330628 0.353103 0.675745
C26   C     C_R   0.830633 0.921567 0.853099 0.675745
C27   C     C_R   0.108355 0.800976 0.102325 0.771154
C28   C     C_R   0.892252 0.199162 0.897524 0.758184
C29   C     C_R   0.829817 0.921664 0.146282 0.672824
C30   C     C_R   0.169377 0.078436 0.853105 0.675743
C31   C     C_R   0.921665 0.829801 0.853730 0.672707
C32   C     C_R   0.078429 0.169373 0.146897 0.675744
C33   C     C_R   0.199024 0.891648 0.897672 0.771152
C34   C     C_R   0.800839 0.107747 0.102477 0.758177
C35   C     C_R   0.078338 0.170194 0.853726 0.672791
C36   C     C_R   0.699021 0.608377 0.602306 0.771456
C37   C     C_R   0.921570 0.830621 0.146894 0.675735
C38   C     C_R   0.800977 0.108369 0.897689 0.771399
C39   C     C_R   0.199155 0.892244 0.102485 0.758244
C40   C     C_3   0.262311 0.263240 0.342098 0.214945
C41   C     C_3   0.736751 0.737709 0.657883 0.215032
C42   C     C_3   0.322551 0.676363 0.247966 0.231652
C43   C     C_3   0.676340 0.322548 0.752062 0.231709
C44   C     C_3   0.737681 0.736771 0.342104 0.214876
C45   C     C_3   0.263238 0.262303 0.657880 0.214953
C46   C     C_3   0.677455 0.323659 0.247940 0.231712
C47   C     C_R   0.300840 0.392254 0.397519 0.758183
C48   C     C_3   0.323642 0.677436 0.752042 0.231641
C49   C     C_3   0.823669 0.822538 0.747933 0.231723
C50   C     C_3   0.177451 0.176343 0.252058 0.231711
C51   C     C_3   0.763239 0.237693 0.842105 0.214948
C52   C     C_3   0.237660 0.763235 0.157938 0.214806
C53   C     C_3   0.176343 0.177457 0.747937 0.231731
C54   C     C_3   0.822555 0.823650 0.252059 0.231713
C55   C     C_3   0.236771 0.762340 0.842061 0.214788
C56   C     C_3   0.762307 0.236760 0.157894 0.214949
C57   C     C_R   0.364524 0.636272 0.690975 -0.423204
C58   C     C_R   0.578334 0.329811 0.646277 0.672793
C59   C     C_R   0.636305 0.364519 0.309037 -0.423135
C60   C     C_R   0.684505 0.685147 0.617626 -0.450767
C61   C     C_R   0.314864 0.315486 0.382368 -0.450694
C62   C     C_R   0.635480 0.363698 0.690964 -0.423129
C63   C     C_R   0.363714 0.635484 0.309034 -0.423209
C64   C     C_R   0.315481 0.314855 0.617607 -0.450652
C65   C     C_R   0.685135 0.684526 0.382386 -0.450600
C66   C     C_R   0.814861 0.184515 0.117625 -0.450695
C67   C     C_R   0.184525 0.814879 0.882354 -0.450583
C68   C     C_R   0.136301 0.135482 0.190964 -0.423129
C69   C     C_R   0.421574 0.669379 0.353109 0.675736
C70   C     C_R   0.864520 0.863683 0.809040 -0.423071
C71   C     C_R   0.185122 0.815477 0.117643 -0.450579
C72   C     C_R   0.815484 0.185139 0.882375 -0.450706
C73   C     C_R   0.863707 0.864516 0.190968 -0.423172
C74   C     C_R   0.135487 0.136311 0.809039 -0.423130
C75   C     C_3   0.786784 0.705423 0.724319 -0.102518
C76   C     C_3   0.196513 0.294041 0.290189 -0.047137
C77   C     C_3   0.645088 0.256976 0.803911 -0.046268
C78   C     C_3   0.355527 0.726367 0.181964 -0.104320
C79   C     C_3   0.213063 0.294602 0.724205 -0.102021
C80   C     C_R   0.300975 0.391627 0.602301 0.771285
C81   C     C_3   0.803373 0.705938 0.290080 -0.047475
C82   C     C_3   0.354963 0.742778 0.804129 -0.047020
C83   C     C_3   0.644485 0.273891 0.181757 -0.105330
C84   C     C_3   0.743035 0.354910 0.196101 -0.046225
C85   C     C_3   0.273581 0.644459 0.818001 -0.104088
C86   C     C_3   0.705378 0.787103 0.275899 -0.101418
C87   C     C_3   0.294032 0.196482 0.709764 -0.047089
C88   C     C_3   0.257167 0.645051 0.195926 -0.046873
C89   C     C_3   0.726118 0.355519 0.818236 -0.105269
C90   C     C_3   0.294604 0.213030 0.275798 -0.101847
C91   C     C_R   0.699161 0.607756 0.397529 0.758154
C92   C     C_3   0.705996 0.803655 0.709632 -0.046686
C93   C     C_3   0.243006 0.145085 0.303923 -0.046311
C94   C     C_3   0.774049 0.855504 0.681637 -0.105910
C95   C     C_3   0.205355 0.712823 0.224082 -0.101094
C96   C     C_3   0.794034 0.303509 0.790213 -0.047086
C97   C     C_3   0.757107 0.854943 0.304036 -0.046614
C98   C     C_3   0.226106 0.144481 0.681752 -0.105342
C99   C     C_3   0.794600 0.286939 0.224218 -0.101976
C100  C     C_3   0.205910 0.696753 0.789922 -0.047819
C101  C     C_3   0.287239 0.794645 0.775959 -0.100875
C102  C     C_R   0.391633 0.300977 0.397686 0.771349
C103  C     C_3   0.696485 0.205966 0.209777 -0.047056
C104  C     C_3   0.145091 0.243035 0.696097 -0.046220
C105  C     C_3   0.855533 0.773728 0.318123 -0.104725
C106  C     C_3   0.713050 0.205399 0.775791 -0.101930
C107  C     C_3   0.303288 0.794087 0.210029 -0.047687
C108  C     C_3   0.854879 0.756834 0.696224 -0.045856
C109  C     C_3   0.144482 0.226144 0.318218 -0.105205
C110  C     C_3   0.211399 0.196103 0.371435 -0.178716
C111  C     C_3   0.804042 0.788435 0.628577 -0.178649
C112  C     C_3   0.270987 0.743548 0.276228 -0.194063
F1    F     F_    0.457983 0.738250 0.662224 -0.646032
F2    F     F_    0.578170 0.770826 0.587158 -0.581494
F3    F     F_    0.738272 0.457987 0.337810 -0.646155
F4    F     F_    0.263286 0.541371 0.664318 -0.640661
F5    F     F_    0.578677 0.770999 0.411221 -0.574674
F6    F     F_    0.421815 0.229171 0.587150 -0.581435
F7    F     F_    0.261739 0.542023 0.337791 -0.646046
F8    F     F_    0.736695 0.458635 0.664342 -0.640601
F9    F     F_    0.921315 0.270999 0.088791 -0.574647
F10   F     F_    0.078211 0.729168 0.912809 -0.581269
F11   F     F_    0.238269 0.042015 0.162192 -0.646139
F12   F     F_    0.541371 0.263301 0.335658 -0.640617
F13   F     F_    0.763318 0.958642 0.835639 -0.640612
F14   F     F_    0.078673 0.729003 0.088789 -0.574701
F15   F     F_    0.921811 0.270829 0.912841 -0.581422
F16   F     F_    0.761738 0.957985 0.162209 -0.646091
F17   F     F_    0.236706 0.041379 0.835660 -0.640649
F18   F     F_    0.957988 0.761719 0.837828 -0.646204
F19   F     F_    0.041365 0.236698 0.164343 -0.640622
F20   F     F_    0.270994 0.921332 0.911210 -0.574735
F21   F     F_    0.729173 0.078185 0.087163 -0.581447
F22   F     F_    0.042014 0.238274 0.837812 -0.646146
F23   F     F_    0.770999 0.578697 0.588797 -0.574624
F24   F     F_    0.958619 0.763285 0.164327 -0.640657
F25   F     F_    0.729003 0.078682 0.911207 -0.574673
F26   F     F_    0.270829 0.921797 0.087190 -0.581308
F27   F     F_    0.229174 0.421817 0.412827 -0.581417
F28   F     F_    0.542011 0.261731 0.662195 -0.646155
F29   F     F_    0.458620 0.736720 0.335682 -0.640663
F30   F     F_    0.229002 0.421312 0.588778 -0.574640
F31   F     F_    0.770829 0.578196 0.412834 -0.581378
F32   F     F_    0.421316 0.229001 0.411204 -0.574658
H1    H     H_    0.205958 0.177755 0.433019 0.145285
H2    H     H_    0.235459 0.262594 0.162376 0.161574
H3    H     H_    0.677723 0.294011 0.933019 0.145296
H4    H     H_    0.294382 0.678042 0.066970 0.145114
H5    H     H_    0.262647 0.235415 0.837595 0.161582
H6    H     H_    0.764320 0.737586 0.162350 0.161538
H7    H     H_    0.321874 0.705524 0.933051 0.145099
H8    H     H_    0.706010 0.322294 0.066985 0.145299
H9    H     H_    0.791245 0.643219 0.741673 0.187233
H10   H     H_    0.177853 0.355717 0.284259 0.203020
H11   H     H_    0.583124 0.239093 0.809094 0.182568
H12   H     H_    0.822505 0.793735 0.567014 0.145350
H13   H     H_    0.418112 0.730401 0.166055 0.163062
H14   H     H_    0.208473 0.356821 0.741467 0.187377
H15   H     H_    0.821934 0.644241 0.284062 0.202903
H16   H     H_    0.416977 0.760434 0.809498 0.182217
H17   H     H_    0.581924 0.270062 0.165710 0.162839
H18   H     H_    0.760925 0.416874 0.190926 0.182577
H19   H     H_    0.269500 0.581869 0.833879 0.163109
H20   H     H_    0.643144 0.791831 0.258731 0.187553
H21   H     H_    0.355701 0.177796 0.715668 0.203031
H22   H     H_    0.239468 0.583045 0.190596 0.182284
H23   H     H_    0.264183 0.762296 0.337712 0.161511
H24   H     H_    0.729957 0.418082 0.834278 0.162849
H25   H     H_    0.356825 0.208409 0.258550 0.187432
H26   H     H_    0.644352 0.822456 0.715432 0.203169
H27   H     H_    0.260872 0.083116 0.309119 0.182529
H28   H     H_    0.770351 0.918051 0.665500 0.162705
H29   H     H_    0.143113 0.708025 0.241204 0.187642
H30   H     H_    0.855705 0.322185 0.784297 0.203021
H31   H     H_    0.739341 0.916934 0.309312 0.182373
H32   H     H_    0.229933 0.081919 0.665706 0.162830
H33   H     H_    0.856818 0.291531 0.241483 0.187399
H34   H     H_    0.762622 0.264576 0.662388 0.161580
H35   H     H_    0.144191 0.678300 0.783805 0.202773
H36   H     H_    0.292084 0.856893 0.758870 0.187718
H37   H     H_    0.677801 0.144296 0.215685 0.203042
H38   H     H_    0.083129 0.260928 0.690924 0.182579
H39   H     H_    0.918110 0.769763 0.334076 0.162973
H40   H     H_    0.708449 0.143179 0.758532 0.187431
H41   H     H_    0.321783 0.855798 0.216105 0.202831
H42   H     H_    0.916815 0.738826 0.691145 0.182759
H43   H     H_    0.081918 0.230001 0.334250 0.162870
H44   H     H_    0.794265 0.822070 0.433053 0.145241
H45   H     H_    0.177699 0.206001 0.566981 0.145288
H46   H     H_    0.735408 0.237360 0.337609 0.161583
H47   H     H_    0.237798 0.735896 0.662275 0.161496
H48   H     H_    0.737147 0.764851 0.837560 0.161627
N1    N     N_R   0.424590 0.632770 0.578330 -0.144508
N2    N     N_R   0.575410 0.632770 0.578330 -0.190133
N3    N     N_R   0.632770 0.424590 0.421670 -0.144501
N4    N     N_R   0.367230 0.575410 0.578330 -0.145536
N5    N     N_R   0.575410 0.632770 0.421670 -0.191162
N6    N     N_R   0.424590 0.367230 0.578330 -0.190124
N7    N     N_R   0.367230 0.575410 0.421670 -0.144511
N8    N     N_R   0.632770 0.424590 0.578330 -0.145558
N9    N     N_R   0.924590 0.132770 0.078330 -0.191172
N10   N     N_R   0.075410 0.867230 0.921670 -0.190125
N11   N     N_R   0.132770 0.075410 0.078330 -0.144501
N12   N     N_R   0.575410 0.367230 0.421670 -0.145552
N13   N     N_R   0.867230 0.924590 0.921670 -0.145561
N14   N     N_R   0.075410 0.867230 0.078330 -0.191160
N15   N     N_R   0.924590 0.132770 0.921670 -0.190126
N16   N     N_R   0.867230 0.924590 0.078330 -0.144515
N17   N     N_R   0.132770 0.075410 0.921670 -0.145552
N18   N     N_R   0.924590 0.867230 0.921670 -0.144485
N19   N     N_R   0.075410 0.132770 0.078330 -0.145552
N20   N     N_R   0.132770 0.924590 0.921670 -0.191151
N21   N     N_R   0.867230 0.075410 0.078330 -0.190132
N22   N     N_R   0.075410 0.132770 0.921670 -0.144503
N23   N     N_R   0.632770 0.575410 0.578330 -0.191187
N24   N     N_R   0.924590 0.867230 0.078330 -0.145543
N25   N     N_R   0.867230 0.075410 0.921670 -0.191167
N26   N     N_R   0.132770 0.924590 0.078330 -0.190130
N27   N     N_R   0.367230 0.424590 0.421670 -0.190139
N28   N     N_R   0.575410 0.367230 0.578330 -0.144498
N29   N     N_R   0.424590 0.632770 0.421670 -0.145539
N30   N     N_R   0.367230 0.424590 0.578330 -0.191176
N31   N     N_R   0.632770 0.575410 0.421670 -0.190130
N32   N     N_R   0.424590 0.367230 0.421670 -0.191171
Ni1   Ni    Ni4+2 0.500000 0.631570 0.500000 0.293714
Ni2   Ni    Ni4+2 0.500000 0.368430 0.500000 0.293706
Ni3   Ni    Ni4+2 0.631570 0.500000 0.500000 0.293695
Ni4   Ni    Ni4+2 0.368430 0.500000 0.500000 0.293712
Ni5   Ni    Ni4+2 0.000000 0.131570 0.000000 0.293711
Ni6   Ni    Ni4+2 0.000000 0.868430 0.000000 0.293741
Ni7   Ni    Ni4+2 0.131570 0.000000 0.000000 0.293718
Ni8   Ni    Ni4+2 0.868430 0.000000 0.000000 0.293685

loop_
_geom_bond_atom_site_label_1
_geom_bond_atom_site_label_2
_ccdc_geom_bond_type
C58   C62   A    
C104  H38   S    
N4    Ni4   S    
C24   N11   A    
C97   H31   S    
C46   C59   S    
N14   Ni6   S    
C107  C112  S    
C94   C111  S    
C39   N26   A    
C53   C74   S    
C25   N12   A    
C7    H47   S    
N25   Ni8   S    
C34   C66   A    
C30   N17   A    
C15   H7    S    
N20   Ni7   S    
C24   F11   S    
C102  N32   A    
C48   C57   S    
C35   C74   A    
C109  H43   S    
C18   C65   A    
N9    N21   A    
C3    C43   S    
C43   C89   S    
C29   N16   A    
C83   C103  S    
C22   F9    S    
C101  H36   S    
C81   H15   S    
N2    Ni1   S    
C108  H42   S    
C77   C106  S    
N6    N30   A    
C3    H34   S    
C55   C101  S    
C99   H33   S    
C21   F8    S    
C7    C101  S    
C95   C112  S    
C36   N23   A    
C30   C74   A    
C33   N20   A    
N31   Ni3   S    
C11   H4    S    
C29   C73   A    
C53   C104  S    
C69   F29   S    
C12   C79   S    
N29   Ni1   S    
C9    H2    S    
C16   C84   S    
C98   H32   S    
C52   C95   S    
N17   Ni7   S    
C23   C67   A    
C86   C97   S    
C42   C112  S    
C22   C66   A    
C80   N30   A    
C11   C52   S    
C41   C60   S    
C94   H28   S    
N27   N32   A    
C20   N7    A    
C58   N28   A    
C52   C107  S    
C31   C70   A    
C63   C69   A    
C10   C89   S    
C92   H26   S    
C76   C109  S    
C55   C100  S    
N24   Ni6   S    
C56   C66   S    
C54   C97   S    
C3    C96   S    
C8    C92   S    
C9    C76   S    
C16   C83   S    
C49   C94   S    
C15   C82   S    
C110  H1    S    
N19   Ni5   S    
C111  H12   S    
C11   C88   S    
C37   N24   A    
C69   N29   A    
C12   C53   S    
C22   N9    A    
C28   F15   S    
C51   C96   S    
N10   Ni6   S    
C87   C98   S    
N9    Ni5   S    
C83   H17   S    
C5    C104  S    
C75   C108  S    
N16   N24   A    
C4    C97   S    
N23   Ni3   S    
C64   C80   A    
C38   N25   A    
N11   N19   A    
C44   C65   S    
C28   C72   A    
C102  F32   S    
C79   H14   S    
C44   C86   S    
C10   C51   S    
C35   F22   S    
C50   C68   S    
C25   F12   S    
C10   C77   S    
C49   C108  S    
C91   F31   S    
C3    C106  S    
C38   C72   A    
N15   N25   A    
C7    C100  S    
C23   N10   A    
C19   F6    S    
C16   H8    S    
C44   C81   S    
N2    N23   A    
C32   N19   A    
C24   C68   A    
N15   Ni5   S    
C40   C110  S    
N3    N12   A    
C4    C44   S    
C34   F21   S    
C36   C60   A    
C112  H23   S    
C5    C45   S    
C50   C109  S    
N14   N26   A    
C15   C85   S    
C40   C76   S    
C78   C107  S    
C2    N2    A    
C26   F13   S    
C15   C55   S    
C107  H41   S    
C1    N1    A    
C16   C56   S    
C89   H24   S    
C23   F10   S    
C11   C78   S    
C1    C57   A    
C41   C75   S    
C54   C73   S    
C82   H16   S    
C75   H9    S    
C78   H13   S    
C26   C70   A    
N8    N28   A    
N30   Ni4   S    
C19   C64   A    
N1    N4    A    
C106  H40   S    
C14   H6    S    
C18   N5    A    
C92   C94   S    
N18   Ni6   S    
C37   F24   S    
N28   Ni2   S    
C45   C79   S    
C6    C103  S    
C105  H39   S    
C18   F5    S    
C14   C86   S    
C21   C62   A    
C13   F3    S    
N21   Ni8   S    
C96   H30   S    
N16   Ni8   S    
N7    N29   A    
C33   F20   S    
C14   C54   S    
C42   C78   S    
C88   H22   S    
C49   C70   S    
C41   C111  S    
N27   Ni4   S    
C46   C84   S    
C79   C104  S    
C29   F16   S    
C26   N13   A    
C86   H20   S    
C51   C72   S    
C21   N8    A    
C91   N31   A    
C36   F23   S    
C6    H46   S    
C27   C71   A    
C33   C67   A    
C90   C93   S    
N7    Ni4   S    
C58   F28   S    
C65   C91   A    
C81   C105  S    
C37   C73   A    
C93   H27   S    
C19   N6    A    
C6    C46   S    
C54   C105  S    
C45   C87   S    
C103  H37   S    
C84   C99   S    
C12   H5    S    
C9    C50   S    
C56   C103  S    
N10   N20   A    
N5    N31   A    
C34   N21   A    
N32   Ni2   S    
C9    C90   S    
C47   C61   A    
C55   C67   S    
C50   C93   S    
C82   C101  S    
C13   C59   A    
N3    Ni3   S    
C53   C98   S    
C43   C77   S    
C30   F17   S    
C4    C105  S    
C10   H3    S    
C45   C64   S    
C80   F30   S    
N17   N22   A    
C14   C81   S    
C108  C111  S    
C32   C68   A    
C39   F26   S    
C27   N14   A    
C40   C90   S    
C7    C48   S    
C4    H44   S    
C20   C63   A    
C61   C102  A    
C95   H29   S    
C5    H45   S    
C12   C87   S    
C85   C100  S    
C109  C110  S    
C6    C99   S    
N11   Ni7   S    
C2    F2    S    
C87   H21   S    
C31   N18   A    
C47   N27   A    
N13   N18   A    
C8    H48   S    
C51   C106  S    
C85   H19   S    
C8    C49   S    
C90   H25   S    
C76   H10   S    
C27   F14   S    
C38   F25   S    
C48   C82   S    
C2    C60   A    
C8    C75   S    
C35   N22   A    
N26   Ni7   S    
C88   C95   S    
C1    F1    S    
C40   C61   S    
N1    Ni1   S    
C46   C83   S    
C31   F18   S    
N6    Ni2   S    
C41   C92   S    
C42   C88   S    
C5    C98   S    
C17   F4    S    
C13   N3    A    
C84   H18   S    
C47   F27   S    
C52   C71   S    
C28   N15   A    
C39   C71   A    
C48   C85   S    
C17   N4    A    
N13   Ni8   S    
C25   C59   A    
C56   C99   S    
C89   C96   S    
N22   Ni5   S    
C100  H35   S    
N12   Ni2   S    
C42   C63   S    
N8    Ni3   S    
C20   F7    S    
C77   H11   S    
C32   F19   S    
C43   C62   S    
C17   C57   A    
C93   C110  S    
N5    Ni1   S    
