data_mof_unit_56285.cif
_audit_creation_date              2012-12-10T17:15:54-0500
_audit_creation_method            fapswitch 2.2
_symmetry_space_group_name_H-M    P1
_symmetry_Int_Tables_number       1
_space_group_crystal_system       triclinic
_cell_length_a                    10.200641
_cell_length_b                    10.736249
_cell_length_c                    10.517247
_cell_angle_alpha                 91.846435
_cell_angle_beta                  95.729331
_cell_angle_gamma                 82.885813
_cell_volume                      1137.00640209

loop_
_atom_site_label
_atom_site_type_symbol
_atom_type_description
_atom_site_fract_x
_atom_site_fract_y
_atom_site_fract_z
_atom_type_partial_charge
C1    C     C_R   0.444628 0.518833 0.267143 0.916397
C2    C     C_2   0.501761 0.581850 0.936143 -0.248576
C3    C     C_2   0.068033 0.503274 0.475053 -0.053681
C4    C     C_R   0.496445 0.261192 0.492088 0.933335
C5    C     C_2   0.924915 0.524844 0.496750 -0.052599
C6    C     C_R   0.556199 0.494993 0.734643 0.934306
C7    C     C_R   0.501993 0.739080 0.498375 0.835952
C8    C     C_R   0.569652 0.106787 0.266087 -0.042756
C9    C     C_R   0.651814 0.034478 0.185475 -0.191435
C10   C     C_R   0.686156 0.906790 0.204801 -0.032044
C11   C     C_R   0.632061 0.851316 0.302399 -0.197210
C12   C     C_R   0.539635 0.055281 0.382017 0.042213
C13   C     C_R   0.560611 0.924472 0.394142 0.076682
C14   C     C_2   0.414951 0.151131 0.709369 0.967637
C15   C     C_2   0.877712 0.638313 0.569851 0.992108
C16   C     C_2   0.105537 0.426937 0.363055 0.997936
C17   C     C_2   0.492580 0.219827 0.208841 0.882606
C18   C     C_2   0.772381 0.829665 0.118795 0.936511
C19   C     C_2   0.427846 0.886122 0.716741 0.937274
C20   C     C_2   0.711847 0.429639 0.933077 1.028924
C21   C     C_R   0.491316 0.128660 0.486521 -0.132858
C22   C     C_R   0.453787 0.074063 0.595443 -0.101199
C23   C     C_R   0.457859 0.944634 0.598408 -0.075669
C24   C     C_R   0.507768 0.871195 0.496715 -0.156108
C25   C     C_2   0.414215 0.548344 0.133267 -0.272645
C26   C     C_2   0.508672 0.590170 0.073357 -0.102202
C27   C     C_2   0.589684 0.505934 0.872358 -0.161807
H1    H     H_    0.649627 0.750929 0.304114 0.198989
H2    H     H_    0.884015 0.665093 0.086606 0.380607
H3    H     H_    0.486567 0.847636 0.901678 0.338547
H4    H     H_    0.412647 0.630747 0.886098 0.203687
H5    H     H_    0.599227 0.614629 0.125434 0.228267
H6    H     H_    0.835501 0.383105 0.091121 0.354889
H7    H     H_    0.277406 0.199726 0.832830 0.353545
H8    H     H_    0.321280 0.527241 0.082254 0.163292
H9    H     H_    0.852687 0.827510 0.580487 0.362228
H10   H     H_    0.092870 0.412626 0.170506 0.327406
H11   H     H_    0.879604 0.369072 0.400498 0.187723
H12   H     H_    0.127476 0.601512 0.630514 0.193571
H13   H     H_    0.311553 0.315248 0.170023 0.329659
H14   H     H_    0.680660 0.075706 0.101301 0.227180
N1    N     N_2   0.157290 0.551390 0.551110 -0.214752
N2    N     N_2   0.842740 0.448550 0.448960 -0.209628
O1    O     O_R   0.568950 0.489660 0.307530 -0.575361
O2    O     O_R   0.291824 0.144029 0.754525 -0.747259
O3    O     O_2   0.837221 0.629054 0.674135 -0.595418
O4    O     O_R   0.887219 0.756520 0.522133 -0.770298
O5    O     O_2   0.154308 0.317915 0.376478 -0.568664
O6    O     O_R   0.072321 0.476302 0.241132 -0.791126
O7    O     O_2   0.541253 0.280608 0.133322 -0.602413
O8    O     O_R   0.358797 0.247219 0.228229 -0.765979
O9    O     O_2   0.798104 0.872960 0.019285 -0.560338
O10   O     O_R   0.826596 0.707762 0.152538 -0.768617
O11   O     O_2   0.320949 0.846902 0.721415 -0.570426
O12   O     O_R   0.348880 0.522640 0.340350 -0.603677
O13   O     O_R   0.520344 0.882382 0.824356 -0.773891
O14   O     O_2   0.777247 0.354219 0.867613 -0.571697
O15   O     O_R   0.752327 0.441446 0.063380 -0.760922
O16   O     O_R   0.610060 0.300270 0.483590 -0.610416
O17   O     O_R   0.389990 0.333260 0.516410 -0.564637
O18   O     O_R   0.651120 0.477360 0.659650 -0.541223
O19   O     O_R   0.431050 0.510340 0.692470 -0.610261
O20   O     O_R   0.610010 0.666740 0.483590 -0.635884
O21   O     O_R   0.389940 0.699730 0.516410 -0.573214
O22   O     O_2   0.491735 0.218470 0.764471 -0.616699
Zn1   Zn    Zn3+2 0.646940 0.477980 0.478090 1.045301
Zn2   Zn    Zn3+2 0.353060 0.522020 0.521910 1.046816

loop_
_geom_bond_atom_site_label_1
_geom_bond_atom_site_label_2
_ccdc_geom_bond_type
C19   O13   S    
C17   O7    D    
C19   C23   S    
C23   C24   A    
C3    N1    D    
C26   H5    S    
C2    C27   D    
C20   C27   S    
C17   O8    S    
H12   N1    S    
H13   O8    S    
H10   O6    S    
C9    C10   A    
C1    O1    A    
O1    Zn1   S    
C8    C17   S    
C18   O10   S    
C15   O4    S    
C8    C12   A    
O12   Zn2   S    
H3    O13   S    
C6    O19   A    
C5    N2    D    
O20   Zn1   S    
C18   O9    D    
H11   N2    S    
C2    C26   S    
H7    O2    S    
C21   C22   A    
C16   O6    S    
C1    C25   S    
C4    C21   S    
C11   C13   A    
C7    O20   A    
H6    O15   S    
H2    O10   S    
C11   H1    S    
C25   H8    S    
N2    Zn1   S    
O19   Zn2   S    
C4    O16   A    
C25   C26   D    
C14   O22   D    
C10   C18   S    
C1    O12   A    
C14   O2    S    
O16   Zn1   S    
C16   O5    D    
N1    Zn2   S    
C13   C24   A    
C7    O21   A    
C5    C15   S    
C10   C11   A    
C20   O15   S    
C7    C24   S    
C12   C21   A    
O21   Zn2   S    
C12   C13   A    
C6    O18   A    
H9    O4    S    
C14   C22   S    
C22   C23   A    
C8    C9    A    
C19   O11   D    
C15   O3    D    
C3    C5    S    
C20   O14   D    
C9    H14   S    
O18   Zn1   S    
C3    C16   S    
C6    C27   S    
O17   Zn2   S    
C2    H4    S    
C4    O17   A    
