data_mof_unit_12898.cif
_audit_creation_date              2012-12-10T17:22:09-0500
_audit_creation_method            fapswitch 2.2
_symmetry_space_group_name_H-M    P1
_symmetry_Int_Tables_number       1
_space_group_crystal_system       triclinic
_cell_length_a                    10.19023
_cell_length_b                    11.03512
_cell_length_c                    15.793436
_cell_angle_alpha                 90.82993
_cell_angle_beta                  82.117535
_cell_angle_gamma                 94.048781
_cell_volume                      1754.7868498

loop_
_atom_site_label
_atom_site_type_symbol
_atom_type_description
_atom_site_fract_x
_atom_site_fract_y
_atom_site_fract_z
_atom_type_partial_charge
C1    C     C_R   0.554243 0.732410 0.491053 0.915852
C2    C     C_2   0.475623 0.933669 0.477876 0.612572
C3    C     C_2   0.409083 0.139520 0.510201 -0.186200
C4    C     C_R   0.500704 0.496187 0.661599 0.892517
C5    C     C_2   0.490977 0.064437 0.465702 -0.306605
C6    C     C_2   0.922245 0.497335 0.514992 0.676527
C7    C     C_2   0.069811 0.484228 0.498732 -0.247549
C8    C     C_R   0.444375 0.268661 0.503656 0.845888
C9    C     C_R   0.498977 0.500024 0.338669 0.872895
C10   C     C_3   0.388249 0.535071 0.957669 0.464686
C11   C     C_3   0.648216 0.523590 0.940099 0.321047
C12   C     C_3   0.376715 0.526039 0.056883 0.990157
C13   C     C_3   0.633637 0.543091 0.041206 0.437989
C14   C     C_1   0.494933 0.491667 0.250638 -0.166830
C15   C     C_3   0.511386 0.461335 0.916542 -0.225053
C16   C     C_R   0.294345 0.101160 0.575325 0.241547
C17   C     C_R   0.316140 0.043782 0.650166 -0.125302
C18   C     C_R   0.217317 0.037259 0.721109 -0.134942
C19   C     C_R   0.096134 0.086289 0.717283 -0.136516
C20   C     C_R   0.071047 0.138545 0.641910 -0.208332
C21   C     C_R   0.169266 0.145030 0.570901 -0.099763
C22   C     C_R   0.721306 0.914607 0.455052 0.061129
C23   C     C_3   0.501888 0.467285 0.083966 -0.240790
C24   C     C_R   0.768463 0.019502 0.496189 -0.171394
C25   C     C_R   0.895632 0.072323 0.469765 -0.089936
C26   C     C_R   0.981294 0.015834 0.407191 -0.097029
C27   C     C_R   0.937468 0.909012 0.368175 -0.159634
C28   C     C_R   0.807456 0.859874 0.390654 -0.074434
C29   C     C_R   0.115711 0.646956 0.590813 0.327428
C30   C     C_R   0.114301 0.633241 0.678828 -0.188369
C31   C     C_R   0.049278 0.713941 0.736315 -0.158075
C32   C     C_R   0.987549 0.810060 0.705816 -0.078191
C33   C     C_R   0.996869 0.829537 0.617843 -0.077766
C34   C     C_3   0.502450 0.328899 0.053156 0.274908
C35   C     C_R   0.062642 0.749360 0.560185 -0.008678
C36   C     C_R   0.386717 0.664164 0.918915 0.158941
C37   C     C_R   0.336260 0.673146 0.840119 -0.118716
C38   C     C_R   0.364014 0.776813 0.789775 -0.204384
C39   C     C_R   0.435073 0.876587 0.819422 -0.104012
C40   C     C_R   0.470521 0.876103 0.900888 -0.114795
C41   C     C_R   0.443682 0.772772 0.951342 -0.028259
C42   C     C_R   0.771640 0.459154 0.895516 0.061250
C43   C     C_R   0.810035 0.476617 0.806681 -0.016142
C44   C     C_R   0.918071 0.420973 0.762469 -0.177172
C45   C     C_3   0.490654 0.324126 0.952321 0.412143
C46   C     C_R   0.999571 0.356914 0.806430 -0.138312
C47   C     C_R   0.966558 0.339133 0.893707 -0.010642
C48   C     C_R   0.852507 0.386363 0.937185 -0.202214
C49   C     C_R   0.765760 0.543081 0.079978 0.150176
C50   C     C_R   0.789225 0.468063 0.147792 -0.172792
C51   C     C_R   0.908343 0.482029 0.182613 -0.121426
C52   C     C_R   0.006273 0.570906 0.151688 -0.003590
C53   C     C_R   0.987355 0.644054 0.083929 -0.130598
C54   C     C_R   0.868811 0.630568 0.048555 -0.086293
C55   C     C_R   0.573846 0.233248 0.893272 0.138933
C56   C     C_1   0.495613 0.480536 0.175711 0.125786
C57   C     C_R   0.677914 0.165917 0.915624 -0.205111
C58   C     C_R   0.752723 0.095713 0.855103 -0.140095
C59   C     C_R   0.726655 0.089865 0.770936 -0.094841
C60   C     C_R   0.620156 0.147975 0.748390 -0.203651
C61   C     C_R   0.539909 0.211339 0.809992 -0.108983
C62   C     C_R   0.401090 0.233860 0.103575 0.316213
C63   C     C_R   0.304134 0.259063 0.174106 -0.103398
C64   C     C_R   0.217162 0.167018 0.214018 -0.158307
C65   C     C_R   0.226232 0.047074 0.186903 -0.095017
C66   C     C_R   0.323494 0.018656 0.120480 -0.152302
C67   C     C_1   0.509297 0.467737 0.824236 0.113393
C68   C     C_R   0.410127 0.110483 0.080151 -0.068350
C69   C     C_1   0.503772 0.480474 0.749756 -0.213909
C70   C     C_2   0.581016 0.863930 0.476416 -0.330117
F1    F     F_    0.357331 0.636813 0.097235 -0.696114
F2    F     F_    0.360528 0.281870 0.946120 -0.625073
F3    F     F_    0.272839 0.474615 0.935494 -0.605115
F4    F     F_    0.262308 0.454961 0.084561 -0.648058
F5    F     F_    0.622553 0.293182 0.068475 -0.786751
F6    F     F_    0.347767 0.884935 0.490327 -0.659512
F7    F     F_    0.867408 0.560462 0.583692 -0.705659
F8    F     F_    0.895469 0.386153 0.397666 -0.660000
F9    F     F_    0.664828 0.639228 0.904777 -0.658716
F10   F     F_    0.607319 0.662535 0.057841 -0.653232
H1    H     H_    0.574400 0.101602 0.421062 0.174815
H2    H     H_    0.081324 0.054903 0.388846 0.134369
H3    H     H_    0.003348 0.864946 0.319614 0.134052
H4    H     H_    0.773779 0.780086 0.356818 0.145621
H5    H     H_    0.155541 0.555267 0.702885 0.153383
H6    H     H_    0.043441 0.699814 0.804454 0.163986
H7    H     H_    0.933153 0.869690 0.750493 0.127858
H8    H     H_    0.950190 0.904840 0.594465 0.144187
H9    H     H_    0.064491 0.761955 0.492174 0.134630
H10   H     H_    0.283751 0.596184 0.813873 0.185315
H11   H     H_    0.333522 0.778762 0.726883 0.173370
H12   H     H_    0.106142 0.414076 0.454559 0.185450
H13   H     H_    0.460155 0.955503 0.780320 0.142730
H14   H     H_    0.522038 0.955103 0.924315 0.146830
H15   H     H_    0.471161 0.782383 0.013869 0.246958
H16   H     H_    0.757851 0.535052 0.770621 0.206159
H17   H     H_    0.941702 0.430992 0.694128 0.180934
H18   H     H_    0.088257 0.321125 0.772847 0.164906
H19   H     H_    0.027649 0.285883 0.927644 0.194465
H20   H     H_    0.829033 0.359912 0.002402 0.205638
H21   H     H_    0.718791 0.397150 0.174684 0.215527
H22   H     H_    0.924564 0.423713 0.234080 0.211861
H23   H     H_    0.411702 0.009644 0.654152 0.103129
H24   H     H_    0.097023 0.582800 0.180195 0.202054
H25   H     H_    0.064130 0.712265 0.059242 0.157962
H26   H     H_    0.856513 0.690300 0.996856 0.199894
H27   H     H_    0.705615 0.162941 0.978408 0.219015
H28   H     H_    0.831361 0.045598 0.874052 0.132744
H29   H     H_    0.785749 0.036906 0.723914 0.119861
H30   H     H_    0.596327 0.140166 0.683833 0.124501
H31   H     H_    0.451065 0.245031 0.791339 0.175113
H32   H     H_    0.291170 0.348001 0.200739 0.176901
H33   H     H_    0.142547 0.189286 0.266412 0.153933
H34   H     H_    0.234311 0.997187 0.780133 0.150875
H35   H     H_    0.158978 0.975984 0.217828 0.136163
H36   H     H_    0.332165 0.925125 0.100397 0.164016
H37   H     H_    0.485657 0.084318 0.030785 0.127524
H38   H     H_    0.021893 0.083852 0.773017 0.129874
H39   H     H_    0.976974 0.177174 0.639578 0.134609
H40   H     H_    0.150897 0.190660 0.513971 0.124206
H41   H     H_    0.705708 0.062515 0.547038 0.128019
H42   H     H_    0.927065 0.157329 0.497872 0.138196
N1    N     N_2   0.842720 0.448890 0.465540 0.099550
N2    N     N_2   0.157250 0.551040 0.534500 -0.157218
O1    O     O_R   0.431050 0.692470 0.506940 -0.543484
O2    O     O_R   0.651130 0.659650 0.484820 -0.602766
O3    O     O_R   0.389910 0.516410 0.633920 -0.640202
O4    O     O_R   0.609990 0.483590 0.611800 -0.561896
O5    O     O_R   0.348870 0.340350 0.515180 -0.633422
O6    O     O_R   0.568950 0.307530 0.493060 -0.597928
O7    O     O_R   0.390010 0.516410 0.388200 -0.606623
O8    O     O_R   0.610090 0.483590 0.366080 -0.589016
Zn1   Zn    Zn3+2 0.353060 0.521920 0.514770 0.970560
Zn2   Zn    Zn3+2 0.646940 0.478080 0.485230 1.061881

loop_
_geom_bond_atom_site_label_1
_geom_bond_atom_site_label_2
_ccdc_geom_bond_type
C14   C56   T    
C16   C21   A    
C12   F4    S    
C28   H4    S    
C66   C68   A    
C19   C20   A    
C7    N2    D    
C43   C44   A    
C18   H34   S    
C23   C56   S    
C41   H15   S    
C53   C54   A    
C51   H22   S    
C12   C23   S    
C26   C27   A    
C62   C63   A    
C66   H36   S    
C37   H10   S    
C36   C37   A    
C33   H8    S    
C1    O1    A    
C21   H40   S    
C10   C15   S    
C38   C39   A    
C10   F3    S    
C49   C54   A    
C29   N2    S    
C34   C62   S    
C47   H19   S    
C13   C23   S    
C11   C42   S    
C18   C19   A    
C63   H32   S    
C39   H13   S    
C59   H29   S    
C11   C15   S    
C31   C32   A    
C19   H38   S    
C16   C17   A    
C11   F9    S    
C29   C30   A    
C25   H42   S    
C58   H28   S    
C34   F5    S    
C3    C5    D    
C46   H18   S    
C13   F10   S    
C59   C60   A    
C26   H2    S    
C31   H6    S    
C22   C28   A    
C45   F2    S    
C65   H35   S    
C36   C41   A    
O6    Zn2   S    
C6    N1    D    
C4    C69   S    
C44   C46   A    
C43   H16   S    
C9    O7    A    
C48   H20   S    
C4    O4    A    
N1    Zn2   S    
C51   C52   A    
C1    O2    A    
C3    C8    S    
C39   C40   A    
C54   H26   S    
C6    F7    S    
C50   C51   A    
C58   C59   A    
C32   H7    S    
C38   H11   S    
C60   C61   A    
C67   C69   T    
C9    C14   S    
C37   C38   A    
O4    Zn2   S    
C68   H37   S    
C5    H1    S    
C44   H17   S    
C47   C48   A    
C23   C34   S    
C15   C67   S    
C17   C18   A    
C34   C45   S    
C42   C48   A    
C24   C25   A    
C30   H5    S    
F8    N1    S    
C45   C55   S    
C10   C12   S    
O5    Zn1   S    
N2    Zn1   S    
C40   C41   A    
C57   H27   S    
C12   F1    S    
C49   C50   A    
C55   C57   A    
C8    O6    A    
C13   C49   S    
C2    C5    S    
C42   C43   A    
C15   C45   S    
C61   H31   S    
C35   H9    S    
C27   C28   A    
C2    F6    S    
C52   C53   A    
C9    O8    A    
O1    Zn1   S    
C46   C47   A    
C52   H24   S    
C64   H33   S    
C4    O3    A    
O3    Zn1   S    
C40   H14   S    
O7    Zn1   S    
C6    C7    S    
C29   C35   A    
C1    C70   S    
C62   C68   A    
C64   C65   A    
C27   H3    S    
C25   C26   A    
C32   C33   A    
C11   C13   S    
C57   C58   A    
C30   C31   A    
C7    H12   S    
C55   C61   A    
C24   H41   S    
C33   C35   A    
C22   C24   A    
C17   H23   S    
C60   H30   S    
C63   C64   A    
C53   H25   S    
C20   C21   A    
O2    Zn2   S    
C50   H21   S    
O8    Zn2   S    
C65   C66   A    
C8    O5    A    
C10   C36   S    
C2    C70   D    
C22   C70   S    
C20   H39   S    
C3    C16   S    
