data_mof_unit_35074.cif
_audit_creation_date              2013-03-05T15:47:51-0500
_audit_creation_method            fapswitch 2.2
_symmetry_space_group_name_H-M    P1
_symmetry_Int_Tables_number       1
_space_group_crystal_system       triclinic
_cell_length_a                    10.222991
_cell_length_b                    10.461475
_cell_length_c                    15.72205
_cell_angle_alpha                 90.668268
_cell_angle_beta                  81.511228
_cell_angle_gamma                 94.922046
_cell_volume                      1656.88105878

loop_
_atom_site_label
_atom_site_type_symbol
_atom_site_description
_atom_site_fract_x
_atom_site_fract_y
_atom_site_fract_z
_atom_type_partial_charge
O1    O     O_R   0.431050 0.692470 0.506940 -0.562159
O2    O     O_R   0.651130 0.659650 0.484820 -0.588909
C1    C     C_R   0.554951 0.734418 0.489575 0.903477
O3    O     O_R   0.389910 0.516410 0.633920 -0.621947
O4    O     O_R   0.609990 0.483590 0.611800 -0.559188
C2    C     C_R   0.500131 0.499953 0.661429 0.884252
Zn1   Zn    Zn3+2 0.353060 0.521920 0.514770 1.113950
Zn2   Zn    Zn3+2 0.646940 0.478080 0.485230 1.106902
O5    O     O_R   0.348870 0.340350 0.515180 -0.579633
O6    O     O_R   0.568950 0.307530 0.493060 -0.615440
O7    O     O_R   0.390010 0.516410 0.388200 -0.558954
O8    O     O_R   0.610090 0.483590 0.366080 -0.572035
C3    C     C_R   0.444890 0.264977 0.504342 0.724162
C4    C     C_R   0.499376 0.497819 0.338635 0.921621
C5    C     C_3   0.358011 0.548839 0.965140 0.851609
C6    C     C_3   0.611060 0.600249 0.937545 -0.093162
C7    C     C_3   0.622837 0.608329 0.036972 0.595689
H1    H     H_    0.581961 0.695575 0.919694 0.232165
C8    C     C_1   0.500199 0.500113 0.249918 -0.058023
C9    C     C_3   0.493527 0.501668 0.917971 -0.240685
C10   C     C_3   0.369266 0.554905 0.064302 0.224567
C11   C     C_3   0.506284 0.506217 0.082658 -0.321830
C12   C     C_3   0.527571 0.362589 0.046370 0.539944
C13   C     C_3   0.513563 0.363136 0.947643 0.176109
C14   C     C_1   0.503053 0.503761 0.174437 0.136307
C15   C     C_1   0.496197 0.500454 0.825795 0.124271
C16   C     C_1   0.499618 0.499919 0.750195 -0.122258
H2    H     H_    0.605690 0.338108 0.906879 0.188435
H3    H     H_    0.285270 0.491982 0.096121 0.087464
H4    H     H_    0.584658 0.125078 0.396531 0.154156
C17   C     C_2   0.584055 0.870760 0.470317 0.173800
C18   C     C_2   0.499963 0.931740 0.428897 0.249153
C19   C     C_2   0.416996 0.126482 0.494020 0.424732
C20   C     C_2   0.502116 0.070150 0.435049 -0.216297
N1    N     N_2   0.842720 0.448890 0.465540 -0.054970
C21   C     C_2   0.923510 0.493898 0.518121 0.275998
N2    N     N_2   0.157250 0.551040 0.534500 -0.058368
C22   C     C_2   0.068259 0.471946 0.505040 0.293557
O9    O     O_3   0.355339 0.682070 0.096500 -0.555000
C23   C     C_3   0.257266 0.686234 0.169902 -0.131615
H5    H     H_    0.278373 0.625509 0.222820 0.195668
H6    H     H_    0.156985 0.656188 0.153736 0.161135
H7    H     H_    0.256633 0.786519 0.193519 0.224881
O10   O     O_3   0.246651 0.459340 0.954860 -0.648388
C24   C     C_3   0.206558 0.455756 0.872223 -0.104285
H8    H     H_    0.241761 0.369846 0.836898 0.179646
H9    H     H_    0.239902 0.542094 0.831944 0.164602
H10   H     H_    0.096516 0.445615 0.880502 0.232153
N3    N     N_R   0.662291 0.330470 0.058689 0.236673
O11   O     O_R   0.681654 0.301918 0.136086 -0.274574
O12   O     O_R   0.749478 0.296135 0.995603 -0.354942
N4    N     N_R   0.408338 0.865087 0.378930 0.223430
O13   O     O_R   0.298492 0.914152 0.369799 -0.291823
O14   O     O_R   0.447679 0.773349 0.327575 -0.499732
O15   O     O_3   0.308703 0.053871 0.539376 -0.534116
C25   C     C_3   0.277196 0.099719 0.624065 -0.133125
H11   H     H_    0.220061 0.185433 0.624984 0.184477
H12   H     H_    0.367153 0.120541 0.655860 0.093270
H13   H     H_    0.212660 0.024119 0.662523 0.223175
O16   O     O_3   0.679624 0.939561 0.510361 -0.611022
C26   C     C_3   0.799992 0.948463 0.453197 -0.075487
H14   H     H_    0.790657 0.999961 0.393099 0.139236
H15   H     H_    0.835512 0.852100 0.437697 0.192212
H16   H     H_    0.876629 0.004357 0.484699 0.250926
N5    N     N_R   0.104563 0.350357 0.470487 0.210967
O17   O     O_R   0.040200 0.245508 0.503377 -0.389271
O18   O     O_R   0.178274 0.345110 0.395918 -0.336288
N6    N     N_R   0.870980 0.551099 0.597793 0.213258
O19   O     O_R   0.896887 0.506046 0.669698 -0.336452
O20   O     O_R   0.824577 0.662982 0.597715 -0.293268
N7    N     N_R   0.127334 0.677269 0.550731 0.309827
O21   O     O_R   0.177666 0.740210 0.611689 -0.311074
O22   O     O_R   0.079510 0.741289 0.493512 -0.332012
O23   O     O_3   0.342766 0.673833 0.933109 -0.641200
C27   C     C_3   0.216052 0.718885 0.959949 -0.089626
H17   H     H_    0.146999 0.653674 0.004402 0.199033
H18   H     H_    0.168325 0.735212 0.902510 0.181659
H19   H     H_    0.229341 0.812812 0.992459 0.187108
N8    N     N_R   0.896979 0.417834 0.382101 0.301237
O24   O     O_R   0.837634 0.325422 0.342383 -0.309952
O25   O     O_R   0.983627 0.498431 0.337080 -0.369985
N9    N     N_R   0.736730 0.585241 0.879974 0.255528
O26   O     O_R   0.786864 0.677479 0.827025 -0.280157
O27   O     O_R   0.798864 0.481948 0.879641 -0.317407
O28   O     O_3   0.595986 0.737496 0.061141 -0.581953
C28   C     C_3   0.651812 0.788294 0.132819 0.000081
H20   H     H_    0.758347 0.820395 0.113873 0.175111
H21   H     H_    0.638895 0.721234 0.187732 0.158545
H22   H     H_    0.600586 0.874338 0.155549 0.192599
N10   N     N_R   0.759299 0.585426 0.053032 0.214707
O29   O     O_R   0.777695 0.543013 0.127458 -0.353660
O30   O     O_R   0.860572 0.650763 0.008982 -0.364067
O31   O     O_3   0.406641 0.275821 0.929671 -0.581927
C29   C     C_3   0.450606 0.155101 0.903625 -0.177734
H23   H     H_    0.362560 0.086249 0.900859 0.184722
H24   H     H_    0.509942 0.116690 0.949914 0.218887
H25   H     H_    0.509256 0.161638 0.838148 0.154929
O32   O     O_3   0.445771 0.257097 0.089990 -0.575452
C30   C     C_3   0.309689 0.266446 0.116710 -0.153283
H26   H     H_    0.256881 0.292238 0.063843 0.229656
H27   H     H_    0.292818 0.327248 0.174867 0.158495
H28   H     H_    0.264997 0.169431 0.137502 0.202580

loop_
_geom_bond_atom_site_label_1
_geom_bond_atom_site_label_2
_geom_bond_distance
_ccdc_geom_bond_type
C19   O15   1.395127 S    
O15   C25   1.411255 S    
O31   C29   1.412676 S    
N1    C21   1.308821 D    
C24   H8    1.109313 S    
O10   C24   1.418032 S    
Zn1   O7    1.971042 S    
C15   C16   1.183898 T    
C7    O28   1.437560 S    
C5    O10   1.437591 S    
O4    C2    1.292522 A    
O7    C4    1.292928 A    
C28   H21   1.104327 S    
C12   N3    1.485567 S    
O32   C30   1.404008 S    
C25   H11   1.110194 S    
C26   H15   1.112863 S    
O5    C3    1.301789 A    
C18   N4    1.439824 S    
C23   H7    1.109038 S    
C17   C18   1.356155 D    
N6    O19   1.300982 A    
N5    O18   1.300043 A    
C11   C14   1.438920 S    
C30   H28   1.108939 S    
C12   C13   1.579818 S    
C2    C16   1.394817 S    
C6    C9    1.578320 S    
C23   H6    1.110923 S    
C10   C11   1.596860 S    
C29   H23   1.109251 S    
O3    Zn1   1.966981 S    
N4    O14   1.298848 A    
C24   H9    1.108961 S    
C5    C9    1.586884 S    
O23   C27   1.420210 S    
H4    C20   1.087668 S    
C9    C13   1.566790 S    
O3    C2    1.290447 A    
O9    C23   1.415491 S    
N8    O25   1.302781 A    
C28   H20   1.109706 S    
C6    C7    1.586174 S    
C29   H25   1.111884 S    
N3    O12   1.301093 A    
O28   C28   1.414899 S    
C10   H3    1.097622 S    
O6    C3    1.294863 A    
O16   C26   1.409381 S    
O1    C1    1.294916 A    
Zn2   N1    2.028464 S    
C18   C20   1.448571 S    
C17   O16   1.385387 S    
C26   H16   1.109150 S    
C29   H24   1.112681 S    
C27   H17   1.111303 S    
C3    C19   1.464289 S    
N2    C22   1.308860 D    
N10   O30   1.302544 A    
C30   H26   1.103544 S    
C10   O9    1.428928 S    
C22   N5    1.433954 S    
Zn2   O8    1.966981 S    
C12   O32   1.441358 S    
C6    N9    1.477299 S    
C19   C20   1.342077 D    
Zn1   N2    2.028597 S    
C1    C17   1.457846 S    
C27   H18   1.109371 S    
Zn2   O6    1.888454 S    
C23   H5    1.109581 S    
C30   H27   1.108633 S    
O8    C4    1.289949 A    
N9    O26   1.301818 A    
N9    O27   1.299173 A    
N2    N7    1.393149 S    
N4    O13   1.301277 A    
N7    O22   1.302671 A    
C24   H10   1.109207 S    
Zn1   O5    1.896359 S    
O1    Zn1   1.888453 S    
C4    C8    1.394067 S    
O2    Zn2   1.896360 S    
C7    N10   1.493355 S    
C13   H2    1.107480 S    
C28   H22   1.109207 S    
O4    Zn2   1.971043 S    
C21   N6    1.433371 S    
C7    C11   1.619750 S    
C25   H13   1.109146 S    
C21   C22   1.500706 S    
O2    C1    1.301175 A    
N7    O21   1.299828 A    
C13   O31   1.422253 S    
N10   O29   1.301084 A    
C9    C15   1.445348 S    
N1    N8    1.392938 S    
C25   H12   1.114379 S    
N5    O17   1.300920 A    
C26   H14   1.113314 S    
C8    C14   1.183753 T    
C27   H19   1.109566 S    
N8    O24   1.299900 A    
C5    C10   1.580274 S    
C5    O23   1.435714 S    
C6    H1    1.115282 S    
N3    O11   1.303386 A    
N6    O20   1.300185 A    
C11   C12   1.621730 S    
