data_mof_unit_15146.cif
_audit_creation_date              2013-03-05T15:55:10-0500
_audit_creation_method            fapswitch 2.2
_symmetry_space_group_name_H-M    P1
_symmetry_Int_Tables_number       1
_space_group_crystal_system       triclinic
_cell_length_a                    12.401883
_cell_length_b                    13.131708
_cell_length_c                    14.299378
_cell_angle_alpha                 78.450788
_cell_angle_beta                  100.496494
_cell_angle_gamma                 116.561325
_cell_volume                      2029.36854909

loop_
_atom_site_label
_atom_site_type_symbol
_atom_site_description
_atom_site_fract_x
_atom_site_fract_y
_atom_site_fract_z
_atom_type_partial_charge
O1    O     O_R   0.972510 0.318130 0.525390 -0.530903
O2    O     O_R   0.806530 0.359650 0.491290 -0.548731
C1    C     C_R   0.855331 0.286292 0.508664 0.863221
O3    O     O_R   0.083010 0.479240 0.641000 -0.540649
O4    O     O_R   0.917030 0.520750 0.606900 -0.593050
C2    C     C_R   0.999970 0.499831 0.668558 0.776966
Cu1   Cu    Cu3+1 0.098280 0.475420 0.520190 0.990880
Cu2   Cu    Cu3+1 0.901720 0.524580 0.479810 0.995792
O5    O     O_R   0.193470 0.640350 0.508710 -0.572539
O6    O     O_R   0.027490 0.681870 0.474610 -0.501216
O7    O     O_R   0.082970 0.479250 0.393100 -0.595191
O8    O     O_R   0.916990 0.520760 0.359000 -0.503257
C3    C     C_R   0.145222 0.714151 0.489862 0.840221
C4    C     C_R   0.000167 0.499958 0.331498 0.816869
C5    C     C_1   0.000420 0.499855 0.771027 -0.173931
C6    C     C_1   0.000769 0.499740 0.856643 0.035456
C7    C     C_1   0.000931 0.499578 0.957446 0.030048
C8    C     C_1   0.000979 0.499490 0.043021 0.017391
C9    C     C_1   0.000932 0.499487 0.143756 -0.021377
C10   C     C_1   0.000690 0.499593 0.229236 -0.205317
C11   C     C_R   0.280989 0.039188 0.424314 -0.053132
C12   C     C_R   0.229141 0.838095 0.482061 -0.286519
C13   C     C_R   0.820122 0.084196 0.565553 -0.261374
C14   C     C_R   0.743605 0.967480 0.581372 0.471303
C15   C     C_R   0.618883 0.930829 0.557919 -0.134202
C16   C     C_R   0.569414 0.007993 0.508510 -0.023609
C17   C     C_R   0.652241 0.120673 0.474863 -0.061764
C18   C     C_R   0.442207 0.977699 0.487650 -0.028119
C19   C     C_R   0.403789 0.059857 0.430093 -0.169415
C20   C     C_R   0.487615 0.157420 0.377147 -0.075114
C21   C     C_R   0.611396 0.185811 0.398337 0.436723
C22   C     C_R   0.350424 0.870706 0.523042 0.430554
C23   C     C_R   0.192998 0.924367 0.433863 0.414616
C24   C     C_R   0.775272 0.162171 0.513915 -0.184142
H1    H     H_    0.914601 0.113209 0.593953 0.232018
H2    H     H_    0.565390 0.840625 0.575841 0.253438
C25   C     C_R   0.325967 0.301733 0.629601 -0.152119
N1    N     N_R   0.246290 0.438200 0.550780 -0.274903
C26   C     C_R   0.753472 0.633194 0.365544 0.558674
C27   C     C_R   0.647190 0.647330 0.326123 -0.257672
C28   C     C_R   0.538051 0.570638 0.362839 0.479154
C29   C     C_R   0.541296 0.512446 0.457091 -0.117159
C30   C     C_R   0.652220 0.507330 0.498922 -0.056336
C31   C     C_R   0.439509 0.460240 0.512646 -0.070315
C32   C     C_R   0.435808 0.369970 0.587504 -0.151258
C33   C     C_R   0.545143 0.358100 0.621404 0.455400
C34   C     C_R   0.653791 0.450097 0.592832 -0.027366
C35   C     C_R   0.346162 0.498500 0.501032 0.072222
C36   C     C_R   0.234859 0.341716 0.613635 0.672003
N2    N     N_R   0.754310 0.561180 0.449760 -0.217669
O9    O     O_3   0.072452 0.897458 0.401264 -0.531866
C37   C     C_3   0.061060 0.921165 0.299902 -0.120838
H3    H     H_    0.966505 0.908028 0.274290 0.178811
H4    H     H_    0.081879 0.862308 0.267865 0.142043
H5    H     H_    0.119131 0.011656 0.272732 0.178918
O10   O     O_3   0.550659 0.281842 0.702210 -0.573498
C38   C     C_3   0.602956 0.214110 0.681666 -0.284989
H6    H     H_    0.700307 0.266233 0.670777 0.176156
H7    H     H_    0.551978 0.169446 0.618269 0.142824
H8    H     H_    0.597914 0.146959 0.743888 0.187205
C39   C     C_2   0.298624 0.185551 0.683962 0.396383
H9    H     H_    0.356741 0.171533 0.746388 0.133727
O11   O     O_2   0.206066 0.103398 0.660516 -0.523444
C40   C     C_2   0.363847 0.611859 0.446838 0.603612
H10   H     H_    0.295463 0.620654 0.391204 0.096645
O12   O     O_2   0.457762 0.696746 0.461613 -0.583038
O13   O     O_3   0.858575 0.692294 0.320366 -0.549778
C41   C     C_3   0.839401 0.666138 0.225290 -0.323307
H11   H     H_    0.814741 0.728431 0.172538 0.139710
H12   H     H_    0.771085 0.576561 0.216819 0.172909
H13   H     H_    0.926333 0.676018 0.205796 0.184637
O14   O     O_3   0.429844 0.558230 0.307991 -0.564663
C42   C     C_3   0.389555 0.463988 0.257527 -0.244507
H14   H     H_    0.306277 0.458203 0.209914 0.202494
H15   H     H_    0.365273 0.382829 0.307771 0.144777
H16   H     H_    0.458115 0.474808 0.211271 0.159542
C43   C     C_2   0.651972 0.745321 0.251003 0.434216
H17   H     H_    0.737780 0.819332 0.240242 0.056732
O15   O     O_2   0.560853 0.746687 0.202170 -0.488038
C44   C     C_2   0.733250 0.520460 0.668840 0.460447
H18   H     H_    0.793928 0.609773 0.649334 0.066784
O16   O     O_2   0.730684 0.481023 0.753792 -0.513266
C45   C     C_2   0.449438 0.222781 0.290677 0.318430
H19   H     H_    0.510713 0.310494 0.266592 0.106937
O17   O     O_2   0.352585 0.177919 0.242623 -0.575160
C46   C     C_2   0.247742 0.136105 0.420134 0.494273
H20   H     H_    0.318356 0.222399 0.423666 0.029330
O18   O     O_2   0.142618 0.120399 0.418043 -0.521941
O19   O     O_3   0.375867 0.797628 0.598072 -0.567015
C47   C     C_3   0.363889 0.825751 0.684581 -0.301772
H21   H     H_    0.269030 0.811433 0.687877 0.161523
H22   H     H_    0.428065 0.915995 0.694625 0.157948
H23   H     H_    0.386276 0.768547 0.745171 0.198575
O20   O     O_3   0.788471 0.889511 0.628603 -0.581874
C48   C     C_3   0.850969 0.871675 0.564830 -0.185702
H24   H     H_    0.928307 0.952538 0.539651 0.214392
H25   H     H_    0.788247 0.832150 0.502498 0.151567
H26   H     H_    0.889674 0.811448 0.603295 0.181363
O21   O     O_3   0.691481 0.272472 0.338435 -0.591822
C49   C     C_3   0.720321 0.222042 0.274014 -0.324155
H27   H     H_    0.637434 0.162197 0.234256 0.180215
H28   H     H_    0.776582 0.176820 0.311841 0.175040
H29   H     H_    0.774119 0.291107 0.220112 0.192419
O22   O     O_3   0.131337 0.282168 0.660394 -0.544044
C50   C     C_3   0.159106 0.303247 0.756997 -0.271575
H30   H     H_    0.073083 0.278681 0.787062 0.183661
H31   H     H_    0.217119 0.395588 0.764474 0.152743
H32   H     H_    0.203254 0.249650 0.800859 0.154701

loop_
_geom_bond_atom_site_label_1
_geom_bond_atom_site_label_2
_geom_bond_distance
_ccdc_geom_bond_type
C48   H24   1.113113 S    
C42   H14   1.109203 S    
C9    C10   1.223142 T    
C36   O22   1.382903 S    
C47   H21   1.113736 S    
C48   H26   1.107959 S    
Cu1   Cu2   2.727243 S    
N1    C36   1.364921 A    
C32   C33   1.420267 A    
C37   H3    1.107667 S    
Cu1   O7    1.785332 S    
C50   H31   1.114951 S    
C16   C17   1.418389 A    
C12   C22   1.411567 A    
C18   C19   1.424651 A    
C20   C21   1.396889 A    
C44   H18   1.084344 S    
O7    C4    1.314787 A    
C46   O18   1.221038 D    
C35   C40   1.473975 S    
C11   C23   1.408299 A    
C5    C6    1.223176 T    
O10   C38   1.409971 S    
C8    C9    1.440549 S    
C28   C29   1.413276 A    
C20   C45   1.488250 S    
C39   O11   1.221068 D    
O5    C3    1.313450 A    
C2    C5    1.464301 S    
C11   C46   1.491032 S    
C45   H19   1.084676 S    
C6    C7    1.440635 S    
C13   C14   1.392642 A    
C21   O21   1.387109 S    
N1    C35   1.373146 A    
C37   H5    1.110593 S    
C42   H15   1.108111 S    
C39   H9    1.081043 S    
C29   C31   1.438037 A    
C34   C44   1.484494 S    
O3    Cu1   1.784672 S    
O22   C50   1.413484 S    
C37   H4    1.112316 S    
C43   O15   1.220866 D    
C17   C24   1.415874 A    
C50   H32   1.109624 S    
C17   C21   1.412955 A    
O13   C41   1.420912 S    
C4    C10   1.464458 S    
C18   C22   1.421533 A    
C14   C15   1.395173 A    
O3    C2    1.314742 A    
C26   C27   1.412736 A    
C46   H20   1.083000 S    
C41   H11   1.106470 S    
C38   H8    1.109012 S    
C1    C24   1.476132 S    
C15   C16   1.419045 A    
C43   H17   1.084227 S    
C11   C19   1.411849 A    
C49   H29   1.108183 S    
O9    C37   1.414815 S    
O1    C1    1.309177 A    
C40   O12   1.219564 D    
C19   C20   1.415129 A    
C14   O20   1.381931 S    
C25   C36   1.411761 A    
C47   H22   1.114195 S    
C22   O19   1.380847 S    
Cu2   O8    1.784672 S    
C13   C24   1.400009 A    
C49   H28   1.111982 S    
C7    C8    1.223325 T    
C28   O14   1.383723 S    
C44   O16   1.221603 D    
C27   C28   1.396441 A    
C45   O17   1.220879 D    
O8    C4    1.317651 A    
C13   H1    1.082752 S    
C42   H16   1.113497 S    
C29   C30   1.421805 A    
C25   C32   1.418501 A    
Cu2   N2    2.043204 S    
C31   C32   1.419241 A    
C47   H23   1.109186 S    
Cu1   O5    1.937269 S    
C12   C23   1.410067 A    
C33   C34   1.410373 A    
O1    Cu1   1.950444 S    
C26   O13   1.385657 S    
Cu2   O6    1.950445 S    
O2    Cu2   1.937270 S    
O14   C42   1.405390 S    
O6    C3    1.314013 A    
O4    Cu2   1.785332 S    
C25   C39   1.485049 S    
C48   H25   1.113761 S    
C30   N2    1.386293 A    
C23   O9    1.384481 S    
C50   H30   1.109424 S    
C16   C18   1.432090 A    
O21   C49   1.411096 S    
C40   H10   1.081876 S    
O2    C1    1.314067 A    
C38   H6    1.112274 S    
O4    C2    1.317625 A    
C41   H13   1.107618 S    
C49   H27   1.114004 S    
Cu1   N1    2.055204 S    
C3    C12   1.483033 S    
O20   C48   1.411606 S    
C38   H7    1.112641 S    
C15   H2    1.070758 S    
C26   N2    1.375795 A    
C41   H12   1.115595 S    
C33   O10   1.382658 S    
C27   C43   1.488181 S    
O19   C47   1.409836 S    
C30   C34   1.402826 A    
C31   C35   1.427206 A    
