data_mof_unit_28518.cif
_audit_creation_date              2013-03-05T16:47:55-0500
_audit_creation_method            fapswitch 2.2
_symmetry_space_group_name_H-M    P1
_symmetry_Int_Tables_number       1
_space_group_crystal_system       triclinic
_cell_length_a                    8.118241
_cell_length_b                    8.911974
_cell_length_c                    17.167865
_cell_angle_alpha                 89.881616
_cell_angle_beta                  85.165716
_cell_angle_gamma                 89.881091
_cell_volume                      1237.66387078

loop_
_atom_site_label
_atom_site_type_symbol
_atom_site_description
_atom_site_fract_x
_atom_site_fract_y
_atom_site_fract_z
_atom_type_partial_charge
O1    O     O_R   0.363150 0.714660 0.500000 -0.615910
O2    O     O_R   0.636850 0.285340 0.500000 -0.615875
O3    O     O_R   0.636850 0.714660 0.500000 -0.617446
O4    O     O_R   0.363150 0.285340 0.500000 -0.617403
C1    C     C_R   0.499839 0.781924 0.500333 0.928009
C2    C     C_R   0.500161 0.218076 0.499663 0.927988
O5    O     O_R   0.346950 0.500000 0.615800 -0.620324
O6    O     O_R   0.653050 0.500000 0.384200 -0.620292
O7    O     O_R   0.620700 0.500000 0.615800 -0.618647
O8    O     O_R   0.379300 0.500000 0.384200 -0.618628
C3    C     C_R   0.477510 0.498860 0.651914 0.911292
C4    C     C_R   0.522493 0.501157 0.348089 0.911321
Zn1   Zn    Zn3+2 0.317220 0.500000 0.500010 0.987032
Zn2   Zn    Zn3+2 0.682780 0.500000 0.499990 0.987039
H1    H     H_    0.432621 0.307047 0.110841 0.155604
H2    H     H_    0.569469 0.692396 0.889029 0.155690
N1    N     N_1   0.926360 0.500000 0.499990 -0.032829
N2    N     N_1   0.073640 0.500000 0.500010 -0.032823
C5    C     C_R   0.466033 0.487684 0.735495 -0.084667
C6    C     C_R   0.534037 0.512357 0.264510 -0.084463
C7    C     C_R   0.508846 0.613935 0.777948 0.133916
C8    C     C_R   0.492179 0.385885 0.222006 0.133885
C9    C     C_R   0.529209 0.597009 0.856404 -0.199523
C10   C     C_R   0.472225 0.402625 0.143497 -0.199391
C11   C     C_R   0.503343 0.457872 0.893185 0.086897
C12   C     C_R   0.497560 0.541833 0.106726 0.086957
C13   C     C_R   0.452105 0.331335 0.852170 0.237003
C14   C     C_R   0.547834 0.668631 0.147817 0.237064
C15   C     C_R   0.435807 0.346089 0.771331 0.118084
C16   C     C_R   0.563666 0.654042 0.228704 0.118258
C17   C     C_2   0.533326 0.448656 0.975037 -0.210306
C18   C     C_2   0.467682 0.550954 0.024852 -0.210075
C19   C     C_1   0.499830 0.934754 0.500127 -0.191657
C20   C     C_1   0.500171 0.065245 0.499865 -0.191700
H3    H     H_    0.392216 0.642271 0.005224 0.166574
H4    H     H_    0.608780 0.357302 0.994633 0.166439
C21   C     C_3   0.413027 0.183514 0.893695 -0.923959
H5    H     H_    0.285568 0.147953 0.883559 0.249841
H6    H     H_    0.502761 0.096370 0.871326 0.238388
H7    H     H_    0.416983 0.188977 0.957915 0.234236
C22   C     C_3   0.586359 0.816582 0.106332 -0.924483
H8    H     H_    0.713419 0.852838 0.116737 0.249914
H9    H     H_    0.583121 0.810979 0.042075 0.234224
H10   H     H_    0.495880 0.903254 0.128492 0.238464
C23   C     C_3   0.537344 0.765829 0.739841 -0.902681
H11   H     H_    0.563626 0.853499 0.782978 0.235403
H12   H     H_    0.644282 0.760546 0.695150 0.255831
H13   H     H_    0.425453 0.800728 0.711379 0.234800
C24   C     C_3   0.464217 0.233943 0.260115 -0.903107
H14   H     H_    0.438506 0.146147 0.216956 0.235449
H15   H     H_    0.576123 0.199511 0.288687 0.235036
H16   H     H_    0.357102 0.238892 0.304717 0.255684
C25   C     C_3   0.605936 0.787042 0.278598 -0.885476
H17   H     H_    0.503889 0.806801 0.324665 0.229538
H18   H     H_    0.721316 0.763005 0.306773 0.251640
H19   H     H_    0.624914 0.893629 0.246050 0.249085
C26   C     C_3   0.392440 0.213318 0.721511 -0.884898
H20   H     H_    0.494108 0.193094 0.675308 0.229277
H21   H     H_    0.373042 0.106778 0.754074 0.248946
H22   H     H_    0.276975 0.237922 0.693507 0.251750

loop_
_geom_bond_atom_site_label_1
_geom_bond_atom_site_label_2
_geom_bond_distance
_ccdc_geom_bond_type
C11   C17   1.448358 S    
O7    Zn2   2.009500 S    
C12   C18   1.448458 S    
C21   H5    1.110562 S    
C13   C15   1.411027 A    
C22   H9    1.106915 S    
C22   H8    1.110400 S    
C12   C14   1.412418 A    
C17   C18   1.330767 D    
O6    C4    1.272193 A    
C24   H16   1.110051 S    
C4    C6    1.433314 S    
C9    C11   1.398530 A    
C19   C20   1.162941 T    
C21   H6    1.110426 S    
C6    C16   1.415369 A    
C25   H17   1.110109 S    
O5    C3    1.272249 A    
O7    C3    1.270563 A    
Zn2   N1    1.977441 S    
C3    C5    1.433351 S    
C26   H20   1.110188 S    
O2    C2    1.262779 A    
O3    Zn2   1.948282 S    
O8    C4    1.270569 A    
Zn1   N2    1.977441 S    
C13   C21   1.517923 S    
C8    C24   1.511868 S    
O1    C1    1.262779 A    
C14   C16   1.411048 A    
H1    C10   1.084766 S    
C16   C25   1.520475 S    
C15   C26   1.520604 S    
N1    N2    1.195684 T    
H2    C9    1.084968 S    
C7    C23   1.511981 S    
C25   H18   1.110106 S    
C7    C9    1.378730 A    
O2    Zn2   1.949801 S    
C22   H10   1.110255 S    
C8    C10   1.378779 A    
C26   H21   1.105635 S    
C11   C13   1.412490 A    
C21   H7    1.106869 S    
C5    C15   1.415531 A    
C18   H3    1.087558 S    
O3    C1    1.262035 A    
C14   C22   1.517851 S    
O5    Zn1   2.022556 S    
O1    Zn1   1.949800 S    
C10   C12   1.398530 A    
O4    C2    1.262036 A    
C24   H14   1.110819 S    
C23   H12   1.110081 S    
C25   H19   1.105520 S    
O4    Zn1   1.948282 S    
C17   H4    1.087547 S    
C26   H22   1.110207 S    
O6    Zn2   2.022557 S    
C23   H13   1.110690 S    
C5    C7    1.402018 A    
C23   H11   1.110917 S    
C2    C20   1.362016 S    
C6    C8    1.401824 A    
C24   H15   1.110604 S    
O8    Zn1   2.009500 S    
C1    C19   1.362016 S    
