data_mof_unit_11264.cif
_audit_creation_date              2012-12-11T14:47:58-0500
_audit_creation_method            fapswitch 2.2
_symmetry_space_group_name_H-M    P1
_symmetry_Int_Tables_number       1
_space_group_crystal_system       triclinic
_cell_length_a                    8.261574
_cell_length_b                    15.113039
_cell_length_c                    22.87869
_cell_angle_alpha                 96.722712
_cell_angle_beta                  89.461185
_cell_angle_gamma                 99.747671
_cell_volume                      2795.819597

loop_
_atom_site_label
_atom_site_type_symbol
_atom_type_description
_atom_site_fract_x
_atom_site_fract_y
_atom_site_fract_z
_atom_type_partial_charge
Ba1   Ba    Ba6+2 0.857590 0.542650 0.472590 1.667310
Ba2   Ba    Ba6+2 0.332250 0.457420 0.527420 1.660945
C1    C     C_3   0.823981 0.852802 0.276481 -0.193787
C2    C     C_R   0.125741 0.569223 0.937263 -0.027558
C3    C     C_R   0.076506 0.567429 0.877940 0.593354
C4    C     C_3   0.161336 0.719825 0.313991 0.240186
C5    C     C_R   0.920710 0.418430 0.879547 0.574543
C6    C     C_R   0.968076 0.418269 0.938982 -0.021468
C7    C     C_R   0.071000 0.494214 0.967921 -0.048354
C8    C     C_R   0.228106 0.644789 0.966796 -0.075821
C9    C     C_R   0.275084 0.645865 0.025408 -0.044388
C10   C     C_R   0.221337 0.571403 0.056631 -0.024001
C11   C     C_R   0.119047 0.495370 0.027841 -0.053780
C12   C     C_3   0.735916 0.781258 0.314210 0.695165
C13   C     C_R   0.915269 0.343698 0.970209 -0.071948
C14   C     C_R   0.963603 0.344630 0.028874 -0.069293
C15   C     C_R   0.065614 0.420408 0.058600 -0.027929
C16   C     C_3   0.146857 0.727671 0.248022 0.355306
C17   C     C_R   0.115509 0.422656 0.118168 0.597777
C18   C     C_R   0.267583 0.572239 0.116065 0.587911
C19   C     C_2   0.766881 0.471967 0.770696 -0.069876
C20   C     C_3   0.718495 0.479917 0.707877 -0.056342
C21   C     C_1   0.007375 0.516208 0.685311 0.042663
C22   C     C_2   0.053402 0.517012 0.741198 -0.108796
C23   C     C_3   0.476491 0.329074 0.348433 0.296018
C24   C     C_2   0.927530 0.492005 0.787621 0.194876
C25   C     C_R   0.416389 0.542863 0.230941 -0.072676
C26   C     C_R   0.453620 0.557508 0.291334 0.025838
C27   C     C_R   0.183703 0.481265 0.313368 0.024155
C28   C     C_3   0.235847 0.736917 0.602057 0.305013
C29   C     C_R   0.140209 0.471405 0.252838 -0.121568
C30   C     C_R   0.256303 0.503431 0.210245 0.166118
C31   C     C_2   0.861361 0.473489 0.666933 -0.286007
C32   C     C_R   0.762572 0.232829 0.518106 -0.279037
C33   C     C_R   0.846750 0.173888 0.542798 0.047853
C34   C     C_3   0.460719 0.305092 0.282078 -0.344816
C35   C     C_R   0.776835 0.081863 0.540570 -0.026177
C36   C     C_R   0.625295 0.046891 0.510060 0.059140
C37   C     C_R   0.547834 0.109176 0.483539 -0.069290
C38   C     C_R   0.614981 0.200809 0.488332 0.037915
C39   C     C_R   0.396008 0.914101 0.475500 -0.174004
C40   C     C_3   0.259847 0.838333 0.620592 -0.379575
C41   C     C_R   0.338032 0.821173 0.462494 -0.015022
C42   C     C_R   0.579614 0.788639 0.509316 0.065103
C43   C     C_R   0.641654 0.881417 0.519787 -0.086996
C44   C     C_R   0.553385 0.946744 0.502148 0.008539
C45   C     C_3   0.028929 0.267568 0.687810 0.275393
C46   C     C_R   0.431999 0.759054 0.478484 -0.270199
C47   C     C_3   0.005917 0.252158 0.392955 0.183886
C48   C     C_3   0.087067 0.171790 0.367329 0.230489
C49   C     C_3   0.735192 0.668095 0.650265 0.301510
C50   C     C_3   0.783378 0.706768 0.713396 -0.365599
C51   C     C_3   0.542229 0.870362 0.346490 0.151312
C52   C     C_3   0.064665 0.250712 0.750179 -0.310588
C53   C     C_3   0.526667 0.228166 0.657143 0.356741
C54   C     C_3   0.527345 0.137002 0.678941 -0.365417
C55   C     C_R   0.337305 0.527764 0.331877 -0.316995
H1    H     H_    0.793735 0.791239 0.358780 0.041888
H2    H     H_    0.635101 0.609045 0.650174 0.034996
H3    H     H_    0.956266 0.852102 0.275481 0.166082
H4    H     H_    0.875480 0.769563 0.713583 0.142226
H5    H     H_    0.838410 0.658130 0.736095 0.077256
H6    H     H_    0.673393 0.722710 0.738012 0.123498
H7    H     H_    0.813824 0.922695 0.294168 0.105944
H8    H     H_    0.357765 0.345682 0.365466 -0.029648
H9    H     H_    0.574385 0.389068 0.357916 0.078824
H10   H     H_    0.429451 0.362757 0.261337 0.063848
H11   H     H_    0.578697 0.288907 0.263809 0.143643
H12   H     H_    0.344366 0.856599 0.659214 0.132729
H13   H     H_    0.362180 0.245704 0.271332 0.130728
H14   H     H_    0.774774 0.839415 0.230721 0.152270
H15   H     H_    0.185465 0.667733 0.223973 0.017183
H16   H     H_    0.102542 0.333636 0.680461 0.090668
H17   H     H_    0.896198 0.270372 0.683443 -0.017879
H18   H     H_    0.193517 0.239653 0.753940 0.145379
H19   H     H_    0.048576 0.310439 0.781203 0.116723
H20   H     H_    0.980001 0.190355 0.762038 0.125024
H21   H     H_    0.641194 0.245764 0.632192 -0.065792
H22   H     H_    0.418207 0.221927 0.627703 0.094915
H23   H     H_    0.313067 0.875808 0.584429 0.066390
H24   H     H_    0.636581 0.140467 0.707587 0.127746
H25   H     H_    0.531675 0.084643 0.640890 0.058904
H26   H     H_    0.071012 0.659135 0.321801 0.015898
H27   H     H_    0.414166 0.117579 0.704298 0.136991
H28   H     H_    0.919953 0.285689 0.051000 0.128643
H29   H     H_    0.836310 0.284025 0.949307 0.126012
H30   H     H_    0.353759 0.705686 0.046284 0.148025
H31   H     H_    0.512961 0.562157 0.200348 0.133500
H32   H     H_    0.272431 0.703639 0.944657 0.128339
H33   H     H_    0.181985 0.535814 0.753638 0.134958
H34   H     H_    0.139782 0.858965 0.632411 0.125538
H35   H     H_    0.671382 0.458068 0.802892 0.110865
H36   H     H_    0.017205 0.438974 0.239443 0.143997
H37   H     H_    0.370684 0.535700 0.378056 0.079600
H38   H     H_    0.285753 0.707309 0.323800 0.022326
H39   H     H_    0.846565 0.430960 0.624997 0.066958
H40   H     H_    0.315905 0.958605 0.463813 0.136845
H41   H     H_    0.844639 0.039525 0.561833 0.062886
H42   H     H_    0.757635 0.900479 0.542802 0.079436
H43   H     H_    0.438147 0.088505 0.456982 0.095740
H44   H     H_    0.385409 0.687369 0.470106 0.069550
H45   H     H_    0.877403 0.227733 0.404947 0.048947
H46   H     H_    0.815368 0.303710 0.519976 0.061184
H47   H     H_    0.017789 0.723182 0.234496 0.034263
H48   H     H_    0.356071 0.717161 0.590936 0.010722
H49   H     H_    0.151915 0.720180 0.563238 0.051831
H50   H     H_    0.772554 0.070168 0.348956 0.314075
H51   H     H_    0.560803 0.923001 0.316053 0.130113
H52   H     H_    0.619751 0.891514 0.386702 0.063753
H53   H     H_    0.413257 0.866300 0.358804 0.122175
H54   H     H_    0.257929 0.892914 0.144429 0.364900
H55   H     H_    0.070982 0.287476 0.433246 0.062316
H56   H     H_    0.072660 0.161501 0.318611 0.066781
H57   H     H_    0.219867 0.185443 0.377001 0.062759
H58   H     H_    0.844096 0.647280 0.627807 0.026654
N1    N     N_R   0.976124 0.492253 0.849202 -0.426174
N2    N     N_R   0.212331 0.499170 0.147433 -0.428249
O1    O     O_2   0.888680 0.450300 0.360330 -0.435300
O2    O     O_2   0.189722 0.181432 0.543103 -0.434971
O3    O     O_3   0.072916 0.197376 0.648476 -0.611652
O4    O     O_3   0.129270 0.451230 0.431380 -0.496337
O5    O     O_3   0.578310 0.608920 0.529980 -0.485466
O6    O     O_2   0.337770 0.279070 0.470480 -0.473615
O7    O     O_3   0.516271 0.254798 0.373266 -0.634066
O8    O     O_2   0.374428 0.433239 0.704225 -0.501403
O9    O     O_3   0.517807 0.293544 0.705483 -0.590225
O10   O     O_2   0.121050 0.633676 0.852210 -0.593434
O11   O     O_2   0.830874 0.352391 0.854784 -0.598548
O12   O     O_3   0.679146 0.735156 0.623022 -0.637674
O13   O     O_2   0.074869 0.355598 0.143415 -0.588982
O14   O     O_2   0.357022 0.639091 0.139795 -0.545930
O15   O     O_3   0.676100 0.614850 0.396630 -0.485622
O16   O     O_2   0.762876 0.531563 0.294980 -0.496749
O17   O     O_3   0.000640 0.306877 0.347857 -0.646067
O18   O     O_3   0.759394 0.697026 0.285364 -0.620819
O19   O     O_2   0.851930 0.720960 0.529560 -0.473037
O20   O     O_3   0.095720 0.661380 0.425720 -0.504679
O21   O     O_2   0.995958 0.817769 0.455020 -0.443033
O22   O     O_2   0.066961 0.992414 0.356263 -0.262516
O23   O     O_3   0.125975 0.796552 0.349902 -0.571556
O24   O     O_2   0.051062 0.066434 0.455651 -0.291450
O25   O     O_3   0.795923 0.050457 0.387331 -0.565387
O26   O     O_3   0.566537 0.785663 0.317850 -0.667225
O27   O     O_2   0.264986 0.908532 0.265606 -0.274934
O28   O     O_2   0.439619 0.810902 0.211807 -0.248133
O29   O     O_3   0.183207 0.841393 0.158389 -0.508015
O30   O     O_2   0.301020 0.549730 0.639710 -0.465207
O31   O     O_3   0.060450 0.548840 0.568630 -0.494786
O32   O     O_3   0.513610 0.385220 0.603380 -0.482646
O33   O     O_3   0.169692 0.693699 0.649605 -0.627223
O34   O     O_3   0.611400 0.391150 0.470030 -0.476272
O35   O     O_3   0.093990 0.338690 0.574280 -0.498795
P1    P     P_3+3 0.054670 0.423610 0.368990 0.996440
P2    P     P_3+3 0.674060 0.707690 0.546600 0.986847
P3    P     P_3+3 0.139205 0.777630 0.424135 1.006308
P4    P     P_3+3 0.135040 0.576460 0.631020 0.992994
P5    P     P_3+3 0.050165 0.221541 0.576360 0.979458
P6    P     P_3+3 0.660951 0.604009 0.318950 0.986756
P7    P     P_3+3 0.520492 0.278895 0.449967 0.965908
P8    P     P_3+3 0.531458 0.399655 0.680192 0.965487
S1    S     S_3+6 0.001621 0.067160 0.392987 -0.111099
S2    S     S_3+6 0.266116 0.825755 0.222422 -0.040799

loop_
_geom_bond_atom_site_label_1
_geom_bond_atom_site_label_2
_ccdc_geom_bond_type
O21   P3    D    
C51   H53   S    
C42   C46   A    
C47   O17   S    
O24   S1    D    
O5    P2    S    
C38   P7    S    
C30   N2    S    
C53   C54   S    
Ba1   O15   S    
O25   S1    S    
C49   O12   S    
O8    P8    D    
C54   H24   S    
C26   C55   A    
C40   H23   S    
O29   S2    S    
C39   C44   A    
O4    P1    S    
C32   C38   A    
C33   C35   A    
C22   C24   S    
C32   C33   A    
C50   H4    S    
C36   C37   A    
C28   O33   S    
O17   P1    S    
C12   O18   S    
Ba2   O31   S    
C13   C14   A    
O7    P7    S    
O19   P2    D    
O20   P3    S    
O1    P1    D    
C49   H58   S    
Ba1   Ba2   S    
C7    C11   A    
Ba1   O5    S    
C18   N2    Am   
C12   O26   S    
C8    H32   S    
C9    H30   S    
C6    C7    A    
C21   C31   D    
C4    O23   S    
C21   C22   D    
C5    O11   D    
Ba1   O19   S    
C41   C46   A    
C52   H20   S    
C1    H3    S    
C17   O13   D    
O18   P6    S    
O33   P4    S    
C21   P4    S    
C28   H49   S    
C48   S1    S    
C16   H15   S    
C39   C41   A    
C10   C18   A    
Ba1   P2    S    
C41   P3    S    
C35   H41   S    
O32   P8    S    
C19   C24   D    
C34   H13   S    
C54   H27   S    
Ba1   O4    S    
Ba2   O5    S    
Ba2   O35   S    
C12   H1    S    
C4    C16   S    
C34   H10   S    
C36   C44   S    
C49   C50   S    
C5    C6    A    
C23   H8    S    
C45   H16   S    
C43   H42   S    
H54   O29   S    
C47   H45   S    
C53   H21   S    
C14   C15   A    
O23   P3    S    
Ba2   O30   S    
C29   H36   S    
C40   H12   S    
O15   P6    S    
C51   O26   S    
O34   P7    S    
C5    N1    Am   
C1    H14   S    
C33   P5    S    
C35   C36   A    
C53   H22   S    
C29   C30   A    
C53   O9    S    
O22   S1    D    
O2    P5    D    
C3    O10   D    
C26   P6    S    
C16   H47   S    
H50   O25   S    
Ba1   P1    S    
O30   P4    D    
C1    C12   S    
C45   C52   S    
C52   H19   S    
C45   O3    S    
C27   C55   A    
C47   C48   S    
C6    C13   A    
C47   H55   S    
C55   H37   S    
C13   H29   S    
C28   H48   S    
C14   H28   S    
C39   H40   S    
C49   H2    S    
C18   O14   D    
C2    C8    A    
C31   H39   S    
C37   C38   A    
Ba1   O20   S    
C42   C43   A    
C27   P1    S    
Ba2   O4    S    
C51   H52   S    
Ba2   O34   S    
C20   C31   S    
O35   P5    S    
Ba2   P4    S    
C4    H26   S    
O27   S2    D    
C25   C30   A    
C23   H9    S    
C45   H17   S    
C2    C3    A    
C50   H6    S    
C22   H33   S    
C9    C10   A    
C34   H11   S    
C54   H25   S    
O9    P8    S    
C32   H46   S    
C11   C15   A    
C48   H56   S    
C42   P2    S    
C3    N1    Am   
C50   H5    S    
C16   S2    S    
C51   H51   S    
C37   H43   S    
O3    P5    S    
C20   P8    S    
Ba2   O32   S    
C46   H44   S    
C15   C17   A    
Ba1   O34   S    
Ba1   O1    S    
C1    H7    S    
C25   H31   S    
O16   P6    D    
C23   O7    S    
C24   N1    S    
O6    P7    D    
C8    C9    A    
C23   C34   S    
C52   H18   S    
C43   C44   A    
C10   C11   A    
C17   N2    Am   
C27   C29   A    
C4    H38   S    
O28   S2    D    
C25   C26   A    
C28   C40   S    
Ba1   O31   S    
O31   P4    S    
C48   H57   S    
C2    C7    A    
C19   C20   S    
Ba2   O6    S    
O12   P2    S    
C40   H34   S    
C19   H35   S    
