data_mof_unit_18218.cif
_audit_creation_date              2012-12-11T14:40:07-0500
_audit_creation_method            fapswitch 2.2
_symmetry_space_group_name_H-M    P1
_symmetry_Int_Tables_number       1
_space_group_crystal_system       triclinic
_cell_length_a                    19.603535
_cell_length_b                    11.242003
_cell_length_c                    19.657202
_cell_angle_alpha                 90.020895
_cell_angle_beta                  97.690874
_cell_angle_gamma                 89.980267
_cell_volume                      4293.14325663

loop_
_atom_site_label
_atom_site_type_symbol
_atom_type_description
_atom_site_fract_x
_atom_site_fract_y
_atom_site_fract_z
_atom_type_partial_charge
C1    C     C_R   0.717416 0.976679 0.367172 0.566202
C2    C     C_R   0.282988 0.977551 0.632662 0.565316
C3    C     C_R   0.217416 0.476679 0.367172 0.566202
C4    C     C_R   0.782988 0.477551 0.632662 0.565316
C5    C     C_3   0.713234 0.321818 0.488090 -0.169665
C6    C     C_3   0.286808 0.321788 0.512025 -0.169219
C7    C     C_3   0.213234 0.821818 0.488090 -0.169665
C8    C     C_3   0.786808 0.821788 0.512025 -0.169219
C9    C     C_3   0.738682 0.394943 0.431864 0.066167
C10   C     C_3   0.261252 0.395094 0.568172 0.066490
C11   C     C_3   0.238682 0.894943 0.431864 0.066167
C12   C     C_3   0.761252 0.895094 0.568172 0.066490
C13   C     C_3   0.707718 0.507334 0.459788 -0.044979
C14   C     C_3   0.292321 0.507405 0.540322 -0.045311
C15   C     C_3   0.207718 0.007334 0.459788 -0.044979
C16   C     C_3   0.792321 0.007405 0.540322 -0.045311
C17   C     C_3   0.781267 0.525454 0.502965 -0.131019
C18   C     C_3   0.218848 0.525580 0.496950 -0.130445
C19   C     C_3   0.281267 0.025454 0.502965 -0.131019
C20   C     C_3   0.718848 0.025580 0.496950 -0.130445
C21   C     C_3   0.808652 0.411425 0.472454 -0.118194
C22   C     C_3   0.191363 0.411652 0.527412 -0.117817
C23   C     C_3   0.308652 0.911425 0.472454 -0.118194
C24   C     C_3   0.691363 0.911652 0.527412 -0.117817
C25   C     C_3   0.784910 0.335338 0.528898 -0.082159
C26   C     C_3   0.215270 0.335553 0.471019 -0.084210
C27   C     C_3   0.284910 0.835338 0.528898 -0.082159
C28   C     C_3   0.715270 0.835553 0.471019 -0.084210
C29   C     C_3   0.759015 0.445707 0.561222 0.053955
C30   C     C_3   0.241228 0.445692 0.438762 0.053097
C31   C     C_3   0.259015 0.945707 0.561222 0.053955
C32   C     C_3   0.741228 0.945692 0.438762 0.053097
C33   C     C_3   0.521550 0.273525 0.970321 0.010642
C34   C     C_3   0.478207 0.273306 0.029843 0.010604
C35   C     C_3   0.021550 0.773525 0.970321 0.010642
C36   C     C_3   0.978207 0.773306 0.029843 0.010604
C37   C     C_3   0.569106 0.175633 0.005442 -0.170520
C38   C     C_3   0.430801 0.175362 0.994574 -0.170059
C39   C     C_3   0.069106 0.675633 0.005442 -0.170520
C40   C     C_3   0.930801 0.675362 0.994574 -0.170059
C41   C     C_3   0.526094 0.176253 0.065312 0.049588
C42   C     C_3   0.473821 0.176395 0.934708 0.049487
C43   C     C_3   0.026094 0.676253 0.065312 0.049588
C44   C     C_3   0.973821 0.676395 0.934708 0.049487
C45   C     C_R   0.538779 0.180686 0.341293 0.536950
C46   C     C_R   0.462031 0.180576 0.658887 0.535572
C47   C     C_R   0.038779 0.680686 0.341293 0.536950
C48   C     C_R   0.962031 0.680576 0.658887 0.535572
C49   C     C_3   0.478835 0.077707 0.030657 -0.109066
C50   C     C_3   0.521228 0.077910 0.969228 -0.109165
C51   C     C_3   0.978835 0.577707 0.030657 -0.109066
C52   C     C_3   0.021228 0.577910 0.969228 -0.109165
C53   C     C_1   0.768392 0.441535 0.908179 0.021369
C54   C     C_1   0.231813 0.440890 0.091957 0.021795
C55   C     C_1   0.268392 0.941535 0.908179 0.021369
C56   C     C_1   0.731813 0.940890 0.091957 0.021795
C57   C     C_1   0.746630 0.402255 0.033772 -0.045639
C58   C     C_1   0.253482 0.402094 0.966266 -0.045853
C59   C     C_1   0.246630 0.902255 0.033772 -0.045639
C60   C     C_1   0.753482 0.902094 0.966266 -0.045853
C61   C     C_1   0.756770 0.422173 0.965465 -0.025407
C62   C     C_1   0.243398 0.421699 0.034630 -0.025309
C63   C     C_1   0.256770 0.922172 0.965465 -0.025407
C64   C     C_1   0.743398 0.921699 0.034630 -0.025309
C65   C     C_1   0.739233 0.380397 0.092017 -0.006108
C66   C     C_1   0.260802 0.380526 0.907957 -0.006141
C67   C     C_1   0.239233 0.880397 0.092017 -0.006108
C68   C     C_1   0.760802 0.880526 0.907957 -0.006141
C69   C     C_R   0.732787 0.342918 0.365973 0.570860
C70   C     C_R   0.267096 0.343259 0.634101 0.571170
C71   C     C_R   0.232787 0.842918 0.365973 0.570860
C72   C     C_R   0.767096 0.843259 0.634101 0.571170
C73   C     C_R   0.713651 0.974395 0.157000 0.544578
C74   C     C_R   0.286598 0.975061 0.843163 0.543939
C75   C     C_R   0.213651 0.474395 0.157000 0.544578
C76   C     C_R   0.786598 0.475061 0.843163 0.543939
C77   C     C_R   0.560861 0.182485 0.135536 0.513291
C78   C     C_R   0.439124 0.182560 0.864456 0.513185
C79   C     C_R   0.060861 0.682485 0.135536 0.513291
C80   C     C_R   0.939124 0.682560 0.864456 0.513185
C81   C     C_R   0.730492 0.340623 0.158934 0.541712
C82   C     C_R   0.269403 0.341037 0.840943 0.542053
C83   C     C_R   0.230492 0.840623 0.158934 0.541712
C84   C     C_R   0.769403 0.841037 0.840943 0.542053
C85   C     C_1   0.485577 0.172668 0.594018 -0.009415
C86   C     C_1   0.515673 0.172796 0.406389 -0.009445
C87   C     C_1   0.985577 0.672668 0.594018 -0.009415
C88   C     C_1   0.015673 0.672796 0.406389 -0.009445
C89   C     C_1   0.505007 0.169377 0.465215 -0.052524
C90   C     C_1   0.496432 0.169318 0.535276 -0.052127
C91   C     C_1   0.005007 0.669377 0.465215 -0.052524
C92   C     C_1   0.996432 0.669318 0.535276 -0.052127
C93   C     C_3   0.686260 0.430767 0.521150 -0.140773
C94   C     C_3   0.313907 0.430617 0.479021 -0.141199
C95   C     C_3   0.186260 0.930767 0.521150 -0.140773
C96   C     C_3   0.813907 0.930617 0.479021 -0.141199
Cr1   Cr    Cr6+3 0.765830 0.160660 0.268180 1.050587
Cr2   Cr    Cr6+3 0.234170 0.160660 0.731820 1.050677
Cr3   Cr    Cr6+3 0.265830 0.660660 0.268180 1.050587
Cr4   Cr    Cr6+3 0.734170 0.660660 0.731820 1.050677
Cr5   Cr    Cr6+3 0.612110 0.009150 0.248770 1.060949
Cr6   Cr    Cr6+3 0.387890 0.009150 0.751230 1.060995
Cr7   Cr    Cr6+3 0.112110 0.509150 0.248770 1.060949
Cr8   Cr    Cr6+3 0.887890 0.509150 0.751230 1.060995
Cr9   Cr    Cr6+3 0.615930 0.324050 0.248450 1.089825
Cr10  Cr    Cr6+3 0.384070 0.324050 0.751550 1.089890
Cr11  Cr    Cr6+3 0.115930 0.824050 0.248450 1.089825
Cr12  Cr    Cr6+3 0.884070 0.824050 0.751550 1.089890
O1    O     O_R   0.783230 0.287800 0.346510 -0.523533
O2    O     O_R   0.216770 0.287800 0.653490 -0.523814
O3    O     O_R   0.283230 0.787800 0.346510 -0.523533
O4    O     O_R   0.716770 0.787800 0.653490 -0.523814
O5    O     O_R   0.554500 0.081650 0.170370 -0.497406
O6    O     O_R   0.445500 0.081650 0.829630 -0.497973
O7    O     O_R   0.054500 0.581650 0.170370 -0.497406
O8    O     O_R   0.945500 0.581650 0.829630 -0.497972
O9    O     O_R   0.545430 0.285140 0.163100 -0.438402
O10   O     O_R   0.454570 0.285140 0.836900 -0.437739
O11   O     O_R   0.045430 0.785140 0.163100 -0.438402
O12   O     O_R   0.954570 0.785140 0.836900 -0.437739
O13   O     O_R   0.677850 0.374730 0.185500 -0.493634
O14   O     O_R   0.322150 0.374730 0.814500 -0.493798
O15   O     O_R   0.177850 0.874730 0.185500 -0.493634
O16   O     O_R   0.822150 0.874730 0.814500 -0.493798
O17   O     O_3   0.664630 0.164620 0.255130 -0.341969
O18   O     O_3   0.335370 0.164620 0.744870 -0.341781
O19   O     O_3   0.164630 0.664620 0.255130 -0.341969
O20   O     O_3   0.835370 0.664620 0.744870 -0.341781
O21   O     O_R   0.760130 0.037060 0.338610 -0.507271
O22   O     O_R   0.239870 0.037060 0.661390 -0.506544
O23   O     O_R   0.260130 0.537060 0.338610 -0.507271
O24   O     O_R   0.739870 0.537060 0.661390 -0.506544
O25   O     O_R   0.666620 0.921370 0.332440 -0.465439
O26   O     O_R   0.333380 0.921370 0.667560 -0.464602
O27   O     O_R   0.166620 0.421370 0.332440 -0.465439
O28   O     O_R   0.833380 0.421370 0.667560 -0.464602
O29   O     O_R   0.557170 0.082420 0.312350 -0.495562
O30   O     O_R   0.442830 0.082420 0.687650 -0.495579
O31   O     O_R   0.057170 0.582420 0.312350 -0.495562
O32   O     O_R   0.942830 0.582420 0.687650 -0.495579
O33   O     O_R   0.548310 0.285980 0.316250 -0.491325
O34   O     O_R   0.451690 0.285980 0.683750 -0.490918
O35   O     O_R   0.048310 0.785980 0.316250 -0.491325
O36   O     O_R   0.951690 0.785980 0.683750 -0.490918
O37   O     O_R   0.680520 0.375500 0.327470 -0.473983
O38   O     O_R   0.319480 0.375500 0.672530 -0.474418
O39   O     O_R   0.180520 0.875500 0.327470 -0.473983
O40   O     O_R   0.819480 0.875500 0.672530 -0.474418
O41   O     O_R   0.780350 0.286970 0.193350 -0.497307
O42   O     O_R   0.219650 0.286970 0.806650 -0.497771
O43   O     O_R   0.280350 0.786970 0.193350 -0.497307
O44   O     O_R   0.719650 0.786970 0.806650 -0.497771
O45   O     O_R   0.757460 0.036290 0.196640 -0.481795
O46   O     O_R   0.242540 0.036290 0.803360 -0.481308
O47   O     O_R   0.257460 0.536290 0.196640 -0.481795
O48   O     O_R   0.742540 0.536290 0.803360 -0.481308
O49   O     O_R   0.663740 0.920540 0.179290 -0.491768
O50   O     O_R   0.336260 0.920540 0.820710 -0.491193
O51   O     O_R   0.163740 0.420540 0.179290 -0.491768
O52   O     O_R   0.836260 0.420540 0.820710 -0.491193
H1    H     H_    0.681058 0.242545 0.481608 0.092277
H2    H     H_    0.318939 0.242428 0.518426 0.092698
H3    H     H_    0.181059 0.742545 0.481608 0.092277
H4    H     H_    0.818939 0.742428 0.518426 0.092698
H5    H     H_    0.637028 0.435109 0.543182 0.131579
H6    H     H_    0.363210 0.434821 0.457124 0.131403
H7    H     H_    0.137028 0.935109 0.543182 0.131579
H8    H     H_    0.863210 0.934821 0.457124 0.131403
C97   C     C_2   0.657059 0.572665 0.398365 0.281172
H9    H     H_    0.662820 0.584830 0.451549 0.069060
O53   O     O_2   0.684092 0.625916 0.351935 -0.457971
C98   C     C_2   0.342811 0.572858 0.601945 0.281744
H10   H     H_    0.337273 0.584451 0.548771 0.069138
O54   O     O_2   0.315525 0.626433 0.648152 -0.457527
C99   C     C_2   0.157059 0.072665 0.398365 0.281172
H11   H     H_    0.162820 0.084830 0.451549 0.069060
O55   O     O_2   0.184092 0.125916 0.351935 -0.457971
C100  C     C_2   0.842811 0.072858 0.601945 0.281744
H12   H     H_    0.837273 0.084451 0.548771 0.069138
O56   O     O_2   0.815525 0.126433 0.648152 -0.457527
H13   H     H_    0.319421 0.096977 0.519221 0.080137
H14   H     H_    0.680634 0.097094 0.480767 0.080451
H15   H     H_    0.819421 0.596977 0.519221 0.080137
H16   H     H_    0.180634 0.597094 0.480767 0.080451
H17   H     H_    0.858751 0.404067 0.452146 0.141521
H18   H     H_    0.141184 0.404395 0.547551 0.141252
H19   H     H_    0.358751 0.904067 0.452146 0.141521
H20   H     H_    0.641184 0.904395 0.547551 0.141252
H21   H     H_    0.790248 0.238946 0.536247 0.148596
H22   H     H_    0.209624 0.239623 0.462638 0.149939
H23   H     H_    0.290248 0.738946 0.536247 0.148596
H24   H     H_    0.709624 0.739623 0.462638 0.149939
H25   H     H_    0.626498 0.174872 0.010302 0.103590
H26   H     H_    0.373410 0.174467 0.989705 0.103735
H27   H     H_    0.126498 0.674872 0.010302 0.103590
H28   H     H_    0.873410 0.674467 0.989705 0.103735
C101  C     C_2   0.554986 0.384471 0.946422 0.238731
H29   H     H_    0.574684 0.451562 0.984949 0.092085
O57   O     O_2   0.563641 0.397499 0.885347 -0.440507
C102  C     C_2   0.444607 0.383949 0.054009 0.238815
H30   H     H_    0.425269 0.451639 0.015613 0.091683
O58   O     O_2   0.435337 0.395966 0.115153 -0.440024
C103  C     C_2   0.054986 0.884472 0.946422 0.238731
H31   H     H_    0.074684 0.951561 0.984949 0.092085
O59   O     O_2   0.063641 0.897499 0.885347 -0.440507
C104  C     C_2   0.944607 0.883949 0.054009 0.238815
H32   H     H_    0.925269 0.951639 0.015613 0.091683
O60   O     O_2   0.935337 0.895966 0.115153 -0.440024
H33   H     H_    0.461404 0.997525 0.056676 0.147019
H34   H     H_    0.538800 0.997882 0.943116 0.147059
H35   H     H_    0.961404 0.497525 0.056676 0.147019
H36   H     H_    0.038800 0.497882 0.943116 0.147059

loop_
_geom_bond_atom_site_label_1
_geom_bond_atom_site_label_2
_ccdc_geom_bond_type
C58   C62   S    
C29   C93   S    
C103  H31   S    
C80   O12   A    
C15   C19   S    
C67   C83   S    
Cr2   O2    S    
C79   O7    A    
C17   C29   S    
C97   H9    S    
Cr12  O12   S    
C15   C99   S    
C35   C39   S    
C35   C36   S    
C8    C96   S    
Cr11  O15   S    
C19   C31   S    
C94   H6    S    
Cr2   O46   S    
C100  H12   S    
C26   H22   S    
C7    C27   S    
C99   O55   D    
C38   C49   S    
C35   C44   S    
C10   C22   S    
C7    C11   S    
C70   O38   A    
C103  O59   D    
C74   O46   A    
C33   C101  S    
C2    O26   A    
C11   C71   S    
C3    O23   A    
C33   C42   S    
C15   C95   S    
C78   O10   A    
C9    C69   S    
C38   C42   S    
C1    O21   A    
C41   C77   S    
C104  O60   D    
C100  O56   D    
C43   C79   S    
C73   O49   A    
Cr5   O5    S    
C48   O36   A    
C12   C24   S    
Cr6   O30   S    
C41   C49   S    
C101  O57   D    
C9    C13   S    
C36   C40   S    
Cr7   O27   S    
C70   O2    A    
C59   C67   T    
Cr8   O8    S    
C55   C74   S    
C69   O1    A    
C58   C66   T    
C51   H35   S    
C7    H3    S    
C20   C24   S    
C16   C100  S    
C102  H30   S    
C6    C94   S    
C55   C63   T    
Cr5   O17   S    
C56   C64   T    
C18   C30   S    
Cr12  O16   S    
Cr1   O45   S    
Cr7   O19   S    
C4    C29   S    
C8    C12   S    
Cr9   O37   S    
C4    O28   A    
C46   C85   S    
C44   C52   S    
C13   C97   S    
C39   C52   S    
C12   C72   S    
Cr5   O49   S    
C18   C22   S    
C87   C92   T    
Cr10  O10   S    
C45   O33   A    
C97   O53   D    
Cr9   O9    S    
C78   O6    A    
C34   C41   S    
C27   H23   S    
Cr8   O52   S    
C20   C32   S    
C1    O25   A    
C28   H24   S    
Cr11  O11   S    
C98   O54   D    
C60   C64   S    
Cr10  O34   S    
C83   O43   A    
C23   C27   S    
C25   C29   S    
C40   H28   S    
C16   C96   S    
Cr3   O47   S    
C48   O32   A    
C27   C31   S    
C51   C52   S    
C68   C84   S    
C12   C16   S    
C28   C32   S    
C14   C98   S    
C10   C14   S    
C91   C92   S    
Cr5   O29   S    
C104  H32   S    
C34   C38   S    
Cr3   O19   S    
C54   C62   T    
C72   O40   A    
Cr3   O43   S    
C76   O48   A    
C1    C32   S    
C33   C37   S    
C38   H26   S    
C13   C93   S    
C2    C31   S    
C37   H25   S    
C22   H18   S    
C3    C30   S    
Cr7   O7    S    
Cr9   O17   S    
Cr6   O26   S    
C5    C9    S    
C69   O37   A    
Cr6   O6    S    
Cr7   O31   S    
C73   O45   A    
C66   C82   S    
Cr11  O39   S    
C17   H15   S    
C65   C81   S    
C99   H11   S    
Cr8   O20   S    
C88   C91   T    
C44   C80   S    
C16   C20   S    
Cr3   O3    S    
Cr5   O25   S    
Cr10  O14   S    
C96   H8    S    
C33   C34   S    
C48   C87   S    
Cr9   O13   S    
Cr4   O44   S    
C36   C104  S    
Cr12  O20   S    
C74   O50   A    
C57   C61   S    
C19   H13   S    
C60   C68   T    
C71   O39   A    
C82   O42   A    
C42   C50   S    
C5    C25   S    
C10   C70   S    
Cr1   O17   S    
C77   O5    A    
Cr4   O4    S    
C11   C15   S    
C34   C102  S    
C8    H4    S    
C8    C28   S    
C79   O11   A    
C53   C76   S    
C47   O31   A    
Cr4   O48   S    
C53   C61   T    
Cr2   O22   S    
C9    C21   S    
C84   O44   A    
Cr12  O36   S    
C98   H10   S    
C19   C23   S    
C42   C78   S    
C20   H14   S    
C45   O29   A    
Cr2   O42   S    
Cr2   O18   S    
C75   O51   A    
C21   C25   S    
C76   O52   A    
C56   C73   S    
Cr8   O28   S    
C32   C96   S    
Cr4   O20   S    
C59   C63   S    
C14   C18   S    
C35   C103  S    
C6    H2    S    
C24   C28   S    
C47   O35   A    
C57   C65   T    
Cr6   O50   S    
Cr6   O18   S    
C86   C89   T    
C95   H7    S    
C6    C10   S    
C5    C93   S    
C85   C90   T    
Cr4   O24   S    
C75   O47   A    
C21   H17   S    
Cr3   O23   S    
C84   O16   A    
C40   C51   S    
C7    C95   S    
Cr10  O18   S    
C77   O9    A    
Cr10  O38   S    
C13   C17   S    
C24   H20   S    
C71   O3    A    
C72   O4    A    
Cr1   O1    S    
Cr1   O21   S    
C30   C94   S    
C25   H21   S    
C47   C88   S    
C23   H19   S    
C37   C50   S    
C4    O24   A    
C81   O13   A    
Cr7   O51   S    
C6    C26   S    
C39   H27   S    
C43   C51   S    
C81   O41   A    
C11   C23   S    
C46   O34   A    
C2    O22   A    
C82   O14   A    
C18   H16   S    
C45   C86   S    
C3    O27   A    
C37   C41   S    
C101  H29   S    
Cr9   O33   S    
C17   C21   S    
C31   C95   S    
C93   H5    S    
C54   C75   S    
Cr8   O32   S    
C40   C44   S    
C50   H34   S    
C102  O58   D    
C49   C50   S    
C22   C26   S    
C39   C43   S    
C49   H33   S    
C52   H36   S    
Cr1   O41   S    
C46   O30   A    
C36   C43   S    
Cr11  O19   S    
C80   O8    A    
C83   O15   A    
C89   C90   S    
Cr11  O35   S    
C14   C94   S    
C5    H1    S    
Cr12  O40   S    
C26   C30   S    
