data_mof_unit_56132.cif
_audit_creation_date              2012-12-11T16:17:52-0500
_audit_creation_method            fapswitch 2.2
_symmetry_space_group_name_H-M    P1
_symmetry_Int_Tables_number       1
_space_group_crystal_system       triclinic
_cell_length_a                    6.923027
_cell_length_b                    28.817586
_cell_length_c                    32.023725
_cell_angle_alpha                 101.158099
_cell_angle_beta                  89.746244
_cell_angle_gamma                 90.370533
_cell_volume                      6267.95734225

loop_
_atom_site_label
_atom_site_type_symbol
_atom_type_description
_atom_site_fract_x
_atom_site_fract_y
_atom_site_fract_z
_atom_type_partial_charge
O1    O     O_R   0.494350 0.453160 0.452490 -0.538533
O2    O     O_R   0.820990 0.455850 0.538220 -0.540954
O3    O     O_R   0.994300 0.546840 0.547510 -0.538152
C1    C     C_R   0.651658 0.445677 0.551652 0.708541
O4    O     O_R   0.823860 0.447580 0.452250 -0.541513
O5    O     O_R   0.997190 0.538510 0.460920 -0.538337
C2    C     C_R   0.654852 0.434554 0.436431 0.693945
O6    O     O_R   0.491450 0.461490 0.539080 -0.537478
O7    O     O_3   0.661790 0.529840 0.502950 -0.367426
V1    V     V_3+5 0.935470 0.494460 0.499450 1.409081
O8    O     O_R   0.327090 0.544150 0.461780 -0.540702
C3    C     C_R   0.158663 0.554388 0.448294 0.709905
O9    O     O_R   0.324210 0.552420 0.547750 -0.541654
C4    C     C_R   0.155174 0.565427 0.563588 0.693715
V2    V     V_3+5 0.435840 0.505540 0.500550 1.408628
O10   O     O_3   0.159650 0.470160 0.497050 -0.366434
C5    C     C_R   0.964036 0.619652 0.619816 -0.151484
C6    C     C_R   0.952473 0.655452 0.656190 -0.128017
H1    H     H_    0.811116 0.666252 0.668914 0.132867
C7    C     C_R   0.120628 0.676830 0.675900 0.019185
C8    C     C_R   0.300866 0.661438 0.658022 -0.124282
H2    H     H_    0.433568 0.677022 0.672227 0.138822
C9    C     C_R   0.312478 0.625593 0.621572 -0.154925
H3    H     H_    0.453692 0.614618 0.608862 0.118571
C10   C     C_R   0.144142 0.604121 0.601974 -0.052557
N1    N     N_R   0.269665 0.735204 0.734298 -0.273120
N2    N     N_R   0.257820 0.769055 0.769109 -0.278648
C11   C     C_R   0.083477 0.784062 0.786116 0.515945
N3    N     N_R   0.921492 0.763613 0.766657 -0.273403
N4    N     N_R   0.933337 0.729758 0.731852 -0.278384
C12   C     C_R   0.107672 0.714761 0.714836 0.517085
C13   C     C_R   0.890060 0.838034 0.842406 -0.125780
H4    H     H_    0.757356 0.822734 0.827966 0.138410
C14   C     C_R   0.878299 0.874135 0.878652 -0.158375
H5    H     H_    0.736987 0.885569 0.890992 0.116497
C15   C     C_R   0.046624 0.895333 0.898477 -0.052490
C16   C     C_R   0.226886 0.879144 0.881180 -0.158789
H6    H     H_    0.359833 0.894437 0.895518 0.119603
C17   C     C_R   0.238595 0.843101 0.844993 -0.129163
H7    H     H_    0.380056 0.831826 0.832652 0.132620
C18   C     C_R   0.070439 0.822099 0.824971 0.020115
C19   C     C_R   0.148378 0.657253 0.283116 0.574058
N5    N     N_R   0.119999 0.676401 0.325362 -0.561231
C20   C     C_R   0.080132 0.723599 0.338303 0.574919
C21   C     C_R   0.068037 0.753496 0.308363 -0.030942
C22   C     C_R   0.096127 0.734271 0.264885 -0.015842
C23   C     C_R   0.136395 0.685744 0.252038 -0.029863
C24   C     C_R   0.028902 0.802043 0.320819 -0.137982
C25   C     C_R   0.018305 0.831053 0.290570 -0.137828
C26   C     C_R   0.045578 0.812233 0.247046 -0.031490
C27   C     C_R   0.083983 0.763639 0.234183 -0.016433
C28   C     C_R   0.110448 0.744348 0.190693 -0.030328
C29   C     C_R   0.149651 0.695791 0.178231 -0.139353
C30   C     C_R   0.162975 0.666895 0.208516 -0.138213
C31   C     C_R   0.036713 0.840892 0.216035 0.575910
N6    N     N_R   0.061918 0.821670 0.173626 -0.550198
C32   C     C_R   0.096882 0.774139 0.160698 0.574021
O11   O     O_2   0.186501 0.610717 0.271135 -0.517541
O12   O     O_2   0.053421 0.741650 0.380022 -0.516476
H8    H     H_    0.006763 0.817840 0.354013 0.173732
H9    H     H_    0.988422 0.868285 0.301438 0.173690
O13   O     O_2   0.005697 0.887722 0.228344 -0.520039
O14   O     O_2   0.116862 0.755546 0.118894 -0.523595
H10   H     H_    0.170811 0.679939 0.145017 0.172743
H11   H     H_    0.193845 0.629709 0.197672 0.173252
C33   C     C_R   0.213099 0.855112 0.115584 -0.160250
H12   H     H_    0.341467 0.834685 0.118502 0.133447
C34   C     C_R   0.207215 0.883821 0.084674 0.242534
C35   C     C_R   0.041231 0.911631 0.081435 -0.083872
C36   C     C_R   0.882539 0.907998 0.108286 -0.276356
H13   H     H_    0.754109 0.928840 0.106743 0.150881
C37   C     C_R   0.888372 0.878279 0.138055 -0.093086
H14   H     H_    0.763546 0.876034 0.158079 0.141340
C38   C     C_R   0.054277 0.851873 0.142300 0.342927
C39   C     C_R   0.961848 0.633735 0.376235 -0.087803
H15   H     H_    0.823114 0.646691 0.368185 0.115904
C40   C     C_R   0.971066 0.604033 0.406015 -0.193579
H16   H     H_    0.838039 0.594831 0.420440 0.131439
C41   C     C_R   0.149623 0.586545 0.417029 -0.058833
C42   C     C_R   0.318588 0.599667 0.397400 -0.193221
H17   H     H_    0.458364 0.586831 0.404916 0.127865
C43   C     C_R   0.308809 0.629114 0.367366 -0.083893
H18   H     H_    0.440175 0.638570 0.352464 0.117392
C44   C     C_R   0.130416 0.646354 0.356571 0.383100
C45   C     C_R   0.728806 0.207178 0.825453 0.583709
N7    N     N_R   0.575322 0.176643 0.825491 -0.555248
C46   C     C_R   0.429580 0.174642 0.796129 0.580502
C47   C     C_R   0.433600 0.204162 0.765814 -0.030321
C48   C     C_R   0.591185 0.235139 0.765224 -0.020482
C49   C     C_R   0.740760 0.236559 0.795088 -0.027408
C50   C     C_R   0.284462 0.203227 0.735972 -0.146168
C51   C     C_R   0.292364 0.232451 0.705871 -0.143992
C52   C     C_R   0.449650 0.263348 0.704827 -0.027645
C53   C     C_R   0.599226 0.264767 0.734690 -0.020469
C54   C     C_R   0.756811 0.295745 0.734101 -0.030051
C55   C     C_R   0.905948 0.296680 0.763943 -0.146706
C56   C     C_R   0.898045 0.267456 0.794044 -0.144401
C57   C     C_R   0.461601 0.292730 0.674462 0.584012
N8    N     N_R   0.615086 0.323264 0.674425 -0.555249
C58   C     C_R   0.760830 0.325265 0.703786 0.579957
O15   O     O_2   0.868597 0.209675 0.855043 -0.527827
O16   O     O_2   0.282095 0.143732 0.795780 -0.525707
H19   H     H_    0.160751 0.179991 0.735816 0.171561
H20   H     H_    0.174485 0.230796 0.683494 0.170342
O17   O     O_2   0.321807 0.290235 0.644874 -0.527599
O18   O     O_2   0.908316 0.356174 0.704135 -0.526111
H21   H     H_    0.029660 0.319915 0.764098 0.171323
H22   H     H_    0.015925 0.269111 0.816421 0.170163
C59   C     C_R   0.785896 0.353513 0.616721 -0.084022
H23   H     H_    0.905568 0.330123 0.618984 0.163423
C60   C     C_R   0.795570 0.383509 0.587195 -0.204064
H24   H     H_    0.923471 0.382750 0.567480 0.139759
C61   C     C_R   0.640946 0.413628 0.582798 -0.058721
C62   C     C_R   0.477007 0.413239 0.608853 -0.204053
H25   H     H_    0.356025 0.436222 0.606478 0.134201
C63   C     C_R   0.469189 0.383960 0.639009 -0.085682
H26   H     H_    0.343152 0.385103 0.659321 0.158697
C64   C     C_R   0.623281 0.353643 0.643218 0.354214
C65   C     C_R   0.404510 0.146398 0.883197 -0.084291
H27   H     H_    0.284829 0.169784 0.880929 0.163312
C66   C     C_R   0.394851 0.116410 0.912730 -0.204150
H28   H     H_    0.266954 0.117172 0.932446 0.139326
C67   C     C_R   0.549492 0.086300 0.917135 -0.057729
C68   C     C_R   0.713426 0.086685 0.891078 -0.203693
C69   C     C_R   0.721227 0.115954 0.860914 -0.085363
H29   H     H_    0.847266 0.114810 0.840601 0.158950
C70   C     C_R   0.567126 0.146267 0.856700 0.354172
C71   C     C_R   0.463612 0.380490 0.379989 -0.151471
H30   H     H_    0.330867 0.396372 0.393763 0.120792
C72   C     C_R   0.452035 0.344573 0.343694 -0.126954
H31   H     H_    0.310851 0.333941 0.330736 0.133400
C73   C     C_R   0.620005 0.322854 0.324372 0.019215
C74   C     C_R   0.800024 0.338029 0.342532 -0.123804
H32   H     H_    0.932570 0.322185 0.328624 0.138861
C75   C     C_R   0.811648 0.373994 0.378882 -0.154242
H33   H     H_    0.952731 0.384780 0.391825 0.118795
C76   C     C_R   0.643541 0.395796 0.398108 -0.052530
N9    N     N_R   0.769066 0.263848 0.266613 -0.272664
N10   N     N_R   0.757420 0.229900 0.231869 -0.277618
C77   C     C_R   0.583397 0.215300 0.214394 0.517495
N11   N     N_R   0.421520 0.236248 0.233315 -0.272690
N12   N     N_R   0.433166 0.270196 0.268059 -0.277577
C78   C     C_R   0.607189 0.284796 0.285535 0.517659
C79   C     C_R   0.390559 0.162072 0.157394 -0.123715
H34   H     H_    0.258018 0.177927 0.171294 0.138794
C80   C     C_R   0.378927 0.126101 0.121050 -0.154455
H35   H     H_    0.237844 0.115319 0.108105 0.118197
C81   C     C_R   0.547027 0.104283 0.101834 -0.053621
C82   C     C_R   0.726956 0.119581 0.119958 -0.152022
H36   H     H_    0.859694 0.103684 0.106194 0.120185
C83   C     C_R   0.738540 0.155505 0.156247 -0.126877
H37   H     H_    0.879723 0.166130 0.169210 0.133338
C84   C     C_R   0.570577 0.177239 0.175559 0.019185
O19   O     O_R   0.699050 0.038480 0.960880 -0.538317
O20   O     O_R   0.366680 0.052470 0.047720 -0.542030
O21   O     O_R   0.193410 0.961530 0.039110 -0.511753
C85   C     C_R   0.535702 0.065506 0.063527 0.695854
O22   O     O_R   0.369510 0.044100 0.961740 -0.541878
O23   O     O_R   0.196260 0.953110 0.952520 -0.538683
C86   C     C_R   0.538822 0.054270 0.948298 0.705160
O24   O     O_R   0.696210 0.046900 0.047470 -0.539151
O25   O     O_3   0.528780 0.970170 0.997070 -0.356509
V3    V     V_3+5 0.255080 0.005530 0.000540 1.427963
O26   O     O_R   0.866350 0.947520 0.952280 -0.543808
C87   C     C_R   0.035446 0.934365 0.936573 0.678417
O27   O     O_R   0.863520 0.955880 0.038260 -0.543050
C88   C     C_R   0.032232 0.945025 0.051181 0.730399
V4    V     V_3+5 0.754720 0.994440 0.999470 1.415266
O28   O     O_3   0.030880 0.029830 0.002930 -0.369724
H38   H     H_    0.831082 0.604039 0.605756 0.120577
N13   N     N_2   0.368075 0.883952 0.056813 -0.504723
H39   H     H_    0.497979 0.876886 0.069855 0.248654
C89   C     C_3   0.341041 0.855469 0.014761 -0.463714
H40   H     H_    0.326576 0.817523 0.016759 0.193747
H41   H     H_    0.468020 0.859814 0.994525 0.187184
H42   H     H_    0.210398 0.866673 0.999402 0.175574
H43   H     H_    0.834420 0.063707 0.893459 0.134554

loop_
_geom_bond_atom_site_label_1
_geom_bond_atom_site_label_2
_ccdc_geom_bond_type
C33   C34   A    
N13   H39   S    
C31   O13   S    
C52   C53   A    
O20   C85   A    
C72   C73   A    
C54   C55   A    
C1    O6    A    
C71   H30   S    
C19   O11   S    
C62   H25   S    
C82   H36   S    
C67   C68   A    
C17   C18   A    
C30   H11   S    
C40   H16   S    
C20   C21   A    
N13   C89   S    
N1    N2    A    
O25   V3    S    
C57   O17   S    
C11   N3    A    
C16   H6    S    
C14   H5    S    
O9    V2    S    
N9    C78   A    
C82   C83   A    
O5    C3    A    
N4    C12   A    
C29   H10   S    
C39   C44   A    
C89   H42   S    
C67   C86   S    
C20   O12   S    
V2    O10   S    
C33   C38   A    
C3    C41   S    
C11   C18   S    
C79   C84   A    
N6    C32   A    
C6    H1    S    
C48   C53   A    
C51   C52   A    
O1    C2    A    
C61   C62   A    
C56   H22   S    
O8    V2    S    
O22   C86   A    
C60   C61   A    
C60   H24   S    
O21   V3    S    
C73   C74   A    
C83   H37   S    
C32   O14   S    
C36   H13   S    
O1    V2    S    
O7    V1    S    
C49   C56   A    
C6    C7    A    
C77   C84   S    
C37   H14   S    
C73   C78   S    
C89   H41   S    
C33   H12   S    
N1    C12   A    
C89   H40   S    
O9    C4    A    
O27   V4    S    
N5    C44   S    
O19   V4    S    
C35   C36   A    
C69   H29   S    
C19   C23   A    
C59   C64   A    
C24   H8    S    
C80   C81   A    
C65   C66   A    
C8    C9    A    
C45   C49   A    
C25   H9    S    
C27   C28   A    
C1    C61   S    
C75   H33   S    
N6    C38   S    
C77   N11   A    
C37   C38   A    
N9    N10   A    
C17   H7    S    
C2    C76   S    
C5    H38   S    
C34   C35   A    
O21   C88   A    
O20   V3    S    
C45   N7    A    
C22   C27   A    
O23   C87   A    
C13   C14   A    
O2    C1    A    
C39   H15   S    
C35   C88   S    
O19   C86   A    
N3    N4    A    
C46   O16   S    
N8    C58   A    
C47   C50   A    
O26   V4    S    
C65   H27   S    
C55   C56   A    
C7    C8    A    
C31   N6    A    
C5    C6    A    
C66   H28   S    
C40   C41   A    
C26   C27   A    
C81   C82   A    
C69   C70   A    
C39   C40   A    
C68   H43   S    
O3    C4    A    
O22   V3    S    
C71   C76   A    
O25   V4    S    
C79   C80   A    
V4    O28   S    
C55   H21   S    
C43   H18   S    
O6    V2    S    
C43   C44   A    
C23   C30   A    
N5    C20   A    
C74   H32   S    
O23   V3    S    
C19   N5    A    
C13   C18   A    
O2    V1    S    
C85   O24   A    
C50   C51   A    
C45   O15   S    
C28   C29   A    
N7    C46   A    
O4    C2    A    
C80   H35   S    
C21   C24   A    
C75   C76   A    
C22   C23   A    
O26   C87   A    
N7    C70   S    
C54   C58   A    
C50   H19   S    
C42   H17   S    
C71   C72   A    
O5    V1    S    
C62   C63   A    
N10   C77   A    
C29   C30   A    
C58   O18   S    
C26   C31   A    
C79   H34   S    
C5    C10   A    
C13   H4    S    
C59   C60   A    
C72   H31   S    
O7    V2    S    
O4    V1    S    
C16   C17   A    
O3    V1    S    
V1    O10   S    
N11   N12   A    
N8    C64   S    
C57   N8    A    
O27   C88   A    
C24   C25   A    
C15   C87   S    
C34   N13   S    
C42   C43   A    
C63   C64   A    
C63   H26   S    
C14   C15   A    
C81   C85   S    
C83   C84   A    
C4    C10   S    
C53   C54   A    
V3    O28   S    
C66   C67   A    
O24   V4    S    
C28   C32   A    
C51   H20   S    
C9    H3    S    
C41   C42   A    
C21   C22   A    
C9    C10   A    
C47   C48   A    
C46   C47   A    
C15   C16   A    
C25   C26   A    
C59   H23   S    
N2    C11   A    
C74   C75   A    
N12   C78   A    
C36   C37   A    
C48   C49   A    
C8    H2    S    
C52   C57   A    
O8    C3    A    
C68   C69   A    
C7    C12   S    
C65   C70   A    
