data_mof_unit_10924.cif
_audit_creation_date              2012-10-26T18:49:34-0400
_audit_creation_method            fapswitch 2.2
_symmetry_space_group_name_H-M    P1
_symmetry_Int_Tables_number       1
_space_group_crystal_system       triclinic
_cell_length_a                    19.278263
_cell_length_b                    11.030483
_cell_length_c                    9.817909
_cell_angle_alpha                 111.131528
_cell_angle_beta                  98.12362
_cell_angle_gamma                 90.982082
_cell_volume                      1922.58483506

loop_
_atom_site_label
_atom_site_type_symbol
_atom_type_description
_atom_site_fract_x
_atom_site_fract_y
_atom_site_fract_z
_atom_type_partial_charge
Br1   Br    Br    0.154450 0.441289 0.765609 -0.353889
Br2   Br    Br    0.841152 0.329237 0.197042 -0.403992
Br3   Br    Br    0.117427 0.593073 0.250918 -0.319452
Br4   Br    Br    0.888233 0.702186 0.804679 -0.339723
C1    C     C_R   0.495005 0.254059 0.440632 0.562500
C2    C     C_R   0.632509 0.502758 0.499388 0.554073
C3    C     C_R   0.262376 0.481297 0.611980 -0.159470
C4    C     C_R   0.735890 0.435032 0.374546 -0.155079
C5    C     C_R   0.190374 0.484329 0.614568 0.130822
C6    C     C_R   0.808098 0.437125 0.374071 0.136454
C7    C     C_R   0.146670 0.519711 0.509588 -0.001627
C8    C     C_R   0.854102 0.517721 0.500345 0.004285
C9    C     C_R   0.176081 0.555326 0.404697 0.155540
C10   C     C_R   0.826912 0.598340 0.625546 0.156704
C11   C     C_R   0.248975 0.558469 0.407035 0.273154
C12   C     C_R   0.505167 0.745926 0.559388 0.529013
C13   C     C_R   0.754079 0.600111 0.623354 0.274155
C14   C     C_R   0.292027 0.514825 0.506956 -0.056169
C15   C     C_R   0.708487 0.513091 0.499277 -0.053849
C16   C     C_R   0.930115 0.517834 0.501928 0.402869
C17   C     C_R   0.070708 0.519278 0.508852 0.399197
C18   C     C_3   0.313327 0.720144 0.372550 0.034889
C19   C     C_3   0.265081 0.827269 0.365634 -0.254511
C20   C     C_3   0.306094 0.960089 0.421553 -0.468090
C21   C     C_3   0.695848 0.785425 0.719362 0.024003
C22   C     C_3   0.747499 0.905886 0.770302 -0.249182
C23   C     C_2   0.492282 0.114685 0.407195 -0.128303
C24   C     C_3   0.710890 0.023123 0.755281 -0.456105
C25   C     C_2   0.508568 0.885275 0.592951 -0.148368
C26   C     C_2   0.502417 0.069576 0.516688 -0.164883
C27   C     C_2   0.499256 0.930426 0.483490 -0.175645
C28   C     C_2   0.505970 0.510870 0.081358 -0.020109
C29   C     C_2   0.493867 0.489456 0.918744 -0.016894
C30   C     C_R   0.367583 0.503499 0.502025 0.552466
Cu1   Cu    Cu3+1 0.512140 0.521810 0.644910 0.959113
Cu2   Cu    Cu3+1 0.487860 0.478190 0.355090 0.957735
H1    H     H_    0.295131 0.450691 0.691117 0.165456
H2    H     H_    0.431324 0.376994 0.065508 0.217872
H3    H     H_    0.356897 0.722217 0.310274 0.174855
H4    H     H_    0.338118 0.741773 0.489380 0.107079
H5    H     H_    0.239443 0.804358 0.249572 0.225387
H6    H     H_    0.223632 0.831801 0.434932 0.195675
H7    H     H_    0.332684 0.984858 0.537241 0.159205
H8    H     H_    0.269533 0.036094 0.418517 0.182748
H9    H     H_    0.346051 0.959602 0.350228 0.152880
H10   H     H_    0.651907 0.809671 0.784357 0.169440
H11   H     H_    0.672238 0.761537 0.601390 0.105439
H12   H     H_    0.701108 0.370347 0.277939 0.167775
H13   H     H_    0.770997 0.929782 0.887860 0.228370
H14   H     H_    0.790312 0.885216 0.702083 0.199952
H15   H     H_    0.687662 0.001950 0.638158 0.157477
H16   H     H_    0.749632 0.108708 0.792235 0.204717
H17   H     H_    0.668670 0.047571 0.824909 0.149707
H18   H     H_    0.488864 0.864548 0.368398 0.153613
H19   H     H_    0.512901 0.135463 0.631771 0.160616
H20   H     H_    0.518852 0.951405 0.707868 0.104121
H21   H     H_    0.481827 0.048463 0.292325 0.104922
H22   H     H_    0.453123 0.416829 0.845794 0.147704
H23   H     H_    0.546610 0.583689 0.154368 0.150387
H24   H     H_    0.568753 0.622887 0.934418 0.216881
N1    N     N_R   0.032547 0.407670 0.487404 -0.136095
N2    N     N_R   0.968300 0.629424 0.523520 -0.149985
N3    N     N_R   0.963307 0.406974 0.484070 -0.134560
N4    N     N_R   0.037498 0.630091 0.526706 -0.153233
N5    N     N_2   0.469620 0.445420 0.137370 -0.345894
N6    N     N_2   0.530380 0.554580 0.862630 -0.345075
O1    O     O_R   0.506480 0.332340 0.577400 -0.497845
O2    O     O_3   0.728644 0.680885 0.747677 -0.513426
O3    O     O_R   0.493520 0.667660 0.422600 -0.510648
O4    O     O_R   0.485980 0.295500 0.332650 -0.488165
O5    O     O_R   0.514020 0.704500 0.667350 -0.501282
O6    O     O_R   0.410390 0.518410 0.622410 -0.508287
O7    O     O_R   0.589610 0.481590 0.377590 -0.508710
O8    O     O_R   0.389900 0.481570 0.377660 -0.443363
O9    O     O_R   0.610100 0.518430 0.622340 -0.442551
O10   O     O_3   0.276561 0.595403 0.303578 -0.504789

loop_
_geom_bond_atom_site_label_1
_geom_bond_atom_site_label_2
_ccdc_geom_bond_type
Cu1   O6    S    
C11   C14   A    
C24   H17   S    
C4    H12   S    
C21   O2    S    
C29   H22   S    
C25   H20   S    
Cu1   O1    S    
C14   C30   S    
C26   H19   S    
C21   H11   S    
C22   C24   S    
Cu1   Cu2   S    
Br3   C9    S    
H2    N5    S    
C18   O10   S    
C19   C20   S    
C3    C14   A    
C18   H4    S    
C28   C29   S    
C8    C16   S    
C16   N3    A    
C9    C11   A    
C11   O10   S    
C3    H1    S    
Cu1   O5    S    
C2    O9    A    
C25   C27   D    
C21   C22   S    
C1    C23   S    
C23   C26   D    
C16   N2    A    
C2    C15   S    
C24   H16   S    
C10   C13   A    
C5    C7    A    
C1    O4    A    
C12   O5    A    
Cu2   O8    S    
C1    O1    A    
C30   O8    A    
C20   H9    S    
C6    C8    A    
C18   C19   S    
C13   C15   A    
Cu2   O4    S    
C29   N6    D    
C22   H14   S    
C27   H18   S    
Br4   C10   S    
C26   C27   S    
C20   H8    S    
C24   H15   S    
C19   H6    S    
C4    C15   A    
Cu2   O7    S    
C18   H3    S    
H24   N6    S    
Br2   C6    S    
C30   O6    A    
C7    C9    A    
Br1   C5    S    
Cu2   O3    S    
C2    O7    A    
C4    C6    A    
C23   H21   S    
C22   H13   S    
C3    C5    A    
C20   H7    S    
Cu2   N5    S    
C13   O2    S    
N2    N4    A    
C28   H23   S    
C12   C25   S    
Cu1   N6    S    
C17   N1    A    
C21   H10   S    
C7    C17   S    
N1    N3    A    
C12   O3    A    
Cu1   O9    S    
C8    C10   A    
C28   N5    D    
C17   N4    A    
C19   H5    S    
