data_mof_unit_34961.cif
_audit_creation_date              2012-12-10T17:17:53-0500
_audit_creation_method            fapswitch 2.2
_symmetry_space_group_name_H-M    P1
_symmetry_Int_Tables_number       1
_space_group_crystal_system       triclinic
_cell_length_a                    15.05618
_cell_length_b                    15.595603
_cell_length_c                    9.565537
_cell_angle_alpha                 89.994458
_cell_angle_beta                  88.272036
_cell_angle_gamma                 89.999803
_cell_volume                      2245.06432232

loop_
_atom_site_label
_atom_site_type_symbol
_atom_type_description
_atom_site_fract_x
_atom_site_fract_y
_atom_site_fract_z
_atom_type_partial_charge
C1    C     C_R   0.383813 0.878135 0.502789 0.837772
C2    C     C_R   0.383826 0.121876 0.502777 0.838086
C3    C     C_R   0.883824 0.378127 0.502787 0.837584
C4    C     C_R   0.883814 0.621866 0.502781 0.838019
C5    C     C_R   0.299651 0.233615 0.385277 -0.121771
C6    C     C_R   0.299882 0.766183 0.385425 -0.121685
C7    C     C_R   0.799779 0.733738 0.385362 -0.121715
C8    C     C_R   0.799884 0.266185 0.385402 -0.121676
C9    C     C_R   0.731006 0.792196 0.380694 -0.147917
C10   C     C_R   0.731113 0.207722 0.380721 -0.147895
C11   C     C_R   0.230858 0.292050 0.380617 -0.147794
C12   C     C_R   0.231117 0.707714 0.380742 -0.147956
C13   C     C_R   0.674251 0.803762 0.497447 -0.038565
C14   C     C_R   0.674292 0.196211 0.497411 -0.038502
C15   C     C_R   0.174221 0.303730 0.497481 -0.038681
C16   C     C_R   0.174277 0.696217 0.497410 -0.038516
C17   C     C_R   0.663196 0.999988 0.137688 -0.262655
C18   C     C_R   0.163197 0.499985 0.137688 -0.262645
C19   C     C_R   0.743354 0.999971 0.062275 0.618924
C20   C     C_R   0.243354 0.499962 0.062274 0.619045
C21   C     C_R   0.743781 0.999965 0.918273 -0.253316
C22   C     C_R   0.243781 0.499957 0.918273 -0.253398
C23   C     C_R   0.664131 0.999978 0.848975 -0.248265
C24   C     C_R   0.164131 0.499977 0.848974 -0.248272
C25   C     C_R   0.580563 0.999986 0.921632 0.223582
C26   C     C_R   0.080563 0.499989 0.921632 0.223580
C27   C     C_R   0.580364 0.999989 0.071425 0.122050
C28   C     C_R   0.080364 0.499991 0.071425 0.121953
C29   C     C_R   0.423508 0.000024 0.077597 0.042241
C30   C     C_R   0.923508 0.500009 0.077597 0.042212
C31   C     C_R   0.613716 0.123210 0.498908 0.836502
C32   C     C_R   0.613698 0.876778 0.498921 0.836410
C33   C     C_R   0.113712 0.623212 0.498908 0.836548
C34   C     C_R   0.113680 0.376762 0.498928 0.836284
C35   C     C_R   0.423555 0.000030 0.929525 0.173815
C36   C     C_R   0.923555 0.500010 0.929525 0.174059
C37   C     C_R   0.290257 0.189300 0.773838 0.539496
C38   C     C_R   0.289792 0.811130 0.773729 0.539035
C39   C     C_R   0.789972 0.689012 0.773776 0.539155
C40   C     C_R   0.789876 0.311053 0.773741 0.539061
C41   C     C_R   0.226181 0.189843 0.882521 0.471111
C42   C     C_R   0.225498 0.810852 0.882090 0.471085
C43   C     C_R   0.725766 0.689380 0.882267 0.471160
C44   C     C_R   0.725606 0.310742 0.882139 0.471115
C45   C     C_R   0.639000 0.713221 0.856096 -0.357512
C46   C     C_R   0.638853 0.286907 0.855868 -0.357366
C47   C     C_R   0.139379 0.213634 0.856511 -0.357847
C48   C     C_R   0.138754 0.786997 0.855798 -0.357345
C49   C     C_R   0.618537 0.746189 0.725766 0.576389
C50   C     C_R   0.618468 0.253885 0.725555 0.576634
C51   C     C_R   0.118752 0.246381 0.726103 0.576527
C52   C     C_R   0.118401 0.753922 0.725507 0.576457
C53   C     C_R   0.685255 0.753672 0.618860 -0.130880
C54   C     C_R   0.685243 0.246343 0.618769 -0.130924
C55   C     C_R   0.185357 0.253760 0.618999 -0.130904
C56   C     C_R   0.185197 0.746372 0.618747 -0.130878
C57   C     C_R   0.266785 0.210776 0.634905 -0.177054
C58   C     C_R   0.266579 0.789406 0.634803 -0.176978
C59   C     C_R   0.766654 0.710651 0.634848 -0.176950
C60   C     C_R   0.766632 0.289361 0.634813 -0.177029
C61   C     C_R   0.318845 0.192088 0.510778 -0.021052
C62   C     C_R   0.318842 0.807917 0.510817 -0.020785
C63   C     C_R   0.818834 0.692077 0.510799 -0.020834
C64   C     C_R   0.818867 0.307898 0.510810 -0.020905
Cu1   Cu    Cu3+1 0.499990 0.000000 0.640660 1.074872
Cu2   Cu    Cu3+1 0.999990 0.500000 0.640660 1.074915
Cu3   Cu    Cu3+1 0.500010 1.000000 0.359340 0.978112
Cu4   Cu    Cu3+1 0.000010 0.500000 0.359340 0.978064
H1    H     H_    0.722584 0.828627 0.285553 0.185871
H2    H     H_    0.722739 0.171251 0.285622 0.185817
H3    H     H_    0.222331 0.328375 0.285394 0.186016
H4    H     H_    0.222764 0.671226 0.285660 0.185790
H5    H     H_    0.670330 0.000004 0.247510 0.215297
H6    H     H_    0.170330 0.500002 0.247510 0.215346
N1    N     N_R   0.501200 1.000000 0.147910 -0.208094
N2    N     N_R   0.001200 0.500000 0.147910 -0.208141
N3    N     N_R   0.501270 0.000000 0.852040 -0.175283
N4    N     N_R   0.001270 0.500000 0.852040 -0.175297
O1    O     O_R   0.409820 0.909830 0.618810 -0.508175
O2    O     O_R   0.409820 0.090170 0.618810 -0.508419
O3    O     O_R   0.909820 0.409830 0.618810 -0.508273
O4    O     O_R   0.909820 0.590170 0.618810 -0.508267
O5    O     O_R   0.409840 0.909830 0.381240 -0.596221
O6    O     O_R   0.409840 0.090170 0.381240 -0.596237
O7    O     O_R   0.909840 0.409830 0.381240 -0.596207
O8    O     O_R   0.909840 0.590170 0.381240 -0.596204
O9    O     O_R   0.590170 0.090170 0.618760 -0.562515
O10   O     O_R   0.590170 0.909830 0.618760 -0.562496
O11   O     O_R   0.090170 0.590170 0.618760 -0.562522
O12   O     O_R   0.090170 0.409830 0.618760 -0.562445
O13   O     O_R   0.590190 0.090180 0.381190 -0.618725
O14   O     O_R   0.590190 0.909820 0.381190 -0.618812
O15   O     O_R   0.090190 0.590180 0.381190 -0.618726
O16   O     O_R   0.090190 0.409820 0.381190 -0.618870
H7    H     H_    0.339344 0.222423 0.290649 0.205126
H8    H     H_    0.339741 0.777238 0.290927 0.204396
H9    H     H_    0.839570 0.722634 0.290807 0.204671
H10   H     H_    0.839726 0.277256 0.290887 0.204471
H11   H     H_    0.806348 0.999957 0.859321 0.199409
H12   H     H_    0.306347 0.499944 0.859321 0.199417
H13   H     H_    0.672956 0.999987 0.738649 0.213204
H14   H     H_    0.172957 0.499986 0.738649 0.213224
H15   H     H_    0.360944 0.000057 0.876928 0.140923
H16   H     H_    0.860944 0.500018 0.876929 0.141117
F1    F     F_    0.375868 0.181436 0.811395 -0.573208
F2    F     F_    0.375334 0.818942 0.811670 -0.573567
F3    F     F_    0.875543 0.681189 0.811562 -0.573505
F4    F     F_    0.875427 0.318871 0.811632 -0.573437
F5    F     F_    0.248625 0.167552 0.013937 -0.637553
F6    F     F_    0.247678 0.833433 0.013476 -0.637172
F7    F     F_    0.748051 0.666894 0.013659 -0.637299
F8    F     F_    0.747814 0.333288 0.013533 -0.637139
H17   H     H_    0.588235 0.709444 0.938468 0.235715
H18   H     H_    0.588037 0.290736 0.938149 0.235877
H19   H     H_    0.088710 0.209974 0.939046 0.235599
H20   H     H_    0.087922 0.790841 0.938054 0.235824
F9    F     F_    0.532520 0.765378 0.701685 -0.590357
F10   F     F_    0.532472 0.234722 0.701333 -0.590172
F11   F     F_    0.032692 0.265466 0.702164 -0.590136
F12   F     F_    0.032414 0.734704 0.701295 -0.590392
H21   H     H_    0.360831 0.000043 0.135927 0.176589
H22   H     H_    0.860831 0.500017 0.135927 0.176732
F13   F     F_    0.821243 0.999967 0.129969 -0.644021
F14   F     F_    0.321244 0.499951 0.129969 -0.643926

loop_
_geom_bond_atom_site_label_1
_geom_bond_atom_site_label_2
_ccdc_geom_bond_type
C58   C62   A    
Cu2   Cu4   S    
Cu3   O5    S    
Cu1   O1    S    
C3    O7    A    
Cu4   O8    S    
C13   C32   S    
C2    O6    A    
C14   C31   S    
C1    C62   S    
C16   C56   A    
C53   C59   A    
Cu2   O12   S    
C54   C60   A    
C3    C64   S    
C47   H19   S    
C4    C63   S    
C19   F13   S    
C26   N4    A    
C25   N3    A    
C19   C21   A    
C24   C26   A    
C5    C11   A    
C35   H15   S    
C6    C12   A    
C21   H11   S    
C11   H3    S    
C4    O8    A    
C32   O10   A    
C18   C20   A    
C9    C13   A    
C8    H10   S    
C38   C58   A    
C11   C15   A    
C49   F9    S    
C12   C16   A    
Cu1   Cu3   S    
C29   H21   S    
C3    O3    A    
C51   F11   S    
C15   C34   S    
C51   C55   A    
C2    C61   S    
C40   F4    S    
C12   H4    S    
Cu3   O6    S    
C18   H6    S    
Cu1   O2    S    
C41   F5    S    
C17   H5    S    
Cu4   O7    S    
C43   F7    S    
C27   N1    A    
C5    H7    S    
C44   C46   A    
Cu1   O9    S    
Cu2   O11   S    
C13   C53   A    
Cu2   N4    S    
Cu1   N3    S    
C46   H18   S    
C5    C61   A    
C17   C27   A    
C30   H22   S    
C22   H12   S    
C10   C14   A    
C39   C43   A    
C35   N3    A    
Cu4   O16   S    
C15   C55   A    
C38   F2    S    
C42   C48   A    
C39   F3    S    
C34   O12   A    
C37   F1    S    
C33   O11   A    
C16   C33   S    
Cu2   O4    S    
C30   N2    A    
C45   C49   A    
C39   C59   A    
Cu3   O13   S    
C41   C47   A    
C18   C28   A    
C50   C54   A    
C43   C45   A    
C4    O4    A    
C7    C63   A    
C8    C64   A    
C52   F12   S    
C14   C54   A    
C20   C22   A    
C6    H8    S    
C21   C23   A    
C25   C27   A    
C1    O1    A    
C22   C24   A    
C59   C63   A    
C31   O9    A    
Cu4   N2    S    
C40   C44   A    
C28   N2    A    
C10   H2    S    
Cu1   O10   S    
C7    C9    A    
C46   C50   A    
C7    H9    S    
C50   F10   S    
C26   C28   A    
C34   O16   A    
C9    H1    S    
C33   O15   A    
C47   C51   A    
C57   C61   A    
C29   N1    A    
C30   C36   A    
C1    O5    A    
C29   C35   A    
C44   F8    S    
C31   O13   A    
Cu4   O15   S    
C48   H20   S    
C60   C64   A    
C6    C62   A    
C55   C57   A    
C42   F6    S    
C36   N4    A    
Cu2   O3    S    
C36   H16   S    
C23   H13   S    
C49   C53   A    
Cu3   O14   S    
C17   C19   A    
C56   C58   A    
C24   H14   S    
C23   C25   A    
C37   C41   A    
C20   F14   S    
C2    O2    A    
C32   O14   A    
C38   C42   A    
C45   H17   S    
C48   C52   A    
Cu3   N1    S    
C8    C10   A    
C40   C60   A    
C37   C57   A    
C52   C56   A    
