data_mof_unit_36260.cif
_audit_creation_date              2012-12-10T17:12:46-0500
_audit_creation_method            fapswitch 2.2
_symmetry_space_group_name_H-M    P1
_symmetry_Int_Tables_number       1
_space_group_crystal_system       triclinic
_cell_length_a                    23.146028
_cell_length_b                    10.723339
_cell_length_c                    10.008147
_cell_angle_alpha                 90.050644
_cell_angle_beta                  89.575165
_cell_angle_gamma                 89.482528
_cell_volume                      2483.87843913

loop_
_atom_site_label
_atom_site_type_symbol
_atom_type_description
_atom_site_fract_x
_atom_site_fract_y
_atom_site_fract_z
_atom_type_partial_charge
C1    C     C_R   0.499122 0.262570 0.499745 0.927050
C2    C     C_R   0.119109 0.565609 0.392577 0.518122
C3    C     C_R   0.244852 0.654630 0.514967 -0.280034
C4    C     C_R   0.389321 0.499180 0.500497 1.018686
C5    C     C_R   0.304828 0.637512 0.515886 0.399224
C6    C     C_R   0.327201 0.516045 0.501941 -0.273561
C7    C     C_R   0.290695 0.412111 0.494702 0.340676
C8    C     C_R   0.230615 0.429649 0.506499 0.134368
C9    C     C_R   0.208149 0.552309 0.512356 0.216489
C10   C     C_R   0.769239 0.488830 0.574277 -0.228678
C11   C     C_R   0.710374 0.460629 0.577959 0.373483
C12   C     C_R   0.967472 0.689563 0.738137 0.184637
C13   C     C_R   0.672245 0.530302 0.498079 -0.242293
C14   C     C_R   0.692076 0.632759 0.422653 0.338570
C15   C     C_R   0.750387 0.665100 0.429164 -0.214572
C16   C     C_R   0.503515 0.737008 0.499891 0.879356
C17   C     C_R   0.788936 0.591737 0.501965 0.212075
C18   C     C_2   0.506004 0.933262 0.389357 -0.281142
C19   C     C_2   0.517657 0.866339 0.499055 0.323463
C20   C     C_2   0.510302 0.066930 0.389408 -0.167075
C21   C     C_2   0.495343 0.130805 0.498772 -0.263129
C22   C     C_2   0.546360 0.509841 0.924607 -0.136872
C23   C     C_R   0.027334 0.661547 0.747266 0.169127
C24   C     C_2   0.546490 0.493907 0.073749 -0.151260
C25   C     C_R   0.610772 0.503256 0.499484 0.977119
C26   C     C_R   0.879101 0.602670 0.382583 0.516056
C27   C     C_R   0.876299 0.648240 0.616136 0.528392
C28   C     C_R   0.937174 0.657567 0.620282 -0.086254
C29   C     C_R   0.968599 0.626917 0.503311 -0.060059
C30   C     C_R   0.939267 0.605431 0.382111 0.007317
C31   C     C_3   0.937794 0.763105 0.849139 -0.784658
C32   C     C_3   0.700080 0.380599 0.788563 0.141634
C33   C     C_3   0.666179 0.286271 0.870220 -0.834623
C34   C     C_R   0.059084 0.628879 0.629121 -0.090149
C35   C     C_3   0.664882 0.713952 0.220313 0.146414
C36   C     C_3   0.616344 0.783942 0.150240 -0.835830
C37   C     C_3   0.602452 0.887204 0.610054 0.155652
C38   C     C_3   0.631859 0.956542 0.722723 -0.826593
C39   C     C_3   0.055381 0.659394 0.884057 -0.773591
C40   C     C_3   0.326371 0.824995 0.619259 0.102147
C41   C     C_3   0.378553 0.901866 0.657294 -0.791271
C42   C     C_3   0.320674 0.258680 0.352611 0.087775
C43   C     C_3   0.338328 0.121991 0.344221 -0.792837
C44   C     C_3   0.191670 0.317612 0.514102 -0.772040
C45   C     C_R   0.029247 0.615520 0.506837 -0.061473
C46   C     C_R   0.059666 0.584976 0.387912 0.002221
C47   C     C_R   0.030097 0.571108 0.267225 -0.170401
C48   C     C_R   0.970442 0.581143 0.264302 -0.171802
C49   C     C_R   0.119798 0.609397 0.626673 0.531537
H1    H     H_    0.766047 0.747328 0.378344 0.159567
H2    H     H_    0.948802 0.566239 0.170075 0.185540
H3    H     H_    0.226045 0.747369 0.516243 0.154173
H4    H     H_    0.799946 0.431057 0.627607 0.159838
H5    H     H_    0.917417 0.698806 0.922130 0.265290
H6    H     H_    0.968591 0.824500 0.901747 0.217996
H7    H     H_    0.905074 0.828552 0.807867 0.260075
H8    H     H_    0.685854 0.475937 0.819857 0.128115
H9    H     H_    0.746634 0.368062 0.812210 0.153758
H10   H     H_    0.683879 0.191117 0.852447 0.255667
H11   H     H_    0.669765 0.308346 0.978266 0.205192
H12   H     H_    0.490767 0.889994 0.298086 0.161884
H13   H     H_    0.619889 0.288939 0.841804 0.270979
H14   H     H_    0.668048 0.618221 0.177318 0.138806
H15   H     H_    0.705721 0.764488 0.199878 0.149347
H16   H     H_    0.614102 0.881779 0.186607 0.251302
H17   H     H_    0.624323 0.784164 0.040689 0.204707
H18   H     H_    0.574361 0.738425 0.170887 0.276663
H19   H     H_    0.623416 0.915518 0.514213 0.181174
H20   H     H_    0.609023 0.785303 0.625888 0.148462
H21   H     H_    0.612591 0.929613 0.820362 0.253794
H22   H     H_    0.678724 0.933428 0.723089 0.217597
H23   H     H_    0.522898 0.112740 0.297000 0.178595
H24   H     H_    0.626209 0.058526 0.708137 0.275576
H25   H     H_    0.078431 0.569322 0.899032 0.266283
H26   H     H_    0.085404 0.738909 0.894374 0.268008
H27   H     H_    0.023827 0.663859 0.967647 0.206821
H28   H     H_    0.309742 0.779238 0.711793 0.156975
H29   H     H_    0.293001 0.889735 0.579116 0.150939
H30   H     H_    0.396817 0.946900 0.566945 0.250528
H31   H     H_    0.365569 0.975274 0.730139 0.216087
H32   H     H_    0.412008 0.841103 0.703232 0.268438
H33   H     H_    0.355025 0.314847 0.303958 0.159382
H34   H     H_    0.478921 0.086727 0.588690 0.199134
H35   H     H_    0.279813 0.271154 0.295835 0.153737
H36   H     H_    0.304691 0.063076 0.391529 0.258310
H37   H     H_    0.343653 0.093916 0.237992 0.211921
H38   H     H_    0.379922 0.107069 0.396288 0.254081
H39   H     H_    0.206955 0.253611 0.593794 0.250036
H40   H     H_    0.146256 0.343138 0.538268 0.219656
H41   H     H_    0.192172 0.267224 0.417299 0.235374
H42   H     H_    0.587477 0.524988 0.875385 0.165936
H43   H     H_    0.462660 0.476916 0.898678 0.169576
H44   H     H_    0.587868 0.479715 0.121532 0.167250
H45   H     H_    0.462359 0.525089 0.102703 0.170122
H46   H     H_    0.052834 0.548653 0.175244 0.187802
N1    N     N_R   0.849264 0.618787 0.499401 -0.329824
N2    N     N_R   0.147323 0.575343 0.510858 -0.331741
N3    N     N_2   0.500610 0.501330 0.852150 -0.189218
N4    N     N_2   0.500630 0.501360 0.147810 -0.195217
O1    O     O_R   0.499990 0.319060 0.613040 -0.604518
O2    O     O_R   0.583840 0.500020 0.613040 -0.616803
O3    O     O_R   0.583850 0.500060 0.386900 -0.602060
O4    O     O_2   0.850577 0.578312 0.268392 -0.575876
O5    O     O_3   0.690119 0.360068 0.651048 -0.603918
O6    O     O_3   0.652625 0.709920 0.358682 -0.638089
O7    O     O_3   0.543050 0.918118 0.611105 -0.621479
O8    O     O_3   0.342916 0.737178 0.520231 -0.610695
O9    O     O_3   0.313883 0.292769 0.488285 -0.612008
O10   O     O_2   0.844207 0.661772 0.728346 -0.574281
O11   O     O_2   0.151802 0.625202 0.737231 -0.566480
O12   O     O_2   0.148801 0.536284 0.280008 -0.561318
O13   O     O_R   0.500010 0.319100 0.386900 -0.620583
O14   O     O_R   0.416150 0.499940 0.613100 -0.604448
O15   O     O_R   0.416160 0.499980 0.386960 -0.629322
O16   O     O_R   0.499990 0.680900 0.613100 -0.597576
O17   O     O_R   0.500010 0.680940 0.386960 -0.626128
Zn1   Zn    Zn3+2 0.499990 0.499970 0.650990 0.974840
Zn2   Zn    Zn3+2 0.500010 0.500030 0.349010 0.954855

loop_
_geom_bond_atom_site_label_1
_geom_bond_atom_site_label_2
_ccdc_geom_bond_type
C38   H21   S    
C1    C21   S    
C22   N3    D    
C37   H20   S    
C24   N4    D    
C35   C36   S    
C42   H33   S    
C32   H9    S    
C41   H31   S    
C36   H18   S    
H43   N3    S    
C7    C8    A    
C45   C46   A    
C2    C46   A    
C12   C23   A    
C37   C38   S    
C12   C28   A    
C35   O6    S    
C30   C48   A    
C28   C29   A    
C1    O13   A    
C5    C6    A    
C36   H17   S    
C25   O3    A    
C15   H1    S    
C10   C17   A    
C37   H19   S    
C18   C19   D    
C39   H25   S    
C10   H4    S    
C38   H22   S    
C14   O6    S    
C21   H34   S    
C2    N2    A    
C8    C9    A    
O16   Zn1   S    
C22   H42   S    
C32   O5    S    
C11   O5    S    
C39   H26   S    
C31   H7    S    
C18   C20   S    
O3    Zn2   S    
C33   H10   S    
C13   C14   A    
C13   C25   S    
C27   N1    A    
C32   H8    S    
C16   O17   A    
C1    O1    A    
C48   H2    S    
C26   N1    A    
C2    O12   S    
C43   H36   S    
C4    O14   A    
C42   H35   S    
C4    C6    S    
C17   N1    S    
C36   H16   S    
C33   H13   S    
C29   C45   A    
C29   C30   A    
C3    C9    A    
C26   O4    S    
C47   C48   A    
C14   C15   A    
C23   C34   A    
C41   H32   S    
C34   C45   A    
C39   H27   S    
C35   H15   S    
O15   Zn2   S    
C40   O8    S    
O14   Zn1   S    
C40   C41   S    
C26   C30   A    
C33   H11   S    
C12   C31   S    
C22   C24   S    
C42   C43   S    
C16   O16   A    
C44   H41   S    
N3    Zn1   S    
C5    O8    S    
C4    O15   A    
C15   C17   A    
C46   C47   A    
C34   C49   A    
C9    N2    S    
C40   H28   S    
C43   H37   S    
C8    C44   S    
C3    C5    A    
C41   H30   S    
C3    H3    S    
C18   H12   S    
C6    C7    A    
C43   H38   S    
C32   C33   S    
O2    Zn1   S    
C37   O7    S    
C24   H44   S    
N4    Zn2   S    
O13   Zn2   S    
C11   C13   A    
C25   O2    A    
H45   N4    S    
C16   C19   S    
C23   C39   S    
O17   Zn2   S    
C40   H29   S    
C31   H5    S    
C10   C11   A    
C49   N2    A    
C19   O7    S    
C20   C21   D    
C27   O10   S    
C27   C28   A    
C47   H46   S    
C7    O9    S    
C20   H23   S    
C35   H14   S    
O1    Zn1   S    
C31   H6    S    
C44   H39   S    
C42   O9    S    
C44   H40   S    
C49   O11   S    
C38   H24   S    
