data_mof_unit_23801.cif
_audit_creation_date              2013-03-05T15:45:20-0500
_audit_creation_method            fapswitch 2.2
_symmetry_space_group_name_H-M    P1
_symmetry_Int_Tables_number       1
_space_group_crystal_system       triclinic
_cell_length_a                    10.946756
_cell_length_b                    11.068381
_cell_length_c                    9.872191
_cell_angle_alpha                 112.384595
_cell_angle_beta                  96.768783
_cell_angle_gamma                 91.689452
_cell_volume                      1094.6945126

loop_
_atom_site_label
_atom_site_type_symbol
_atom_site_description
_atom_site_fract_x
_atom_site_fract_y
_atom_site_fract_z
_atom_type_partial_charge
O1    O     O_R   0.511700 0.332340 0.577400 -0.634294
O2    O     O_R   0.488300 0.667660 0.422600 -0.608585
O3    O     O_R   0.474680 0.295500 0.332650 -0.475766
O4    O     O_R   0.525320 0.704500 0.667350 -0.500224
C1    C     C_R   0.487884 0.253618 0.439873 0.876519
C2    C     C_R   0.508958 0.746435 0.560448 0.860600
O5    O     O_R   0.338170 0.518410 0.622370 -0.523899
O6    O     O_R   0.661830 0.481590 0.377630 -0.584400
O7    O     O_R   0.301150 0.481570 0.377630 -0.569085
O8    O     O_R   0.698850 0.518430 0.622370 -0.603102
C3    C     C_R   0.260234 0.487573 0.501605 0.761000
C4    C     C_R   0.733567 0.476766 0.491984 0.809893
Cu1   Cu    Cu3+1 0.521920 0.521810 0.644910 1.086267
Cu2   Cu    Cu3+1 0.478080 0.478190 0.355090 1.097754
H1    H     H_    0.068658 0.178869 0.008032 0.193789
H2    H     H_    0.887126 0.467481 0.959480 0.185083
C5    C     C_R   0.122637 0.514279 0.786696 0.365237
C6    C     C_R   0.842624 0.300459 0.213622 0.344241
C7    C     C_R   0.053439 0.530109 0.902657 -0.128194
C8    C     C_R   0.900141 0.243016 0.087980 -0.217131
C9    C     C_R   0.934477 0.474414 0.872092 -0.184452
C10   C     C_R   0.026755 0.240089 0.101958 -0.135580
C11   C     C_R   0.878861 0.422140 0.727488 -0.112184
C12   C     C_R   0.097937 0.304641 0.239018 -0.079753
C13   C     C_R   0.934654 0.444061 0.615565 0.041432
C14   C     C_R   0.046440 0.382930 0.364072 0.021732
C15   C     C_R   0.064456 0.472816 0.635649 -0.039172
C16   C     C_R   0.914901 0.377608 0.352297 -0.026634
C17   C     C_R   0.861994 0.433378 0.483445 -0.151440
C18   C     C_R   0.123273 0.452116 0.503520 -0.160055
H3    H     H_    0.098482 0.563539 0.015934 0.198939
H4    H     H_    0.846177 0.183361 0.982777 0.184451
H5    H     H_    0.788821 0.369623 0.704438 0.164851
H6    H     H_    0.191936 0.283132 0.250417 0.206243
H7    H     H_    0.473161 0.861924 0.370058 0.214383
H8    H     H_    0.521290 0.138110 0.630505 0.201933
C19   C     C_2   0.479754 0.112988 0.406140 -0.219889
C20   C     C_2   0.513662 0.887085 0.594619 -0.298509
C21   C     C_2   0.499449 0.069891 0.515939 -0.139288
C22   C     C_2   0.493653 0.930190 0.484818 -0.126069
H9    H     H_    0.533626 0.955506 0.709318 0.204407
H10   H     H_    0.458768 0.044582 0.291555 0.205517
H11   H     H_    0.504312 0.372963 0.838401 0.178270
H12   H     H_    0.584411 0.579785 0.163756 0.151530
N1    N     N_2   0.445130 0.445420 0.137360 0.001745
N2    N     N_2   0.554870 0.554580 0.862640 -0.026505
C23   C     C_2   0.522789 0.500869 0.082826 0.149097
C24   C     C_2   0.529384 0.469149 0.918455 0.133294
N3    N     N_R   0.247871 0.502142 0.823887 0.139510
O9    O     O_R   0.287908 0.386671 0.764865 -0.326821
O10   O     O_R   0.310233 0.592330 0.940888 -0.376308
N4    N     N_R   0.720119 0.247608 0.205703 0.127631
O11   O     O_R   0.703198 0.178090 0.283450 -0.367501
O12   O     O_R   0.638786 0.232674 0.092093 -0.330017
S1    S     S_3+6 0.638075 0.700866 0.979437 0.123313
O13   O     O_2   0.553374 0.790288 0.073466 -0.232157
O14   O     O_2   0.740463 0.675590 0.078739 -0.359007
O15   O     O_3   0.702409 0.777038 0.883814 -0.455136
H13   H     H_    0.781167 0.736701 0.862317 0.352777
S2    S     S_3+6 0.351467 0.302380 0.023380 0.146657
O16   O     O_2   0.224996 0.341563 0.990856 -0.282649
O17   O     O_2   0.398108 0.225924 0.880747 -0.294500
O18   O     O_3   0.337974 0.193134 0.101461 -0.511446
H14   H     H_    0.289000 0.115659 0.024355 0.351657

loop_
_geom_bond_atom_site_label_1
_geom_bond_atom_site_label_2
_geom_bond_distance
_ccdc_geom_bond_type
N2    S1    1.739048 S    
O5    C3    1.303411 A    
O7    Cu2   1.975266 S    
C2    C20   1.459852 S    
N1    S2    1.760524 S    
H2    C9    1.082740 S    
C1    C19   1.460037 S    
C4    C17   1.500362 S    
C13   C15   1.420724 A    
H11   C24   1.060259 S    
C14   C16   1.428531 A    
C23   C24   1.535199 S    
H12   C23   1.078421 S    
O6    C4    1.316586 A    
C7    H3    1.083847 S    
N4    O12   1.301026 A    
S1    O13   1.502745 D    
S1    O14   1.504633 D    
H7    C22   1.087604 S    
C6    N4    1.428588 S    
C19   C21   1.339314 D    
Cu1   Cu2   2.694473 S    
C15   C18   1.465449 A    
C20   C22   1.339660 D    
O7    C3    1.331164 A    
O2    C2    1.294377 A    
O3    Cu2   1.947233 S    
O8    C4    1.299041 A    
S2    O18   1.674610 S    
O1    C1    1.293309 A    
S2    O17   1.498982 D    
C16   C17   1.407797 A    
C5    C7    1.405168 A    
H1    C10   1.081388 S    
C8    C10   1.379165 A    
C14   C18   1.440537 A    
Cu2   N1    2.024257 S    
C6    C8    1.395065 A    
N1    C23   1.310719 D    
C9    C11   1.374260 A    
C13   C17   1.407238 A    
Cu1   N2    2.024256 S    
O2    Cu2   1.938735 S    
C10   C12   1.389540 A    
O1    Cu1   1.938736 S    
C21   C22   1.455044 S    
O18   H14   0.990816 S    
C5    C15   1.441359 A    
N2    C24   1.301192 D    
O5    Cu1   1.995138 S    
C11   C13   1.416781 A    
C6    C16   1.429625 A    
N4    O11   1.300157 A    
C11   H5    1.083411 S    
C20   H9    1.087301 S    
O4    C2    1.301822 A    
N3    O9    1.300422 A    
C8    H4    1.083357 S    
S1    O15   1.681014 S    
C5    N3    1.400710 S    
C19   H10   1.087111 S    
O6    Cu2   1.995138 S    
O3    C1    1.303032 A    
O15   H13   0.990618 S    
C7    C9    1.373059 A    
H8    C21   1.087047 S    
C12   H6    1.065689 S    
O4    Cu1   1.947233 S    
C3    C18   1.542675 S    
C12   C14   1.403872 A    
S2    O16   1.498183 D    
N3    O10   1.300929 A    
O8    Cu1   1.975265 S    
