data_mof_unit_20783.cif
_audit_creation_date              2012-12-11T15:20:10-0500
_audit_creation_method            fapswitch 2.2
_symmetry_space_group_name_H-M    P1
_symmetry_Int_Tables_number       1
_space_group_crystal_system       triclinic
_cell_length_a                    16.650581
_cell_length_b                    16.650579
_cell_length_c                    42.821908
_cell_angle_alpha                 90.147046
_cell_angle_beta                  90.14725
_cell_angle_gamma                 120.029435
_cell_volume                      10278.2872986

loop_
_atom_site_label
_atom_site_type_symbol
_atom_type_description
_atom_site_fract_x
_atom_site_fract_y
_atom_site_fract_z
_atom_type_partial_charge
C1    C     C_R   0.584538 0.426168 0.794794 0.547365
C2    C     C_R   0.841323 0.415658 0.705097 0.549890
C3    C     C_R   0.573911 0.157284 0.794576 0.548508
C4    C     C_R   0.582874 0.426625 0.705742 0.548490
C5    C     C_R   0.841425 0.415971 0.794984 0.548255
C6    C     C_R   0.573816 0.157138 0.705355 0.545903
C7    C     C_R   0.426168 0.584538 0.294794 0.547365
C8    C     C_R   0.415658 0.841323 0.205097 0.549890
C9    C     C_R   0.157284 0.573911 0.294576 0.548508
C10   C     C_R   0.426625 0.582874 0.205742 0.548490
C11   C     C_R   0.415971 0.841425 0.294984 0.548255
C12   C     C_R   0.157138 0.573816 0.205355 0.545904
C13   C     C_R   0.047710 0.481508 0.125951 -0.053011
C14   C     C_R   0.411112 0.910814 0.378750 -0.047184
C15   C     C_R   0.553275 0.557125 0.137202 -0.051170
C16   C     C_R   0.046450 0.476537 0.372808 -0.039635
C17   C     C_R   0.406664 0.913906 0.122326 -0.040582
C18   C     C_R   0.518253 0.602848 0.376088 -0.053588
C19   C     C_R   0.481508 0.047711 0.625951 -0.053011
C20   C     C_R   0.910812 0.411111 0.878750 -0.047184
C21   C     C_R   0.557125 0.553276 0.637202 -0.051170
C22   C     C_R   0.476536 0.046447 0.872808 -0.039636
C23   C     C_R   0.913909 0.406665 0.622327 -0.040582
C24   C     C_R   0.602849 0.518253 0.876088 -0.053587
C25   C     C_R   0.084507 0.485324 0.155747 -0.136306
C26   C     C_R   0.387579 0.891552 0.347122 -0.130808
C27   C     C_R   0.536581 0.581620 0.166599 -0.132185
C28   C     C_R   0.082879 0.482265 0.342973 -0.129221
C29   C     C_R   0.385528 0.894252 0.153951 -0.128874
C30   C     C_R   0.513725 0.620823 0.344685 -0.133748
C31   C     C_R   0.485324 0.084508 0.655747 -0.136306
C32   C     C_R   0.891550 0.387578 0.847122 -0.130809
C33   C     C_R   0.581620 0.536581 0.666599 -0.132186
C34   C     C_R   0.482264 0.082876 0.842972 -0.129221
C35   C     C_R   0.894254 0.385529 0.653951 -0.128875
C36   C     C_R   0.620824 0.513725 0.844685 -0.133747
C37   C     C_R   0.080111 0.625922 0.166757 -0.136895
C38   C     C_R   0.535724 0.901866 0.337327 -0.141549
C39   C     C_R   0.371444 0.477482 0.159323 -0.140561
C40   C     C_R   0.083774 0.626566 0.334336 -0.137978
C41   C     C_R   0.532017 0.899019 0.162044 -0.134028
C42   C     C_R   0.375615 0.469903 0.338594 -0.141480
C43   C     C_R   0.625921 0.080111 0.666758 -0.136895
C44   C     C_R   0.901867 0.535724 0.837327 -0.141549
C45   C     C_R   0.477482 0.371444 0.659323 -0.140561
C46   C     C_R   0.626567 0.083775 0.834336 -0.137978
C47   C     C_R   0.899016 0.532016 0.662044 -0.134028
C48   C     C_R   0.469903 0.375616 0.838594 -0.141480
C49   C     C_R   0.043455 0.621933 0.137096 -0.057294
C50   C     C_R   0.559028 0.921036 0.368871 -0.061903
C51   C     C_R   0.388292 0.453674 0.129779 -0.057833
C52   C     C_R   0.047229 0.620557 0.364067 -0.057384
C53   C     C_R   0.553003 0.918762 0.130480 -0.047392
C54   C     C_R   0.381445 0.451149 0.370075 -0.053659
C55   C     C_R   0.621932 0.043455 0.637096 -0.057293
C56   C     C_R   0.921037 0.559028 0.868871 -0.061903
C57   C     C_R   0.453674 0.388292 0.629779 -0.057833
C58   C     C_R   0.620559 0.047231 0.864068 -0.057384
C59   C     C_R   0.918760 0.553002 0.630479 -0.047392
C60   C     C_R   0.451149 0.381446 0.870075 -0.053658
C61   C     C_R   0.029303 0.551185 0.116223 0.237800
C62   C     C_R   0.495931 0.923111 0.389954 0.231591
C63   C     C_R   0.478938 0.495954 0.118172 0.239854
C64   C     C_R   0.030714 0.546897 0.383766 0.236975
C65   C     C_R   0.489369 0.923744 0.110285 0.235460
C66   C     C_R   0.451436 0.518710 0.389202 0.236332
C67   C     C_R   0.551184 0.029304 0.616223 0.237799
C68   C     C_R   0.923110 0.495930 0.889954 0.231592
C69   C     C_R   0.495954 0.478939 0.618172 0.239855
C70   C     C_R   0.546897 0.030713 0.883766 0.236975
C71   C     C_R   0.923744 0.489369 0.610285 0.235460
C72   C     C_R   0.518711 0.451436 0.889202 0.236332
C73   C     C_R   0.883955 0.448529 0.826246 0.010341
C74   C     C_R   0.559193 0.103584 0.676131 0.011542
C75   C     C_R   0.555816 0.440760 0.825811 0.013028
C76   C     C_R   0.883667 0.446755 0.673944 0.008880
C77   C     C_R   0.558840 0.104443 0.823782 0.010837
C78   C     C_R   0.544631 0.445225 0.677418 0.012585
C79   C     C_R   0.448529 0.883955 0.326246 0.010341
C80   C     C_R   0.103583 0.559194 0.176131 0.011542
C81   C     C_R   0.440760 0.555816 0.325811 0.013027
C82   C     C_R   0.446755 0.883667 0.173944 0.008880
C83   C     C_R   0.104443 0.558840 0.323782 0.010836
C84   C     C_R   0.445224 0.544631 0.177418 0.012585
C85   C     C_R   0.051541 0.626395 0.032883 0.010204
C86   C     C_R   0.609442 0.022391 0.467297 0.010327
C87   C     C_R   0.483783 0.397507 0.039878 0.001659
C88   C     C_R   0.055302 0.616386 0.467861 0.016775
C89   C     C_R   0.598470 0.026140 0.033329 0.015947
C90   C     C_R   0.382210 0.486998 0.473544 0.008432
C91   C     C_R   0.626396 0.051539 0.532883 0.010204
C92   C     C_R   0.022393 0.609441 0.967296 0.010328
C93   C     C_R   0.397507 0.483785 0.539878 0.001659
C94   C     C_R   0.616385 0.055303 0.967861 0.016776
C95   C     C_R   0.026138 0.598470 0.533329 0.015947
C96   C     C_R   0.486998 0.382210 0.973544 0.008432
C97   C     C_R   0.070378 0.623556 0.065043 0.423388
C98   C     C_R   0.590144 0.011873 0.434760 0.420242
C99   C     C_R   0.477933 0.406836 0.072696 0.424135
C100  C     C_R   0.073519 0.615064 0.435630 0.435987
C101  C     C_R   0.579956 0.014672 0.065813 0.431540
C102  C     C_R   0.378222 0.490556 0.440435 0.436585
C103  C     C_R   0.623557 0.070376 0.565044 0.423389
C104  C     C_R   0.011874 0.590142 0.934760 0.420241
C105  C     C_R   0.406835 0.477935 0.572696 0.424135
C106  C     C_R   0.615063 0.073520 0.935630 0.435986
C107  C     C_R   0.014670 0.579957 0.565813 0.431540
C108  C     C_R   0.490555 0.378222 0.940435 0.436586
C109  C     C_R   0.918826 0.491662 0.072802 0.453197
C110  C     C_R   0.460925 0.858708 0.442507 0.457393
C111  C     C_R   0.518351 0.566051 0.067058 0.450076
C112  C     C_R   0.921636 0.483944 0.427073 0.463454
C113  C     C_R   0.451096 0.861348 0.057392 0.475603
C114  C     C_R   0.533402 0.517755 0.436013 0.441395
C115  C     C_R   0.491659 0.918827 0.572802 0.453196
C116  C     C_R   0.858707 0.460927 0.942507 0.457394
C117  C     C_R   0.566050 0.518350 0.567058 0.450075
C118  C     C_R   0.483945 0.921636 0.927073 0.463454
C119  C     C_R   0.861348 0.451093 0.557392 0.475602
C120  C     C_R   0.517758 0.533404 0.936013 0.441396
C121  C     C_R   0.897169 0.490756 0.040734 0.056519
C122  C     C_R   0.475107 0.867221 0.475250 0.060473
C123  C     C_R   0.526829 0.561385 0.034454 0.053377
C124  C     C_R   0.900716 0.480817 0.459250 0.059073
C125  C     C_R   0.464133 0.870676 0.024664 0.051348
C126  C     C_R   0.544679 0.524903 0.468726 0.050038
C127  C     C_R   0.490753 0.897169 0.540734 0.056518
C128  C     C_R   0.867221 0.475109 0.975250 0.060474
C129  C     C_R   0.561384 0.526827 0.534454 0.053377
C130  C     C_R   0.480819 0.900716 0.959250 0.059073
C131  C     C_R   0.870676 0.464130 0.524664 0.051347
C132  C     C_R   0.524906 0.544680 0.968726 0.050038
C133  C     C_R   0.966935 0.554596 0.020435 -0.080675
C134  C     C_R   0.546440 0.952149 0.487644 -0.078799
C135  C     C_R   0.505392 0.475229 0.020669 -0.085572
C136  C     C_R   0.970553 0.544352 0.479907 -0.077820
C137  C     C_R   0.535680 0.955758 0.012648 -0.080258
C138  C     C_R   0.467233 0.505755 0.487648 -0.083784
C139  C     C_R   0.554596 0.966935 0.520435 -0.080674
C140  C     C_R   0.952149 0.546441 0.987644 -0.078799
C141  C     C_R   0.475228 0.505391 0.520669 -0.085571
C142  C     C_R   0.544353 0.970554 0.979908 -0.077820
C143  C     C_R   0.955757 0.535679 0.512647 -0.080258
C144  C     C_R   0.505756 0.467234 0.987648 -0.083785
C145  C     C_R   0.113930 0.698410 0.012791 -0.047066
C146  C     C_R   0.689663 0.099880 0.480189 -0.053419
C147  C     C_R   0.468182 0.313440 0.025704 -0.056245
C148  C     C_R   0.118644 0.687233 0.488362 -0.046096
C149  C     C_R   0.677931 0.104697 0.020872 -0.050479
C150  C     C_R   0.305527 0.468827 0.492925 -0.051254
C151  C     C_R   0.698412 0.113928 0.512791 -0.047067
C152  C     C_R   0.099883 0.689661 0.980189 -0.053418
C153  C     C_R   0.313440 0.468184 0.525704 -0.056245
C154  C     C_R   0.687231 0.118647 0.988362 -0.046094
C155  C     C_R   0.104694 0.677933 0.520872 -0.050480
C156  C     C_R   0.468826 0.305527 0.992925 -0.051254
C157  C     C_R   0.807871 0.428951 0.028464 0.096432
C158  C     C_R   0.421151 0.793009 0.495846 0.097847
C159  C     C_R   0.555793 0.640607 0.015443 0.097486
C160  C     C_R   0.812003 0.417037 0.471224 0.085268
C161  C     C_R   0.409020 0.796925 0.003759 0.078534
C162  C     C_R   0.632060 0.553563 0.482765 0.087705
C163  C     C_R   0.428947 0.807871 0.528464 0.096431
C164  C     C_R   0.793008 0.421155 0.995846 0.097847
C165  C     C_R   0.640605 0.555789 0.515443 0.097488
C166  C     C_R   0.417041 0.812003 0.971224 0.085269
C167  C     C_R   0.796925 0.409016 0.503758 0.078533
C168  C     C_R   0.553567 0.632062 0.982765 0.087704
Cr1   Cr    Cr6+3 0.530290 0.262330 0.750000 1.028053
Cr2   Cr    Cr6+3 0.732040 0.469710 0.750000 1.022959
Cr3   Cr    Cr6+3 0.737670 0.267960 0.750000 1.023353
Cr4   Cr    Cr6+3 0.262330 0.530290 0.250000 1.028053
Cr5   Cr    Cr6+3 0.469710 0.732040 0.250000 1.022960
Cr6   Cr    Cr6+3 0.267960 0.737670 0.250000 1.023353
H1    H     H_    0.896311 0.584218 0.821920 0.129808
H2    H     H_    0.683538 0.093467 0.681901 0.129283
H3    H     H_    0.418750 0.318505 0.824597 0.129395
H4    H     H_    0.891193 0.580608 0.676777 0.135050
H5    H     H_    0.686262 0.099243 0.820116 0.129753
H6    H     H_    0.447872 0.300363 0.667087 0.132503
H7    H     H_    0.584218 0.896309 0.321920 0.129809
H8    H     H_    0.093468 0.683539 0.181901 0.129283
H9    H     H_    0.318503 0.418750 0.324597 0.129395
H10   H     H_    0.580610 0.891198 0.176778 0.135050
H11   H     H_    0.099240 0.686260 0.320115 0.129753
H12   H     H_    0.300363 0.447873 0.167087 0.132503
H13   H     H_    0.930208 0.624599 0.877173 0.136424
H14   H     H_    0.676058 0.029536 0.629838 0.130089
H15   H     H_    0.385486 0.329814 0.879826 0.143916
H16   H     H_    0.926313 0.617093 0.621436 0.144359
H17   H     H_    0.675288 0.035421 0.872340 0.131591
H18   H     H_    0.407096 0.330388 0.615092 0.134962
H19   H     H_    0.624599 0.930206 0.377173 0.136426
H20   H     H_    0.029537 0.676059 0.129837 0.130088
H21   H     H_    0.329811 0.385487 0.379826 0.143915
H22   H     H_    0.617095 0.926318 0.121436 0.144358
H23   H     H_    0.035417 0.675285 0.372340 0.131591
H24   H     H_    0.330388 0.407098 0.115091 0.134962
H25   H     H_    0.102289 0.433269 0.162188 0.132237
H26   H     H_    0.319597 0.877152 0.339449 0.137862
H27   H     H_    0.594807 0.632747 0.180213 0.135762
H28   H     H_    0.098389 0.429262 0.335589 0.140532
H29   H     H_    0.319014 0.882081 0.162284 0.141392
H30   H     H_    0.564462 0.688144 0.335735 0.136533
H31   H     H_    0.433269 0.102290 0.662188 0.132238
H32   H     H_    0.877149 0.319595 0.839449 0.137861
H33   H     H_    0.632747 0.594807 0.680213 0.135762
H34   H     H_    0.429260 0.098385 0.835589 0.140532
H35   H     H_    0.882085 0.319016 0.662285 0.141393
H36   H     H_    0.688146 0.564460 0.835735 0.136534
H37   H     H_    0.037535 0.426792 0.109909 0.140115
H38   H     H_    0.361870 0.912599 0.394800 0.155616
H39   H     H_    0.623489 0.590332 0.128344 0.135486
H40   H     H_    0.034583 0.419702 0.387967 0.156709
H41   H     H_    0.357237 0.918134 0.106922 0.162033
H42   H     H_    0.572119 0.656058 0.390572 0.139837
H43   H     H_    0.426793 0.037537 0.609909 0.140116
H44   H     H_    0.912596 0.361868 0.894800 0.155616
H45   H     H_    0.590331 0.623489 0.628344 0.135486
H46   H     H_    0.419700 0.034579 0.887967 0.156709
H47   H     H_    0.918138 0.357239 0.606923 0.162033
H48   H     H_    0.656060 0.572118 0.890572 0.139838
N1    N     N_R   0.005281 0.555492 0.084095 -0.403435
N2    N     N_R   0.515647 0.931882 0.423087 -0.401747
N3    N     N_R   0.493672 0.489480 0.085383 -0.398811
N4    N     N_R   0.007597 0.548831 0.416082 -0.400626
N5    N     N_R   0.506702 0.933867 0.077129 -0.397649
N6    N     N_R   0.452947 0.505249 0.422445 -0.395269
N7    N     N_R   0.555491 0.005281 0.584095 -0.403435
N8    N     N_R   0.931882 0.515647 0.923087 -0.401747
N9    N     N_R   0.489480 0.493673 0.585383 -0.398812
N10   N     N_R   0.548832 0.007598 0.916083 -0.400626
N11   N     N_R   0.933867 0.506701 0.577129 -0.397649
N12   N     N_R   0.505250 0.452948 0.922445 -0.395269
O1    O     O_R   0.509640 0.171340 0.784000 -0.508380
O2    O     O_R   0.661700 0.490360 0.716000 -0.510276
O3    O     O_R   0.828660 0.338300 0.784000 -0.508380
O4    O     O_R   0.509640 0.171340 0.716000 -0.509611
O5    O     O_R   0.661700 0.490360 0.784000 -0.515177
O6    O     O_R   0.828660 0.338300 0.716000 -0.509205
O7    O     O_R   0.171340 0.509640 0.284000 -0.508380
O8    O     O_R   0.490360 0.661700 0.216000 -0.510276
O9    O     O_R   0.338300 0.828660 0.284000 -0.508379
O10   O     O_R   0.171340 0.509640 0.216000 -0.509611
O11   O     O_R   0.490360 0.661700 0.284000 -0.515177
O12   O     O_R   0.338300 0.828660 0.216000 -0.509205
O13   O     O_R   0.539230 0.345420 0.781810 -0.495195
O14   O     O_R   0.806190 0.460770 0.718190 -0.495503
O15   O     O_R   0.654580 0.193810 0.781810 -0.499370
O16   O     O_R   0.539230 0.345420 0.718190 -0.497557
O17   O     O_R   0.806190 0.460770 0.781810 -0.498593
O18   O     O_R   0.654580 0.193810 0.718190 -0.498682
O19   O     O_R   0.345420 0.539230 0.281810 -0.495196
O20   O     O_R   0.460770 0.806190 0.218190 -0.495502
O21   O     O_R   0.193810 0.654580 0.281810 -0.499369
O22   O     O_R   0.345420 0.539230 0.218190 -0.497557
O23   O     O_R   0.460770 0.806190 0.281810 -0.498593
O24   O     O_R   0.193810 0.654580 0.218190 -0.498683
O25   O     O_3   0.666667 0.333333 0.750000 -0.233498
O26   O     O_3   0.333333 0.666667 0.250000 -0.233498
O27   O     O_2   0.145915 0.679543 0.076024 -0.469604
O28   O     O_2   0.637688 0.074783 0.416809 -0.486216
O29   O     O_2   0.457826 0.341564 0.090118 -0.483614
O30   O     O_2   0.149237 0.670808 0.424965 -0.463116
O31   O     O_2   0.627286 0.077293 0.084111 -0.477989
O32   O     O_2   0.309129 0.482452 0.427468 -0.482930
O33   O     O_2   0.679545 0.145913 0.576024 -0.469604
O34   O     O_2   0.074785 0.637684 0.916808 -0.486216
O35   O     O_2   0.341565 0.457828 0.590118 -0.483613
O36   O     O_2   0.670806 0.149238 0.924965 -0.463117
O37   O     O_2   0.077291 0.627289 0.584111 -0.477989
O38   O     O_2   0.482449 0.309129 0.927469 -0.482929
O39   O     O_2   0.861715 0.434806 0.090674 -0.438406
O40   O     O_2   0.399110 0.786699 0.431131 -0.423347
O41   O     O_2   0.530203 0.637615 0.079311 -0.454185
O42   O     O_2   0.864240 0.428247 0.408776 -0.435679
O43   O     O_2   0.389643 0.789130 0.068504 -0.415265
O44   O     O_2   0.595095 0.522540 0.419325 -0.462074
O45   O     O_2   0.434802 0.861717 0.590674 -0.438406
O46   O     O_2   0.786698 0.399114 0.931131 -0.423347
O47   O     O_2   0.637614 0.530202 0.579311 -0.454187
O48   O     O_2   0.428250 0.864238 0.908776 -0.435678
O49   O     O_2   0.789131 0.389639 0.568504 -0.415265
O50   O     O_2   0.522545 0.595098 0.919325 -0.462075
N13   N     N_3   0.701587 0.360917 0.983635 -0.531766
H49   H     H_    0.677548 0.293423 0.991536 0.238690
H50   H     H_    0.657805 0.384211 0.991816 0.220039
N14   N     N_3   0.376827 0.731387 0.549204 -0.531324
H51   H     H_    0.306164 0.701826 0.544290 0.250226
H52   H     H_    0.396371 0.681410 0.545636 0.225208
N15   N     N_3   0.584780 0.713349 0.963753 -0.556977
H53   H     H_    0.544919 0.744221 0.968586 0.230422
H54   H     H_    0.654234 0.760367 0.968967 0.227026
N16   N     N_3   0.705607 0.347201 0.515570 -0.537466
H55   H     H_    0.683455 0.279909 0.507679 0.236741
H56   H     H_    0.659933 0.368174 0.507252 0.225973
N17   N     N_3   0.362789 0.736108 0.950239 -0.526644
H57   H     H_    0.292451 0.708981 0.954963 0.248940
H58   H     H_    0.379635 0.684167 0.953683 0.238043
N18   N     N_3   0.730630 0.590097 0.529420 -0.552152
H59   H     H_    0.774084 0.658750 0.522553 0.224012
H60   H     H_    0.758660 0.549696 0.521916 0.237118
N19   N     N_3   0.360912 0.701588 0.483635 -0.531765
H61   H     H_    0.293418 0.677550 0.491536 0.238690
H62   H     H_    0.384204 0.657805 0.491816 0.220039
N20   N     N_3   0.731386 0.376832 0.049204 -0.531326
H63   H     H_    0.701823 0.306169 0.044290 0.250226
H64   H     H_    0.681410 0.396378 0.045636 0.225208
N21   N     N_3   0.713347 0.584773 0.463753 -0.556978
H65   H     H_    0.744216 0.544910 0.468586 0.230422
H66   H     H_    0.760367 0.654226 0.468967 0.227026
N22   N     N_3   0.347207 0.705606 0.015570 -0.537465
H67   H     H_    0.279914 0.683453 0.007679 0.236742
H68   H     H_    0.368180 0.659933 0.007252 0.225974
N23   N     N_3   0.736109 0.362782 0.450239 -0.526643
H69   H     H_    0.708985 0.292445 0.454963 0.248940
H70   H     H_    0.684166 0.379626 0.453682 0.238042
N24   N     N_3   0.590102 0.730631 0.029420 -0.552152
H71   H     H_    0.658756 0.774084 0.022554 0.224012
H72   H     H_    0.549704 0.758664 0.021916 0.237118
C169  C     C_1   0.163092 0.766374 0.960483 0.253175
N25   N     N_1   0.213491 0.827707 0.944913 -0.215612
C170  C     C_1   0.784308 0.190062 0.525286 0.277052
N26   N     N_1   0.852943 0.250440 0.535131 -0.237269
C171  C     C_1   0.451801 0.217542 0.979785 0.280100
N27   N     N_1   0.438466 0.147516 0.969497 -0.236435
C172  C     C_1   0.169492 0.753486 0.540953 0.252684
N28   N     N_1   0.221138 0.813886 0.556817 -0.220577
C173  C     C_1   0.772846 0.195727 0.976398 0.270375
N29   N     N_1   0.841242 0.256842 0.966976 -0.251605
C174  C     C_1   0.234287 0.453632 0.544355 0.269435
N30   N     N_1   0.171159 0.442257 0.559031 -0.221996
C175  C     C_1   0.766377 0.163087 0.460483 0.253174
N31   N     N_1   0.827712 0.213485 0.444914 -0.215612
C176  C     C_1   0.190065 0.784306 0.025286 0.277050
N32   N     N_1   0.250444 0.852941 0.035130 -0.237271
C177  C     C_1   0.217542 0.451803 0.479785 0.280100
N33   N     N_1   0.147516 0.438469 0.469496 -0.236436
C178  C     C_1   0.753484 0.169497 0.040954 0.252684
N34   N     N_1   0.813883 0.221144 0.056817 -0.220577
C179  C     C_1   0.195723 0.772849 0.476397 0.270375
N35   N     N_1   0.256837 0.841244 0.466976 -0.251603
C180  C     C_1   0.453629 0.234287 0.044355 0.269437
N36   N     N_1   0.442252 0.171158 0.059031 -0.221996

loop_
_geom_bond_atom_site_label_1
_geom_bond_atom_site_label_2
_ccdc_geom_bond_type
C132  C144  A    
C4    O2    A    
N15   H53   S    
C44   H1    S    
C165  N18   S    
C177  N33   T    
C93   C141  A    
N19   H62   S    
C175  N31   T    
C6    O4    A    
C45   C57   A    
C38   H7    S    
C127  C139  A    
C164  N13   S    
C47   C76   A    
C112  C124  A    
C33   C78   A    
C21   C33   A    
C60   C72   A    
Cr5   O11   S    
C101  O31   D    
C3    O1    A    
C110  O40   D    
C86   C134  A    
C100  O30   D    
C45   C78   A    
C19   H43   S    
C103  O33   D    
C87   C99   A    
C97   O27   D    
C116  N8    Am   
C96   C108  A    
C19   C31   A    
C28   C83   A    
C40   C83   A    
Cr2   O14   S    
C170  N26   T    
C111  N3    Am   
C57   H18   S    
C58   C70   A    
C119  O49   D    
Cr3   O3    S    
C97   N1    Am   
C4    C78   S    
C25   H25   S    
C96   C144  A    
C162  C165  A    
C15   C27   A    
N19   H61   S    
N20   H63   S    
C122  C158  A    
C14   C26   A    
C159  N24   S    
C5    O3    A    
C9    C83   S    
Cr1   O4    S    
C10   O22   A    
C32   H32   S    
C3    C77   S    
C131  C143  A    
N18   H59   S    
Cr6   O12   S    
C166  N17   S    
C111  C123  A    
C163  N14   S    
Cr4   O22   S    
C89   C101  A    
C46   H5    S    
C20   C68   A    
C18   H42   S    
C91   C103  A    
C138  C141  A    
C46   C77   A    
C118  O48   D    
C129  C165  A    
Cr3   O15   S    
C101  N5    Am   
C93   C153  A    
C28   H28   S    
C29   C82   A    
N13   H50   S    
C109  C121  A    
C96   C156  A    
C123  C159  A    
C152  C169  S    
C41   C82   A    
C124  C160  A    
C85   C97   A    
C92   C104  A    
C47   C59   A    
C176  N32   T    
C67   N7    S    
C169  N25   T    
C38   C79   A    
C123  C135  A    
C171  N27   T    
C53   H22   S    
C110  C122  A    
C39   C51   A    
C137  C142  A    
C11   O9    A    
C15   H39   S    
C9    O7    A    
C63   N3    S    
C24   C36   A    
C11   O23   A    
C27   C84   A    
N15   H54   S    
C85   C145  A    
C39   C84   A    
C31   H31   S    
C136  C143  A    
Cr6   O26   S    
C114  C126  A    
C50   H19   S    
C113  N5    Am   
C14   C62   A    
C128  C164  A    
N22   H67   S    
C65   N5    S    
C122  C134  A    
N24   H72   S    
C160  N23   S    
C119  N11   Am   
C12   O10   A    
C98   N2    Am   
C119  C131  A    
C41   H10   S    
C148  C155  A    
C62   N2    S    
C26   H26   S    
C109  N1    Am   
C117  C129  A    
C131  C167  A    
C46   C58   A    
N17   H58   S    
C9    O21   A    
C42   C81   A    
C90   C138  A    
C68   N8    S    
N21   H66   S    
C22   C34   A    
C37   C80   A    
C108  N12   Am   
C35   C76   A    
C94   C142  A    
C116  O46   D    
C1    O13   A    
C151  C170  S    
C134  C139  A    
C31   C74   A    
C56   C68   A    
C21   C69   A    
N14   H52   S    
C16   H40   S    
C36   C75   A    
C98   O28   D    
C56   H13   S    
C102  N6    Am   
C55   H14   S    
C100  N4    Am   
C157  C164  A    
C41   C53   A    
C158  C163  A    
C168  N15   S    
C43   C55   A    
C7    C81   S    
C24   C72   A    
C20   C32   A    
C33   H33   S    
Cr1   O1    S    
C27   H27   S    
C3    O15   A    
Cr6   O24   S    
C54   C66   A    
C18   C66   A    
C7    O11   A    
Cr3   O25   S    
C128  C140  A    
C71   N11   S    
C107  N11   Am   
C130  C142  A    
C145  C152  A    
C114  N6    Am   
C146  C151  A    
Cr4   O10   S    
C21   H45   S    
C66   N6    S    
C22   C70   A    
C103  N7    Am   
Cr2   O5    S    
C95   C143  A    
C25   C80   A    
C17   C29   A    
C13   H37   S    
C110  N2    Am   
C1    O5    A    
C87   C147  A    
C8    C82   S    
C47   H4    S    
C69   N9    S    
C34   C77   A    
N16   H55   S    
C129  C141  A    
Cr3   O6    S    
N17   H57   S    
C2    O14   A    
C45   H6    S    
C39   H12   S    
Cr5   O8    S    
C94   C106  A    
C23   H47   S    
C150  C153  A    
N20   H64   S    
C19   C67   A    
Cr2   O25   S    
C90   C150  A    
C167  N16   S    
C89   C149  A    
C8    O12   A    
N23   H69   S    
C86   C146  A    
N18   H60   S    
C6    C74   S    
C105  O35   D    
Cr4   O19   S    
C49   C61   A    
C124  C136  A    
C107  O37   D    
C87   C135  A    
C108  O38   D    
C154  C173  S    
C51   C63   A    
C88   C136  A    
C52   C64   A    
C34   H34   S    
C179  N35   T    
Cr2   O2    S    
Cr3   O18   S    
C117  N9    Am   
Cr1   O16   S    
C149  C154  A    
N13   H49   S    
C118  C130  A    
C51   H24   S    
C23   C71   A    
C37   C49   A    
C43   H2    S    
C130  C166  A    
C104  N8    Am   
C178  N34   T    
Cr5   O20   S    
C161  N22   S    
C147  C156  A    
C99   N3    Am   
C95   C107  A    
C91   C139  A    
C89   C137  A    
C157  N20   S    
C92   C140  A    
C150  C177  S    
C113  O43   D    
C158  N19   S    
C2    C76   S    
C115  O45   D    
C22   H46   S    
C127  C163  A    
C54   H21   S    
C20   H44   S    
C125  C161  A    
C112  O42   D    
C153  C174  S    
C49   H20   S    
C24   H48   S    
C26   C79   A    
C14   H38   S    
C125  C137  A    
C30   C81   A    
C172  N28   T    
C42   C54   A    
C2    O6    A    
C37   H8    S    
N22   H68   S    
C117  O47   D    
C44   C73   A    
C86   C98   A    
C23   C35   A    
C70   N10   S    
C120  O50   D    
C133  C140  A    
C58   H17   S    
C59   H16   S    
C52   H23   S    
C109  O39   D    
C85   C133  A    
C16   C28   A    
N16   H56   S    
C180  N36   T    
C29   H29   S    
C173  N29   T    
C5    O17   A    
C10   O8    A    
C174  N30   T    
C64   N4    S    
C72   N12   S    
N21   H65   S    
Cr5   O23   S    
C146  C175  S    
C105  N9    Am   
C113  C125  A    
C115  C127  A    
C159  C168  A    
C162  N21   S    
C160  C167  A    
C8    O20   A    
C44   C56   A    
C93   C105  A    
C90   C102  A    
C118  N10   Am   
C60   H15   S    
C92   C152  A    
C18   C30   A    
C111  O41   D    
Cr4   O26   S    
C161  C166  A    
C120  N12   Am   
C43   C74   A    
C121  C157  A    
C7    O19   A    
C5    C73   S    
C48   C75   A    
C13   C25   A    
C12   O24   A    
C48   H3    S    
C48   C60   A    
C147  C180  S    
C88   C148  A    
N23   H70   S    
C112  N4    Am   
C1    C75   S    
C145  C176  S    
Cr5   O26   S    
C32   C73   A    
C40   H11   S    
C40   C52   A    
C149  C178  S    
C61   N1    S    
N24   H71   S    
C148  C179  S    
C94   C154  A    
C155  C172  S    
C99   O29   D    
C88   C100  A    
Cr1   O13   S    
C11   C79   S    
Cr6   O9    S    
C135  C144  A    
Cr4   O7    S    
C106  O36   D    
C102  O32   D    
C50   C62   A    
C53   C65   A    
C126  C138  A    
C104  O34   D    
C120  C132  A    
C132  C168  A    
C55   C67   A    
C38   C50   A    
C42   H9    S    
C30   H30   S    
C156  C171  S    
C17   C65   A    
C6    O18   A    
C57   C69   A    
N14   H51   S    
C35   H35   S    
C4    O16   A    
C17   H41   S    
C91   C151  A    
C12   C80   S    
C10   C84   S    
C106  N10   Am   
Cr2   O17   S    
C95   C155  A    
C115  N7    Am   
C114  O44   D    
Cr6   O21   S    
C13   C61   A    
C116  C128  A    
C59   C71   A    
Cr1   O25   S    
C15   C63   A    
C16   C64   A    
C121  C133  A    
C126  C162  A    
C36   H36   S    
