data_mof_unit_25326.cif
_audit_creation_date              2012-12-10T18:39:01-0500
_audit_creation_method            fapswitch 2.2
_symmetry_space_group_name_H-M    P1
_symmetry_Int_Tables_number       1
_space_group_crystal_system       triclinic
_cell_length_a                    10.934326
_cell_length_b                    11.558113
_cell_length_c                    10.680682
_cell_angle_alpha                 90.000692
_cell_angle_beta                  91.205359
_cell_angle_gamma                 89.996877
_cell_volume                      1349.52777421

loop_
_atom_site_label
_atom_site_type_symbol
_atom_type_description
_atom_site_fract_x
_atom_site_fract_y
_atom_site_fract_z
_atom_type_partial_charge
C1    C     C_R   0.500006 0.280955 0.499999 0.937851
C2    C     C_R   0.499987 0.719033 0.500000 0.880684
C3    C     C_1   0.500023 0.160959 0.499997 -0.181239
C4    C     C_3   0.070726 0.453087 0.611376 -0.061336
C5    C     C_3   0.068888 0.464322 0.376331 -0.064005
C6    C     C_3   0.931122 0.464456 0.623769 -0.064162
C7    C     C_3   0.929292 0.452930 0.388747 -0.061488
C8    C     C_1   0.500031 0.059122 0.499991 -0.005381
C9    C     C_3   0.077073 0.667374 0.496591 -0.026930
C10   C     C_3   0.922860 0.667357 0.503209 -0.026915
C11   C     C_R   0.146931 0.719386 0.616546 0.065022
C12   C     C_3   0.121699 0.529442 0.495154 -0.129582
C13   C     C_R   0.236702 0.808444 0.609662 -0.186909
C14   C     C_R   0.294057 0.854719 0.717048 -0.100254
C15   C     C_R   0.266113 0.813377 0.834947 -0.134510
C16   C     C_R   0.177293 0.728775 0.846133 -0.104128
C17   C     C_R   0.118483 0.684507 0.739173 -0.028064
C18   C     C_R   0.117230 0.749458 0.381161 0.056895
C19   C     C_R   0.224654 0.733789 0.311468 -0.129559
C20   C     C_R   0.259464 0.806304 0.213645 -0.138102
C21   C     C_R   0.192264 0.904541 0.185299 -0.117086
C22   C     C_R   0.093638 0.932194 0.258461 -0.110849
C23   C     C_3   0.878292 0.529420 0.504850 -0.129544
C24   C     C_R   0.059845 0.859098 0.356105 -0.158941
C25   C     C_R   0.882668 0.749585 0.618512 0.056874
C26   C     C_R   0.775307 0.733932 0.688306 -0.129766
C27   C     C_R   0.740430 0.806612 0.785963 -0.138139
C28   C     C_R   0.807517 0.904965 0.814068 -0.116874
C29   C     C_R   0.906108 0.932556 0.740831 -0.110941
C30   C     C_R   0.939962 0.859304 0.643338 -0.158848
C31   C     C_R   0.852958 0.719184 0.383179 0.065011
C32   C     C_R   0.763110 0.808188 0.389947 -0.186683
C33   C     C_R   0.705639 0.854243 0.282509 -0.100165
C34   C     C_1   0.500001 0.839077 0.499997 -0.203178
C35   C     C_R   0.733590 0.812761 0.164666 -0.134572
C36   C     C_R   0.822510 0.728228 0.153587 -0.104042
C37   C     C_R   0.881401 0.684156 0.260600 -0.028060
C38   C     C_1   0.500023 0.940996 0.499988 -0.048000
C39   C     C_R   0.257576 0.513776 0.498622 0.879796
C40   C     C_R   0.742426 0.513739 0.501380 0.879933
C41   C     C_1   0.499998 0.500201 0.069491 0.097427
C42   C     C_1   0.500003 0.500201 0.930509 0.097442
H1    H     H_    0.084776 0.361867 0.581119 0.117507
H2    H     H_    0.289175 0.671485 0.333196 0.198963
H3    H     H_    0.341563 0.787654 0.162328 0.135160
H4    H     H_    0.219256 0.961277 0.110152 0.136429
H5    H     H_    0.043129 0.011265 0.240429 0.148284
H6    H     H_    0.983391 0.890695 0.405857 0.139314
H7    H     H_    0.710900 0.671459 0.666833 0.199102
H8    H     H_    0.658375 0.787977 0.837355 0.135140
H9    H     H_    0.780477 0.961811 0.889105 0.136523
H10   H     H_    0.956548 0.011692 0.758694 0.148212
H11   H     H_    0.016391 0.890851 0.593516 0.139315
H12   H     H_    0.105036 0.374142 0.382099 0.141167
H13   H     H_    0.738969 0.847800 0.476909 0.149883
H14   H     H_    0.639864 0.923540 0.290331 0.146748
H15   H     H_    0.688617 0.848209 0.082011 0.119146
H16   H     H_    0.848353 0.698452 0.061725 0.171074
H17   H     H_    0.955169 0.627625 0.245848 0.192444
H18   H     H_    0.895015 0.374259 0.618122 0.141235
H19   H     H_    0.915288 0.361746 0.419141 0.117477
H20   H     H_    0.260857 0.847945 0.522643 0.149879
H21   H     H_    0.359732 0.924084 0.709150 0.146808
H22   H     H_    0.311018 0.848987 0.917554 0.119123
H23   H     H_    0.151450 0.699104 0.938033 0.170945
H24   H     H_    0.044756 0.627949 0.753998 0.192419
I1    I     I_    0.164463 0.405394 0.789769 -0.295841
I2    I     I_    0.141076 0.488249 0.185866 -0.328646
I3    I     I_    0.858907 0.488557 0.814199 -0.329156
I4    I     I_    0.835553 0.404950 0.210456 -0.295953
N1    N     N_1   0.500000 0.500010 0.180630 -0.061640
N2    N     N_1   0.500000 0.500010 0.819370 -0.061641
O1    O     O_R   0.500000 0.334450 0.602530 -0.594792
O2    O     O_R   0.500000 0.334450 0.397470 -0.594727
O3    O     O_R   0.314800 0.499980 0.602530 -0.570375
O4    O     O_R   0.314800 0.499980 0.397470 -0.623953
O5    O     O_R   0.685200 0.499980 0.602530 -0.624012
O6    O     O_R   0.685200 0.499980 0.397470 -0.570345
O7    O     O_R   0.500000 0.665550 0.602530 -0.631511
O8    O     O_R   0.500000 0.665550 0.397470 -0.631598
Zn1   Zn    Zn3+2 0.500000 0.500000 0.636920 1.011587
Zn2   Zn    Zn3+2 0.500000 0.500000 0.363080 1.011617

loop_
_geom_bond_atom_site_label_1
_geom_bond_atom_site_label_2
_ccdc_geom_bond_type
C6    I3    S    
C41   C42   S    
C35   C36   A    
C7    I4    S    
C17   H24   S    
C18   C24   A    
C1    O2    A    
C36   C37   A    
C36   H16   S    
C28   H9    S    
C6    C23   S    
C23   C40   S    
C18   C19   A    
C7    H19   S    
C2    O7    A    
C10   C31   S    
C11   C17   A    
C13   H20   S    
C19   C20   A    
C16   C17   A    
C15   H22   S    
C39   O3    A    
C4    C12   S    
C9    C10   S    
C32   H13   S    
N2    Zn1   S    
C27   H8    S    
C41   N1    T    
N1    Zn2   S    
C2    C34   S    
C33   H14   S    
C22   H5    S    
C13   C14   A    
C8    C38   S    
O2    Zn2   S    
C5    I2    S    
O1    Zn1   S    
C30   H11   S    
C24   H6    S    
C6    H18   S    
C5    H12   S    
C5    C12   S    
C4    C6    S    
C3    C8    T    
C26   H7    S    
O4    Zn2   S    
C5    C7    S    
O3    Zn1   S    
C25   C26   A    
C31   C37   A    
C1    C3    S    
C29   C30   A    
O6    Zn2   S    
C31   C32   A    
O5    Zn1   S    
C42   N2    T    
C26   C27   A    
C39   O4    A    
C9    C11   S    
C37   H17   S    
C10   C25   S    
O8    Zn2   S    
C22   C24   A    
C19   H2    S    
O7    Zn1   S    
C21   H4    S    
C25   C30   A    
C28   C29   A    
C34   C38   T    
C20   H3    S    
C4    I1    S    
C4    H1    S    
C10   C23   S    
C35   H15   S    
C1    O1    A    
C32   C33   A    
C12   C39   S    
C11   C13   A    
C7    C23   S    
C14   H21   S    
C33   C35   A    
C40   O6    A    
C40   O5    A    
C9    C12   S    
C2    O8    A    
C9    C18   S    
C20   C21   A    
C27   C28   A    
C14   C15   A    
C16   H23   S    
C21   C22   A    
C15   C16   A    
C29   H10   S    
