data_mof_unit_30324.cif
_audit_creation_date              2013-03-05T16:44:39-0500
_audit_creation_method            fapswitch 2.2
_symmetry_space_group_name_H-M    P1
_symmetry_Int_Tables_number       1
_space_group_crystal_system       triclinic
_cell_length_a                    27.710946
_cell_length_b                    10.71809
_cell_length_c                    9.852711
_cell_angle_alpha                 90.309679
_cell_angle_beta                  90.061923
_cell_angle_gamma                 89.904108
_cell_volume                      2926.28953738

loop_
_atom_site_label
_atom_site_type_symbol
_atom_site_description
_atom_site_fract_x
_atom_site_fract_y
_atom_site_fract_z
_atom_type_partial_charge
O1    O     O_R   0.500010 0.316790 0.614690 -0.607700
O2    O     O_R   0.500000 0.316760 0.385350 -0.626987
C1    C     C_R   0.498614 0.260256 0.499760 0.875568
O3    O     O_R   0.428760 0.500040 0.614660 -0.579107
O4    O     O_R   0.428750 0.500000 0.385310 -0.631123
C2    C     C_R   0.406038 0.499846 0.500092 0.921473
Zn1   Zn    Zn3+2 0.500000 0.500020 0.653130 0.969887
Zn2   Zn    Zn3+2 0.500000 0.499980 0.346870 0.942046
O5    O     O_R   0.500000 0.683240 0.614650 -0.623102
O6    O     O_R   0.499990 0.683210 0.385310 -0.629652
O7    O     O_R   0.571250 0.500000 0.614690 -0.614847
O8    O     O_R   0.571240 0.499960 0.385340 -0.622089
C3    C     C_R   0.499378 0.740035 0.500207 0.871132
C4    C     C_R   0.593967 0.498008 0.500043 0.864524
C5    C     C_R   0.178258 0.352606 0.499693 0.491288
O9    O     O_2   0.203480 0.245368 0.511604 -0.576281
N1    N     N_R   0.201987 0.463836 0.491311 -0.326535
C6    C     C_R   0.177856 0.574048 0.475691 0.577100
C7    C     C_R   0.276041 0.518985 0.613274 0.414283
C8    C     C_R   0.326199 0.540228 0.609904 0.329518
C9    C     C_R   0.330188 0.433793 0.390900 -0.302966
C10   C     C_R   0.280398 0.422622 0.389426 -0.186278
C11   C     C_R   0.253350 0.466162 0.499249 0.184016
C12   C     C_R   0.102006 0.462786 0.485103 -0.063282
C13   C     C_R   0.127765 0.350010 0.497235 -0.024085
C14   C     C_R   0.102726 0.237820 0.508909 -0.142813
C15   C     C_R   0.127472 0.575709 0.473056 -0.040076
C16   C     C_R   0.353425 0.492257 0.500430 -0.186196
H1    H     H_    0.262659 0.380949 0.302362 0.173156
H2    H     H_    0.121738 0.150085 0.520498 0.190183
C17   C     C_R   0.646531 0.488822 0.499803 -0.042026
C18   C     C_R   0.974477 0.348487 0.487632 -0.006545
C19   C     C_R   0.974640 0.578180 0.489299 -0.006441
C20   C     C_R   0.949162 0.463602 0.489998 0.066719
C21   C     C_R   0.947662 0.237127 0.481135 -0.315461
C22   C     C_R   0.897614 0.236948 0.489264 0.518561
C23   C     C_R   0.872099 0.350545 0.490803 -0.115638
C24   C     C_R   0.897926 0.464226 0.493261 -0.169998
C25   C     C_R   0.872474 0.578605 0.498964 -0.117886
C26   C     C_R   0.821905 0.576218 0.506823 0.511029
N2    N     N_R   0.797946 0.465712 0.498500 -0.359625
C27   C     C_R   0.821390 0.354410 0.488303 0.512213
C28   C     C_R   0.721538 0.456002 0.620385 -0.125951
C29   C     C_R   0.671568 0.466760 0.621379 -0.225696
C30   C     C_R   0.672038 0.498694 0.377278 -0.226317
C31   C     C_R   0.721980 0.488454 0.376785 -0.123739
C32   C     C_R   0.746622 0.467641 0.498270 0.333072
O10   O     O_2   0.795417 0.248773 0.474461 -0.557413
C33   C     C_R   0.025646 0.347995 0.492686 0.073379
C34   C     C_R   0.050891 0.462790 0.485343 0.075590
C35   C     C_R   0.025601 0.577769 0.478828 0.074150
C36   C     C_R   0.052673 0.236543 0.507125 -0.225670
H3    H     H_    0.652626 0.457530 0.716881 0.167155
H4    H     H_    0.740872 0.440383 0.714356 0.127986
H5    H     H_    0.964405 0.147037 0.470187 0.145420
O11   O     O_2   0.202709 0.681612 0.462850 -0.558829
C37   C     C_R   0.102303 0.687565 0.458303 -0.140415
H6    H     H_    0.121141 0.775221 0.445439 0.188845
C38   C     C_R   0.948255 0.690167 0.499841 -0.315501
C39   C     C_R   0.898198 0.691591 0.497720 0.517619
O12   O     O_2   0.796481 0.682759 0.523244 -0.539106
C40   C     C_R   0.052335 0.688801 0.460407 -0.222835
H7    H     H_    0.965362 0.779788 0.510052 0.145887
H8    H     H_    0.653520 0.515283 0.282197 0.163274
H9    H     H_    0.741673 0.498151 0.282561 0.127820
C41   C     C_R   0.495536 0.064237 0.621567 -0.009405
C42   C     C_R   0.493053 0.128967 0.499914 -0.119074
C43   C     C_R   0.483222 0.064163 0.378968 -0.224384
C44   C     C_R   0.483650 0.934893 0.379239 -0.221620
H10   H     H_    0.478695 0.885549 0.284006 0.169765
C45   C     C_R   0.493646 0.871579 0.500626 -0.078470
C46   C     C_R   0.495150 0.937415 0.622448 0.037977
C47   C     C_3   0.526613 0.927805 0.745758 -0.557427
C48   C     C_3   0.527042 0.070421 0.746159 0.360950
H11   H     H_    0.561982 0.882556 0.725133 0.203150
H12   H     H_    0.506885 0.109901 0.834015 0.099781
C49   C     C_R   0.480104 0.402833 0.070550 0.225840
N3    N     N_R   0.499670 0.499140 0.142800 -0.107189
C50   C     C_R   0.523552 0.589855 0.072613 -0.135120
C51   C     C_R   0.523575 0.589821 0.928545 -0.130357
H13   H     H_    0.541934 0.663387 0.874638 0.146682
N4    N     N_R   0.499670 0.499180 0.857150 -0.103722
C52   C     C_R   0.480205 0.402712 0.927927 0.233430
C53   C     C_3   0.429058 0.360502 0.921073 -0.512047
C54   C     C_3   0.428780 0.361563 0.075183 -0.534079
H14   H     H_    0.404641 0.431521 0.875991 0.252594
H15   H     H_    0.425789 0.265310 0.876676 0.191743
H16   H     H_    0.424911 0.267136 0.119923 0.196089
H17   H     H_    0.350546 0.396352 0.306310 0.183989
O13   O     O_3   0.247993 0.562865 0.719771 -0.640234
C55   C     C_3   0.256476 0.492287 0.838565 0.088658
H18   H     H_    0.252293 0.556360 0.926807 0.178779
H19   H     H_    0.293594 0.452374 0.845695 0.150638
C56   C     C_3   0.219219 0.387640 0.850047 -0.365318
H20   H     H_    0.182321 0.426693 0.837006 0.241487
H21   H     H_    0.225692 0.317667 0.768590 0.249113
C57   C     C_3   0.222456 0.322954 0.987400 -0.931085
H22   H     H_    0.259078 0.283018 0.002509 0.263591
H23   H     H_    0.195657 0.246182 0.991531 0.277571
H24   H     H_    0.214524 0.390228 0.070630 0.260958
O14   O     O_3   0.875080 0.805904 0.499632 -0.628637
C58   C     C_3   0.864166 0.842448 0.365142 0.188412
H25   H     H_    0.835148 0.913865 0.371675 0.216703
H26   H     H_    0.849187 0.764505 0.302565 0.108024
C59   C     C_3   0.908320 0.899150 0.294578 -0.397958
H27   H     H_    0.928750 0.959018 0.366484 0.248215
H28   H     H_    0.932656 0.823175 0.259252 0.201658
C60   C     C_3   0.893299 0.976845 0.172810 -0.916010
H29   H     H_    0.871579 0.918682 0.102103 0.258851
H30   H     H_    0.925932 0.011125 0.119520 0.265261
H31   H     H_    0.871523 0.058574 0.206011 0.295907
H32   H     H_    0.035818 0.778536 0.444283 0.134620
H33   H     H_    0.477956 0.112355 0.283712 0.167497
H34   H     H_    0.506707 0.888354 0.833466 0.174709
O15   O     O_3   0.573811 0.125448 0.736183 -0.619556
C61   C     C_3   0.598533 0.104617 0.612161 0.129028
H35   H     H_    0.590642 0.182885 0.542221 0.142675
H36   H     H_    0.588804 0.015383 0.561198 0.134439
C62   C     C_3   0.652757 0.103394 0.640330 -0.368690
H37   H     H_    0.663128 0.190418 0.694812 0.239276
H38   H     H_    0.661647 0.022654 0.706193 0.226308
C63   C     C_3   0.681818 0.093790 0.509220 -0.872652
H39   H     H_    0.671700 0.008235 0.451839 0.254862
H40   H     H_    0.720864 0.088912 0.533898 0.300349
H41   H     H_    0.675288 0.177035 0.444968 0.272037
H42   H     H_    0.541818 0.663641 0.127473 0.148116
H43   H     H_    0.404508 0.434095 0.118547 0.222217
O16   O     O_3   0.874237 0.123199 0.490546 -0.628729
C64   C     C_3   0.865072 0.087682 0.626287 0.182217
H44   H     H_    0.836136 0.016101 0.623108 0.213898
H45   H     H_    0.850728 0.166129 0.689380 0.109400
C65   C     C_3   0.910161 0.031629 0.693432 -0.395658
H46   H     H_    0.929482 0.969799 0.620981 0.250031
H47   H     H_    0.935066 0.107843 0.724249 0.201982
C66   C     C_3   0.896770 0.957030 0.818749 -0.917720
H48   H     H_    0.875964 0.017201 0.889643 0.258732
H49   H     H_    0.930054 0.923823 0.870063 0.265970
H50   H     H_    0.874594 0.874769 0.789963 0.294629
H51   H     H_    0.036386 0.146399 0.521033 0.135234
O17   O     O_3   0.348903 0.602985 0.715535 -0.654049
C67   C     C_3   0.337396 0.731837 0.711841 0.114787
H52   H     H_    0.337446 0.767098 0.818080 0.162839
H53   H     H_    0.300835 0.752474 0.670081 0.184944
C68   C     C_3   0.375562 0.803161 0.631523 -0.370785
H54   H     H_    0.411496 0.786386 0.677917 0.246219
H55   H     H_    0.376257 0.768804 0.524942 0.213311
C69   C     C_3   0.365136 0.943064 0.631605 -0.926709
H56   H     H_    0.328658 0.961705 0.589416 0.282048
H57   H     H_    0.392063 0.991662 0.567631 0.276832
H58   H     H_    0.367309 0.981184 0.736489 0.256979

loop_
_geom_bond_atom_site_label_1
_geom_bond_atom_site_label_2
_geom_bond_distance
_ccdc_geom_bond_type
C66   H50   1.110930 S    
O14   C58   1.416007 S    
C10   H1    1.082903 S    
C47   C48   1.528623 S    
C21   C22   1.389266 A    
C12   C15   1.407666 A    
C4    C17   1.459742 S    
O16   C64   1.415866 S    
C57   H22   1.110938 S    
O13   C55   1.416271 S    
C37   C40   1.384892 A    
C9    H17   1.081918 S    
C49   N3    1.363570 A    
C61   H35   1.109819 S    
Zn1   O7    2.010804 S    
C59   H28   1.111155 S    
N1    C11   1.425657 S    
C48   H12   1.112038 S    
C22   C23   1.406945 A    
C69   H57   1.109636 S    
C53   H14   1.111663 S    
C44   H10   1.083311 S    
C68   C69   1.526586 S    
O4    C2    1.294859 A    
C51   H13   1.081251 S    
O7    C4    1.293805 A    
C62   C63   1.525903 S    
C48   O15   1.428519 S    
O15   C61   1.417984 S    
C41   C48   1.506839 S    
C36   H51   1.076552 S    
C60   H29   1.109905 S    
C58   C59   1.535789 S    
C5    N1    1.365375 A    
N2    C27   1.360712 A    
C23   C27   1.405920 A    
C44   C45   1.405371 A    
O5    C3    1.284376 A    
C29   H3    1.083032 S    
C2    C16   1.460356 S    
C69   H56   1.110753 S    
C60   H30   1.110239 S    
C65   H46   1.109021 S    
C53   H15   1.111723 S    
C6    O11   1.350516 S    
C43   H33   1.083341 S    
C56   H21   1.110010 S    
C64   C65   1.536144 S    
C41   C42   1.389747 A    
C49   C54   1.490957 S    
C38   C39   1.387343 A    
C19   C38   1.407810 A    
O1    Zn1   1.998052 S    
C9    C10   1.385170 A    
Zn2   N3    2.010625 S    
C47   H11   1.111253 S    
C22   O16   1.381671 S    
C35   C40   1.415468 A    
O3    Zn1   2.009783 S    
C57   H23   1.110263 S    
C34   C35   1.418382 A    
C62   H38   1.111615 S    
C12   C34   1.416458 A    
C59   C60   1.521397 S    
C41   C46   1.359424 A    
C17   C29   1.404585 A    
C21   H5    1.075526 S    
C42   C43   1.402732 A    
C18   C21   1.408160 A    
C66   H48   1.109511 S    
C69   H58   1.110785 S    
C19   C20   1.417615 A    
C12   C13   1.408317 A    
C31   H9    1.082950 S    
C68   H55   1.111102 S    
C15   C37   1.394185 A    
C67   C68   1.529786 S    
C55   H18   1.111053 S    
N3    C50   1.368191 A    
C43   C44   1.385578 A    
C3    C45   1.418534 S    
C56   C57   1.526374 S    
C13   C14   1.394640 A    
C30   C31   1.388117 A    
N4    C52   1.362637 A    
C47   H34   1.111576 S    
O1    C1    1.281984 A    
C18   C20   1.418364 A    
C7    C11   1.403864 A    
C28   C29   1.389360 A    
C23   C24   1.414206 A    
C14   C36   1.387206 A    
C55   H19   1.115604 S    
C28   H4    1.082860 S    
C52   C53   1.489847 S    
Zn2   O8    2.009783 S    
C33   C36   1.416575 A    
N1    C6    1.365757 A    
N2    C32   1.422338 S    
C56   H20   1.111768 S    
C27   O10   1.348858 S    
C53   C54   1.518404 S    
C58   H26   1.115972 S    
C51   N4    1.367919 A    
C26   N2    1.360827 A    
C50   H42   1.081632 S    
O8    C4    1.293429 A    
C14   H2    1.083622 S    
C54   H43   1.111101 S    
O3    C2    1.291941 A    
C63   H40   1.109947 S    
C39   O14   1.381687 S    
C25   C26   1.403814 A    
C57   H24   1.110920 S    
C64   H44   1.110991 S    
C54   H16   1.111484 S    
C66   H49   1.110312 S    
C31   C32   1.396192 A    
C20   C24   1.420203 A    
C9    C16   1.401575 A    
Zn2   O6    1.998051 S    
O2    Zn2   2.002043 S    
C6    C15   1.396495 A    
C46   C47   1.498529 S    
O6    C3    1.282705 A    
O4    Zn2   2.010806 S    
C62   H37   1.111707 S    
C61   C62   1.527771 S    
C19   C35   1.416053 A    
C8    C16   1.411184 A    
C59   H27   1.108878 S    
C30   H8    1.083059 S    
C38   H7    1.076054 S    
C60   H31   1.110871 S    
C68   H54   1.110013 S    
C8    O17   1.387029 S    
C7    C8    1.409284 A    
C67   H53   1.115345 S    
O2    C1    1.283156 A    
C45   C46   1.389665 A    
C7    O13   1.386191 S    
C67   H52   1.110955 S    
C55   C56   1.530442 S    
C37   H6    1.083658 S    
C24   C25   1.414195 A    
C1    C42   1.415840 S    
C63   H41   1.111264 S    
C65   C66   1.521239 S    
O17   C67   1.417513 S    
C25   C39   1.406363 A    
C61   H36   1.111270 S    
C58   H25   1.110943 S    
C18   C33   1.418764 A    
C5    C13   1.399724 A    
C26   O12   1.349829 S    
C50   C51   1.419458 A    
Zn1   O5    2.002042 S    
Zn1   N4    2.010250 S    
C40   H32   1.076929 S    
C65   H47   1.111088 S    
C33   C34   1.418598 A    
C17   C30   1.404150 A    
C49   C52   1.405221 A    
C10   C11   1.394816 A    
C63   H39   1.110868 S    
C28   C32   1.396444 A    
C5    O9    1.349805 S    
C64   H45   1.115853 S    
