data_mof_unit_16244.cif
_audit_creation_date              2013-03-05T16:02:01-0500
_audit_creation_method            fapswitch 2.2
_symmetry_space_group_name_H-M    P1
_symmetry_Int_Tables_number       1
_space_group_crystal_system       triclinic
_cell_length_a                    6.94679
_cell_length_b                    17.859891
_cell_length_c                    19.240392
_cell_angle_alpha                 108.267402
_cell_angle_beta                  88.947327
_cell_angle_gamma                 90.532219
_cell_volume                      2266.43415384

loop_
_atom_site_label
_atom_site_type_symbol
_atom_site_description
_atom_site_fract_x
_atom_site_fract_y
_atom_site_fract_z
_atom_type_partial_charge
O1    O     O_R   0.494330 0.415720 0.413720 -0.588469
O2    O     O_R   0.819330 0.430070 0.560210 -0.608105
O3    O     O_R   0.994320 0.584280 0.586280 -0.605665
C1    C     C_R   0.649822 0.415830 0.582490 0.930895
O4    O     O_R   0.823730 0.406300 0.412670 -0.545640
O5    O     O_R   0.998760 0.560340 0.437690 -0.538295
C2    C     C_R   0.657625 0.387783 0.381420 1.093056
O6    O     O_R   0.489890 0.439660 0.562310 -0.610044
O7    O     O_3   0.662340 0.550560 0.508380 -0.238221
V1    V     V_3+5 0.935370 0.490620 0.498450 1.258383
O8    O     O_R   0.328750 0.569930 0.439790 -0.582104
C3    C     C_R   0.161681 0.585056 0.418185 1.032042
O9    O     O_R   0.324340 0.593700 0.587330 -0.586961
C4    C     C_R   0.154023 0.616717 0.614966 0.904850
V2    V     V_3+5 0.435940 0.509380 0.501550 1.244013
O10   O     O_3   0.159100 0.449440 0.491620 -0.276711
C5    C     C_R   0.263254 0.602205 0.755483 -0.361743
C6    C     C_R   0.302523 0.590732 0.822700 0.298790
C7    C     C_R   0.286836 0.654492 0.887514 0.306954
C8    C     C_R   0.231116 0.728324 0.884634 -0.348656
C9    C     C_R   0.186650 0.740486 0.817665 0.086562
C10   C     C_R   0.200484 0.675916 0.751682 0.078260
C11   C     C_R   0.120993 0.814874 0.816316 -0.192099
C12   C     C_R   0.052443 0.822418 0.749860 0.051419
C13   C     C_R   0.054462 0.756835 0.684769 0.061471
C14   C     C_R   0.139832 0.684555 0.684336 -0.191835
C15   C     C_R   0.981163 0.895075 0.747198 -0.379765
C16   C     C_R   0.897452 0.902623 0.684239 0.460807
C17   C     C_R   0.878100 0.835436 0.622353 0.396618
C18   C     C_R   0.966630 0.764968 0.621766 -0.372365
H1    H     H_    0.272001 0.551496 0.706713 0.169560
H2    H     H_    0.219800 0.775682 0.935963 0.137795
H3    H     H_    0.989077 0.946993 0.794706 0.191928
H4    H     H_    0.961442 0.716020 0.571672 0.183975
C19   C     C_R   0.299545 0.627480 0.314150 -0.149439
C20   C     C_R   0.156047 0.633781 0.368269 -0.114494
C21   C     C_R   0.000747 0.684404 0.372349 -0.162436
C22   C     C_R   0.985825 0.727607 0.323258 0.166835
C23   C     C_R   0.134657 0.724109 0.271584 0.073080
C24   C     C_R   0.292660 0.673718 0.267004 0.132219
C25   C     C_R   0.822910 0.773235 0.324228 -0.138272
C26   C     C_R   0.812494 0.818894 0.277530 -0.067841
C27   C     C_R   0.967201 0.821824 0.229840 -0.039257
C28   C     C_R   0.125020 0.770892 0.224470 -0.013843
C29   C     C_R   0.274898 0.767655 0.173204 0.179544
C30   C     C_R   0.431071 0.716792 0.168657 -0.100896
C31   C     C_R   0.439489 0.669997 0.214922 -0.224162
C32   C     C_R   0.969593 0.874875 0.188328 0.495024
C33   C     C_R   0.110902 0.866783 0.132385 -0.340089
C34   C     C_R   0.264597 0.814232 0.126572 -0.100004
H5    H     H_    0.412272 0.584747 0.306878 0.153606
H6    H     H_    0.890211 0.689243 0.413434 0.175740
H7    H     H_    0.702545 0.773375 0.360911 0.184127
H8    H     H_    0.680508 0.850773 0.278482 0.207345
H9    H     H_    0.377007 0.809724 0.085612 0.156281
H10   H     H_    0.547203 0.713374 0.129421 0.165126
H11   H     H_    0.561867 0.631498 0.210472 0.174315
C35   C     C_R   0.779835 0.187774 0.871915 -0.166124
C36   C     C_R   0.621719 0.137897 0.871921 -0.123874
C37   C     C_R   0.464696 0.137682 0.826492 -0.127008
C38   C     C_R   0.467949 0.183560 0.779214 0.142240
C39   C     C_R   0.627815 0.232386 0.778506 0.041961
C40   C     C_R   0.783635 0.235131 0.825478 0.164780
C41   C     C_R   0.315076 0.180496 0.731747 -0.152556
C42   C     C_R   0.318275 0.226277 0.684693 -0.142842
C43   C     C_R   0.475585 0.275602 0.683739 0.173684
C44   C     C_R   0.632127 0.278161 0.730371 0.057651
C45   C     C_R   0.793096 0.326203 0.728773 0.146299
C46   C     C_R   0.946134 0.329450 0.776334 -0.174165
C47   C     C_R   0.941283 0.284489 0.824360 -0.186129
C48   C     C_R   0.479642 0.321876 0.636607 -0.070110
C49   C     C_R   0.641572 0.368621 0.633554 -0.083424
C50   C     C_R   0.798092 0.370142 0.679697 -0.142229
H12   H     H_    0.899983 0.189240 0.907493 0.125389
H13   H     H_    0.341688 0.099745 0.826200 0.148932
H14   H     H_    0.192409 0.142843 0.731070 0.201737
H15   H     H_    0.197465 0.223038 0.648998 0.167936
H16   H     H_    0.359241 0.319970 0.601010 0.122971
H17   H     H_    0.922755 0.406688 0.678325 0.121697
H18   H     H_    0.070627 0.366280 0.775908 0.186081
H19   H     H_    0.062168 0.287572 0.859966 0.152003
C51   C     C_R   0.680978 0.403178 0.225497 0.463917
C52   C     C_R   0.636131 0.410245 0.157042 -0.158977
C53   C     C_R   0.593895 0.344623 0.098573 -0.152175
C54   C     C_R   0.596367 0.270720 0.107198 -0.177276
C55   C     C_R   0.622040 0.261423 0.176777 0.082092
C56   C     C_R   0.652783 0.329410 0.239524 -0.050070
C57   C     C_R   0.607682 0.185337 0.183951 -0.215353
C58   C     C_R   0.581668 0.178430 0.254711 0.067566
C59   C     C_R   0.622238 0.243141 0.317526 0.055289
C60   C     C_R   0.653138 0.319699 0.311457 -0.232274
C61   C     C_R   0.500382 0.109944 0.264693 -0.283109
C62   C     C_R   0.485781 0.100243 0.334284 0.477992
C63   C     C_R   0.570300 0.157278 0.394024 0.452748
C64   C     C_R   0.628519 0.229451 0.385990 -0.401654
H20   H     H_    0.646703 0.466475 0.146961 0.183273
H21   H     H_    0.567254 0.350719 0.045327 0.163319
H22   H     H_    0.569074 0.221211 0.058930 0.100993
H23   H     H_    0.439426 0.065478 0.218443 0.205950
H24   H     H_    0.679483 0.274846 0.433806 0.171707
O11   O     O_R   0.775200 0.060470 0.937800 -0.595782
O12   O     O_R   0.441110 0.093720 0.087350 -0.611751
O13   O     O_R   0.266330 0.939630 0.062280 -0.589468
C65   C     C_R   0.606847 0.114194 0.117060 1.007040
O14   O     O_R   0.445750 0.069950 0.939820 -0.612793
O15   O     O_R   0.271000 0.915700 0.913700 -0.594180
C66   C     C_R   0.615318 0.086398 0.919381 0.936131
O16   O     O_R   0.770530 0.084400 0.086380 -0.541323
O17   O     O_3   0.602830 0.949510 0.991680 -0.264520
V3    V     V_3+5 0.329710 0.009370 0.001550 1.207061
O18   O     O_R   0.940990 0.906170 0.912570 -0.597294
C67   C     C_R   0.110734 0.883265 0.885127 0.914438
O19   O     O_R   0.936350 0.929940 0.060100 -0.546235
C68   C     C_R   0.104257 0.914799 0.081675 1.059030
V4    V     V_3+5 0.829160 0.990450 0.998310 1.249586
O20   O     O_3   0.105910 0.050480 0.008320 -0.279787
S1    S     S_3+6 0.743695 0.835060 0.544735 -0.004148
O21   O     O_2   0.876272 0.856391 0.491286 -0.224109
O22   O     O_2   0.662363 0.754025 0.509312 -0.367826
O23   O     O_3   0.559364 0.898921 0.565690 -0.411739
H25   H     H_    0.462870 0.874905 0.590909 0.355275
S2    S     S_3+6 0.825872 0.960940 0.217525 -0.026292
O24   O     O_2   0.635569 0.942295 0.180110 -0.310970
O25   O     O_2   0.795389 0.984998 0.299010 -0.227211
O26   O     O_3   0.930669 0.037215 0.197552 -0.547466
H26   H     H_    0.011403 0.063942 0.240184 0.369245
S3    S     S_3+6 0.613958 0.139594 0.477917 0.034568
O27   O     O_2   0.726949 0.206276 0.527955 -0.334090
O28   O     O_2   0.425595 0.130801 0.514347 -0.255437
O29   O     O_3   0.744556 0.056932 0.461840 -0.377663
H27   H     H_    0.695639 0.031420 0.497541 0.425204
S4    S     S_3+6 0.819175 0.481241 0.280995 -0.095421
O30   O     O_2   0.996719 0.447405 0.302884 -0.300117
O31   O     O_2   0.880286 0.536425 0.239431 -0.348573
O32   O     O_3   0.687998 0.531060 0.354853 -0.556989
H28   H     H_    0.696550 0.586961 0.357186 0.347393
N1    N     N_R   0.347700 0.513142 0.824723 0.246843
O33   O     O_R   0.279365 0.487932 0.876804 -0.348092
O34   O     O_R   0.442291 0.464574 0.770716 -0.453848
S5    S     S_3+6 0.345989 0.020662 0.344971 0.052490
O35   O     O_2   0.169789 0.053527 0.390349 -0.194126
O36   O     O_2   0.285144 0.968258 0.271392 -0.326685
O37   O     O_3   0.467464 0.965784 0.385976 -0.435661
H29   H     H_    0.381310 0.920655 0.383957 0.375662
N2    N     N_R   0.325733 0.644999 0.957034 0.248920
O38   O     O_R   0.490179 0.617044 0.968568 -0.354222
O39   O     O_R   0.193606 0.661860 0.008252 -0.396260
S6    S     S_3+6 0.826204 0.997841 0.685778 -0.008691
O40   O     O_2   0.612116 0.005780 0.697432 -0.276274
O41   O     O_2   0.923799 0.058240 0.747577 -0.376360
O42   O     O_3   0.889065 0.013721 0.606815 -0.430098
H30   H     H_    0.875587 0.071361 0.616926 0.380552

loop_
_geom_bond_atom_site_label_1
_geom_bond_atom_site_label_2
_geom_bond_distance
_ccdc_geom_bond_type
O11   C66   1.304039 A    
C24   C31   1.403891 A    
O14   V3    1.996323 S    
C62   C63   1.408263 A    
C56   C60   1.447836 A    
C38   C41   1.402891 A    
C25   C26   1.392944 A    
O18   C67   1.298953 A    
S6    O42   1.680118 S    
C65   O16   1.309267 A    
C1    O6    1.301719 A    
N2    O38   1.301117 A    
O32   H28   0.986537 S    
O15   C67   1.299293 A    
C54   C55   1.414301 A    
C15   H3    1.080691 S    
C11   C67   1.494738 S    
N1    O34   1.297844 A    
C21   C22   1.400084 A    
C39   C44   1.414277 A    
O13   V3    1.998463 S    
C53   H21   1.083006 S    
O16   V4    2.014340 S    
C20   C21   1.399280 A    
S6    O41   1.499682 D    
S1    O22   1.502975 D    
C32   S2    1.772483 S    
C22   C23   1.409201 A    
C55   C57   1.410716 A    
C63   S3    1.771034 S    
V2    O10   2.174409 S    
C13   C18   1.414928 A    
C6    C7    1.403855 A    
C47   H19   1.083593 S    
C54   H22   1.081123 S    
C57   C65   1.498619 S    
O8    V2    1.997253 S    
C53   C54   1.381237 A    
C19   C20   1.407511 A    
C45   C46   1.404395 A    
C11   C12   1.418243 A    
S5    O37   1.679222 S    
O1    V2    2.008398 S    
C3    C20   1.485656 S    
C27   C32   1.417592 A    
C38   C39   1.408148 A    
C43   C44   1.413810 A    
C36   C37   1.409517 A    
O1    C2    1.308517 A    
O9    C4    1.304018 A    
C46   C47   1.401185 A    
N2    O39   1.300050 A    
C8    H2    1.082427 S    
C5    C6    1.403250 A    
C50   H17   1.084499 S    
C16   S6    1.766730 S    
C42   H15   1.083843 S    
C18   H4    1.080259 S    
C19   C24   1.406785 A    
C44   C45   1.408906 A    
C59   C64   1.414605 A    
O13   C68   1.297147 A    
C12   C13   1.421502 A    
C22   C25   1.397170 A    
O17   V3    2.162398 S    
S1    O23   1.680180 S    
C23   C24   1.409814 A    
O4    C2    1.302347 A    
C21   H6    1.076140 S    
C64   H24   1.080781 S    
S4    O30   1.502068 D    
C35   C36   1.407798 A    
C29   C30   1.405306 A    
C17   S1    1.773947 S    
C36   C66   1.485275 S    
C37   C38   1.401954 A    
C6    N1    1.436191 S    
O2    C1    1.295868 A    
C27   C28   1.412623 A    
S3    O28   1.503220 D    
C43   C48   1.405212 A    
C17   C18   1.402671 A    
C31   H11   1.083572 S    
O14   C66   1.295180 A    
C52   C53   1.380001 A    
C40   C47   1.403561 A    
O42   H30   0.990920 S    
C12   C15   1.409342 A    
C2    C60   1.505416 S    
C4    C14   1.497575 S    
C39   C40   1.413538 A    
C51   C56   1.436365 A    
C41   H14   1.078345 S    
C13   C14   1.423205 A    
C7    N2    1.430813 S    
S5    O35   1.502614 D    
C58   C61   1.407938 A    
O12   C65   1.292820 A    
C25   H7    1.083771 S    
O3    C4    1.296595 A    
S4    O31   1.504997 D    
C32   C33   1.417520 A    
C51   C52   1.402773 A    
O6    V2    1.998743 S    
C9    C11   1.416714 A    
C19   H5    1.074901 S    
O26   H26   0.990804 S    
C5    H1    1.081940 S    
O12   V3    2.014895 S    
C26   C27   1.411571 A    
S2    O25   1.501546 D    
S3    O27   1.500973 D    
O2    V1    1.996369 S    
V3    O20   1.710826 S    
C1    C49   1.481842 S    
C28   C29   1.409953 A    
C35   H12   1.084089 S    
O19   C68   1.303842 A    
O7    V1    2.162430 S    
C35   C40   1.409535 A    
C30   C31   1.401235 A    
C16   C17   1.408156 A    
C8    C9    1.412160 A    
C55   C56   1.436372 A    
C34   H9    1.084492 S    
S5    O36   1.497596 D    
C49   C50   1.411020 A    
O5    V1    1.998638 S    
O8    C3    1.298732 A    
S2    O24   1.501098 D    
C23   C28   1.415059 A    
N1    O33   1.301387 A    
C37   H13   1.084599 S    
C5    C10   1.414477 A    
C41   C42   1.397025 A    
C7    C8    1.395615 A    
O9    V2    2.002344 S    
O29   H27   0.989768 S    
C45   C50   1.404068 A    
S3    O29   1.681257 S    
C48   C49   1.405952 A    
C62   S5    1.776425 S    
V1    O10   1.710813 S    
S1    O21   1.501740 D    
C26   H8    1.080605 S    
O5    C3    1.302143 A    
C59   C60   1.422311 A    
C29   C34   1.404798 A    
S2    O26   1.683125 S    
S4    O32   1.678184 S    
O11   V4    1.999327 S    
C52   H20   1.082476 S    
C61   C62   1.404706 A    
C33   C68   1.488754 S    
S6    O40   1.501321 D    
C42   C43   1.400754 A    
O7    V2    1.719667 S    
C63   C64   1.400681 A    
O17   V4    1.717692 S    
O4    V1    2.015060 S    
C57   C58   1.413247 A    
O15   V3    2.015443 S    
C33   C34   1.407760 A    
C10   C14   1.423702 A    
C30   H10   1.083572 S    
C15   C16   1.397659 A    
O3    V1    2.015469 S    
O23   H25   0.990933 S    
C46   H18   1.083149 S    
O18   V4    2.002149 S    
V4    O20   2.174516 S    
C58   C59   1.416564 A    
C9    C10   1.425014 A    
C51   S4    1.756458 S    
C48   H16   1.084300 S    
O37   H29   0.990748 S    
C61   H23   1.080020 S    
O19   V4    1.997176 S    
