data_mof_unit_68261.cif
_audit_creation_date              2012-12-11T14:19:29-0500
_audit_creation_method            fapswitch 2.2
_symmetry_space_group_name_H-M    P1
_symmetry_Int_Tables_number       1
_space_group_crystal_system       triclinic
_cell_length_a                    8.29759
_cell_length_b                    12.895289
_cell_length_c                    14.893594
_cell_angle_alpha                 94.264254
_cell_angle_beta                  99.25251
_cell_angle_gamma                 97.677793
_cell_volume                      1551.27698123

loop_
_atom_site_label
_atom_site_type_symbol
_atom_type_description
_atom_site_fract_x
_atom_site_fract_y
_atom_site_fract_z
_atom_type_partial_charge
Ba1   Ba    Ba6+2 0.153570 0.551840 0.456200 1.726418
Ba2   Ba    Ba6+2 0.656590 0.448150 0.543720 1.726256
C1    C     C_3   0.407376 0.913022 0.123355 -0.370782
C2    C     C_R   0.725571 0.815044 0.462556 -0.267336
C3    C     C_R   0.684566 0.989766 0.419866 0.097806
C4    C     C_3   0.914380 0.818870 0.187871 0.325332
C5    C     C_R   0.623736 0.882643 0.420937 -0.010350
C6    C     C_R   0.886340 0.850482 0.509516 0.045430
C7    C     C_R   0.949200 0.961638 0.513891 -0.070130
C8    C     C_R   0.847562 0.033475 0.469548 -0.039933
C9    C     C_R   0.915572 0.144687 0.478975 0.071351
C10   C     C_R   0.177148 0.110076 0.562019 0.076989
C11   C     C_R   0.112133 0.002959 0.559995 -0.056873
C12   C     C_3   0.400225 0.824317 0.187274 0.837336
C13   C     C_R   0.234889 0.461259 0.764298 -0.234883
C14   C     C_R   0.140545 0.418729 0.825423 0.089951
C15   C     C_R   0.208793 0.422660 0.917927 -0.119646
C16   C     C_3   0.809077 0.855538 0.106076 -0.378024
C17   C     C_R   0.371256 0.475067 0.951546 0.021452
C18   C     C_R   0.458832 0.523828 0.888472 -0.124332
C19   C     C_R   0.391285 0.516649 0.796617 0.007192
C20   C     C_R   0.604934 0.542399 0.083697 -0.116677
C21   C     C_R   0.662228 0.568520 0.176707 0.036551
C22   C     C_R   0.414780 0.474029 0.210934 0.013215
C23   C     C_3   0.631558 0.775500 0.686783 0.291355
C24   C     C_R   0.350816 0.452810 0.117852 -0.100663
C25   C     C_R   0.443768 0.488154 0.051561 0.048423
C26   C     C_R   0.565901 0.537017 0.240344 -0.203808
C27   C     C_3   0.704802 0.312809 0.268739 0.394977
C28   C     C_3   0.714104 0.302411 0.166398 0.229941
C29   C     C_3   0.120887 0.706264 0.735526 0.672821
C30   C     C_3   0.219481 0.761927 0.825400 -0.224725
C31   C     C_3   0.161614 0.227890 0.211216 0.504756
C32   C     C_3   0.252201 0.189151 0.136967 -0.422620
C33   C     C_3   0.558800 0.870021 0.651572 -0.412282
C34   C     C_3   0.906429 0.161684 0.759713 0.643899
C35   C     C_3   0.850583 0.054777 0.790829 -0.336068
C36   C     C_3   0.468484 0.224071 0.789914 0.318968
C37   C     C_3   0.498337 0.195708 0.888096 -0.367804
C38   C     C_R   0.076963 0.178675 0.524049 -0.210391
H1    H     H_    0.615930 0.339313 0.127317 -0.080460
H2    H     H_    0.320083 0.125115 0.159797 0.155645
H3    H     H_    0.341804 0.252573 0.120233 0.051742
H4    H     H_    0.443981 0.885966 0.057996 0.097882
H5    H     H_    0.755066 0.803235 0.728459 0.077643
H6    H     H_    0.646849 0.723301 0.626751 0.022939
H7    H     H_    0.511529 0.913676 0.706390 0.147592
H8    H     H_    0.653438 0.923594 0.626004 0.065301
H9    H     H_    0.455882 0.843410 0.594385 0.146303
H10   H     H_    0.500273 0.981427 0.152452 0.124264
H11   H     H_    0.700426 0.795063 0.078976 0.147461
H12   H     H_    0.833100 0.344865 0.155640 0.092754
H13   H     H_    0.839854 0.163895 0.688976 0.055626
H14   H     H_    0.884616 0.991641 0.745875 0.083015
H15   H     H_    0.910930 0.049814 0.862277 0.110187
H16   H     H_    0.715201 0.043250 0.788077 0.107299
H17   H     H_    0.362781 0.268677 0.780885 0.021397
H18   H     H_    0.578657 0.275965 0.778241 0.103450
H19   H     H_    0.517437 0.268170 0.936073 0.087778
H20   H     H_    0.609754 0.156394 0.900741 0.160629
H21   H     H_    0.028362 0.875948 0.205876 0.132711
H22   H     H_    0.390797 0.141921 0.901663 0.108393
H23   H     H_    0.207830 0.674035 0.695532 -0.031168
H24   H     H_    0.191056 0.952755 0.594274 0.095362
H25   H     H_    0.127852 0.261062 0.528361 0.052566
H26   H     H_    0.675875 0.732877 0.460991 0.066091
H27   H     H_    0.691348 0.563127 0.039033 0.084308
H28   H     H_    0.130847 0.386252 0.961449 0.071761
H29   H     H_    0.228359 0.409494 0.099713 0.056514
H30   H     H_    0.577333 0.571909 0.908271 0.084461
H31   H     H_    0.615037 0.553466 0.312624 0.049656
H32   H     H_    0.858526 0.818014 0.250461 0.026636
H33   H     H_    0.182641 0.457172 0.692491 0.051580
H34   H     H_    0.309258 0.828391 0.811920 0.080182
H35   H     H_    0.767192 0.930708 0.125785 0.136900
H36   H     H_    0.882947 0.868163 0.050839 0.132277
H37   H     H_    0.574167 0.302411 0.276899 -0.010726
H38   H     H_    0.767139 0.392141 0.299058 -0.067226
H39   H     H_    0.584734 0.167065 0.120017 0.307377
H40   H     H_    0.976841 0.574342 0.701055 0.306246
H41   H     H_    0.623768 0.868929 0.246639 0.260609
H42   H     H_    0.130768 0.176727 0.824425 0.285981
H43   H     H_    0.287480 0.706434 0.864266 0.075869
H44   H     H_    0.135311 0.793481 0.867960 0.119822
H45   H     H_    0.072950 0.278996 0.183030 0.029570
H46   H     H_    0.284296 0.938778 0.107456 0.120018
H47   H     H_    0.162224 0.158823 0.073945 0.107629
I1    I     I_    0.269652 0.694565 0.097866 -0.421558
I2    I     I_    0.025634 0.093705 0.251731 -0.459523
I3    I     I_    0.512181 0.064195 0.330325 -0.381439
O1    O     O_2   0.168170 0.764170 0.543850 -0.484242
O2    O     O_2   0.810871 0.434973 0.824094 -0.463589
O3    O     O_3   0.867494 0.240734 0.819664 -0.639667
O4    O     O_3   0.898670 0.629780 0.545890 -0.503422
O5    O     O_3   0.409490 0.443300 0.392340 -0.461936
O6    O     O_2   0.674250 0.555830 0.719690 -0.425252
O7    O     O_3   0.530465 0.727434 0.743842 -0.654478
O8    O     O_2   0.519589 0.116341 0.568214 -0.480081
O9    O     O_3   0.438379 0.132109 0.729027 -0.610535
O10   O     O_3   0.365980 0.695510 0.380810 -0.450818
O11   O     O_2   0.289911 0.875298 0.430895 -0.455627
O12   O     O_3   0.272336 0.274075 0.290133 -0.596699
O13   O     O_3   0.038422 0.779959 0.689700 -0.663469
O14   O     O_3   0.311408 0.848638 0.258649 -0.571808
O15   O     O_2   0.136040 0.444100 0.280280 -0.459711
O16   O     O_3   0.934510 0.640480 0.335500 -0.475714
O17   O     O_2   0.967741 0.533160 0.181413 -0.465199
O18   O     O_3   0.703206 0.197061 0.131745 -0.687264
O19   O     O_3   0.005531 0.626041 0.755787 -0.726414
O20   O     O_3   0.557444 0.801151 0.219471 -0.802269
O21   O     O_3   0.076591 0.172750 0.759552 -0.798424
O22   O     O_3   0.960312 0.723290 0.160305 -0.551997
O23   O     O_2   0.642110 0.235770 0.456130 -0.434256
O24   O     O_3   0.911620 0.370210 0.454030 -0.493874
O25   O     O_3   0.444310 0.304480 0.619110 -0.494755
O26   O     O_3   0.779703 0.233340 0.309476 -0.563397
O27   O     O_3   0.400800 0.556680 0.607590 -0.482065
O28   O     O_3   0.875770 0.359510 0.664420 -0.504100
P1    P     P_3+3 0.998660 0.747790 0.570900 0.956665
P2    P     P_3+3 0.306970 0.411860 0.294270 1.006090
P3    P     P_3+3 0.877497 0.620324 0.216060 1.015222
P4    P     P_3+3 0.811620 0.252200 0.429030 1.059031
P5    P     P_3+3 0.923758 0.364648 0.783473 0.980431
P6    P     P_3+3 0.402710 0.827394 0.371172 1.068488
P7    P     P_3+3 0.500136 0.590642 0.720010 0.960048
P8    P     P_3+3 0.393198 0.166353 0.616816 0.992671

loop_
_geom_bond_atom_site_label_1
_geom_bond_atom_site_label_2
_ccdc_geom_bond_type
C16   H35   S    
C17   C18   A    
C32   H2    S    
C5    P6    S    
C2    C6    A    
C33   H7    S    
H41   O20   S    
Ba2   O28   S    
C21   P3    S    
C4    H32   S    
C24   C25   A    
O25   P8    S    
O26   P4    S    
C26   H31   S    
C4    H21   S    
C34   C35   S    
C14   P5    S    
C22   C24   A    
C30   H34   S    
C36   C37   S    
Ba2   O23   S    
C10   P8    S    
C13   C14   A    
Ba1   Ba2   S    
O4    P1    S    
C37   H22   S    
C7    C11   A    
C31   H45   S    
C34   H13   S    
C36   H18   S    
C35   H16   S    
C34   O3    S    
Ba2   O27   S    
C27   H38   S    
Ba1   O4    S    
H40   O19   S    
C33   H9    S    
O6    P7    D    
O15   P2    D    
C17   C25   S    
C7    C8    A    
C3    I3    S    
Ba1   O16   S    
C32   H47   S    
C29   O13   S    
Ba1   O1    S    
C1    H46   S    
C18   H30   S    
C2    C5    A    
C4    C16   S    
C33   H8    S    
Ba1   O10   S    
C1    H10   S    
C16   H11   S    
O9    P8    S    
Ba2   P4    S    
C30   H44   S    
C1    H4    S    
C22   P2    S    
O11   P6    D    
O23   P4    D    
C31   O12   S    
C29   H23   S    
Ba2   O4    S    
O7    P7    S    
O2    P5    D    
C3    C5    A    
C6    C7    A    
O10   P6    S    
Ba1   P2    S    
C35   H15   S    
C10   C38   A    
Ba1   P1    S    
C27   C28   S    
C31   I2    S    
C36   H17   S    
Ba2   O25   S    
C12   O14   S    
C29   C30   S    
C13   C19   A    
Ba1   O5    S    
C37   H19   S    
C34   O21   S    
C31   C32   S    
C29   O19   S    
C28   H1    S    
Ba1   O27   S    
C21   C26   A    
C10   C11   A    
C1    C12   S    
C23   C33   S    
C35   H14   S    
C23   O7    S    
C13   H33   S    
C27   O26   S    
C20   C25   A    
O1    P1    D    
C9    P4    S    
Ba1   O24   S    
O17   P3    D    
C19   P7    S    
C23   H5    S    
O12   P2    S    
C22   C26   A    
C12   O20   S    
C30   H43   S    
C28   H12   S    
Ba2   O5    S    
C15   H28   S    
C16   H36   S    
O22   P3    S    
C28   O18   S    
C4    O22   S    
O13   P1    S    
C32   H3    S    
O3    P5    S    
C36   O9    S    
O14   P6    S    
O5    P2    S    
C38   H25   S    
H42   O21   S    
Ba2   O6    S    
C12   I1    S    
C3    C8    A    
C2    H26   S    
Ba2   O24   S    
C14   C15   A    
C11   H24   S    
C37   H20   S    
O16   P3    S    
C15   C17   A    
H39   O18   S    
O28   P5    S    
C9    C38   A    
C20   H27   S    
C8    C9    A    
O24   P4    S    
O8    P8    D    
C27   H37   S    
C18   C19   A    
C24   H29   S    
C20   C21   A    
O27   P7    S    
C23   H6    S    
C6    P1    S    
Ba1   O15   S    
