data_mof_unit_60015.cif
_audit_creation_date              2012-12-10T16:49:16-0500
_audit_creation_method            fapswitch 2.2
_symmetry_space_group_name_H-M    P1
_symmetry_Int_Tables_number       1
_space_group_crystal_system       triclinic
_cell_length_a                    18.839187
_cell_length_b                    18.792558
_cell_length_c                    18.879035
_cell_angle_alpha                 109.757148
_cell_angle_beta                  109.724638
_cell_angle_gamma                 109.456292
_cell_volume                      5111.64091565

loop_
_atom_site_label
_atom_site_type_symbol
_atom_type_description
_atom_site_fract_x
_atom_site_fract_y
_atom_site_fract_z
_atom_type_partial_charge
Br1   Br    Br    0.655796 0.810662 0.700114 -0.426278
Br2   Br    Br    0.314851 0.254030 0.189500 -0.483888
Br3   Br    Br    0.909584 0.928444 0.694348 -0.395531
Br4   Br    Br    0.868833 0.181800 0.439858 -0.522344
Br5   Br    Br    0.805334 0.934877 0.195445 -0.454660
Br6   Br    Br    0.457136 0.727280 0.949647 -0.380072
Br7   Br    Br    0.273255 0.132341 0.484605 -0.510677
Br8   Br    Br    0.421960 0.416264 0.692970 -0.416128
C1    C     C_R   0.380023 0.382383 0.501227 0.795929
C2    C     C_2   0.309768 0.321925 0.503855 0.236635
C3    C     C_2   0.418354 0.169476 0.176624 0.489735
C4    C     C_R   0.502787 0.621880 0.619486 0.936224
C5    C     C_2   0.490907 0.184918 0.171472 -0.461628
C6    C     C_2   0.417922 0.244959 0.234177 0.191589
C7    C     C_2   0.488315 0.301523 0.314766 -0.482193
C8    C     C_2   0.828348 0.822274 0.582432 0.202517
C9    C     C_2   0.826599 0.812364 0.507973 -0.483093
C10   C     C_2   0.768431 0.745879 0.579266 0.502984
C11   C     C_2   0.685433 0.696972 0.512075 -0.444695
C12   C     C_R   0.439615 0.658004 0.710452 -0.028189
C13   C     C_R   0.380691 0.995359 0.876082 0.985882
C14   C     C_R   0.505857 0.876593 0.883925 0.921271
C15   C     C_R   0.618963 0.000100 0.119076 0.961189
C16   C     C_R   0.619539 0.621974 0.502996 0.991378
C17   C     C_R   0.497781 0.117105 0.114087 0.982778
C18   C     C_R   0.886088 0.005339 0.381118 0.910041
C19   C     C_R   0.125106 0.118737 0.506481 0.853210
C20   C     C_R   0.115935 0.996494 0.618771 0.959341
C21   C     C_R   0.883880 0.880608 0.502434 1.003921
C22   C     C_2   0.170776 0.914177 0.675297 0.533828
C23   C     C_R   0.501732 0.685397 0.685866 -0.095030
C24   C     C_2   0.172532 0.989509 0.686761 -0.374533
C25   C     C_2   0.233915 0.919719 0.752475 -0.306103
C26   C     C_2   0.315809 0.987454 0.801382 -0.375549
C27   C     C_2   0.820385 0.083719 0.326535 0.206141
C28   C     C_R   0.496677 0.377003 0.379812 0.986025
C29   C     C_2   0.835735 0.016251 0.312003 0.018659
C30   C     C_2   0.759900 0.082084 0.252359 -0.154310
C31   C     C_2   0.682085 0.009400 0.195628 -0.279375
C32   C     C_R   0.366551 0.572412 0.659558 -0.347596
C33   C     C_R   0.306368 0.545815 0.686457 0.410839
C34   C     C_R   0.569641 0.772093 0.732014 0.229884
C35   C     C_R   0.327534 0.600948 0.771270 0.431353
C36   C     C_R   0.405222 0.682526 0.825442 0.165357
C37   C     C_R   0.452784 0.717238 0.789280 -0.043480
C38   C     C_3   0.224558 0.222211 0.353857 0.105024
C39   C     C_3   0.133877 0.140647 0.289608 -0.298155
C40   C     C_3   0.129852 0.080899 0.208226 -0.892771
C41   C     C_3   0.307561 0.056926 0.166014 0.113572
C42   C     C_3   0.355132 0.015926 0.205501 -0.390167
C43   C     C_3   0.316112 0.981049 0.253648 -0.889163
C44   C     C_3   0.865314 0.717795 0.662412 0.129520
C45   C     C_R   0.572827 0.833427 0.800288 -0.194879
C46   C     C_3   0.834270 0.621966 0.601511 -0.369504
C47   C     C_3   0.910693 0.605418 0.618281 -0.960770
C48   C     C_3   0.109766 0.760717 0.590685 0.089561
C49   C     C_3   0.184378 0.752002 0.580118 -0.314528
C50   C     C_3   0.186671 0.673092 0.584526 -0.999360
C51   C     C_3   0.185862 0.439701 0.549303 0.016598
C52   C     C_3   0.094423 0.361493 0.504621 -0.258316
C53   C     C_3   0.043105 0.330997 0.407846 -0.894721
C54   C     C_3   0.201540 0.581202 0.772596 0.116234
C55   C     C_3   0.223089 0.675734 0.825071 -0.370884
C56   C     C_R   0.512869 0.807754 0.827165 -0.112158
C57   C     C_3   0.141388 0.683556 0.795770 -0.977712
C58   C     C_2   0.245986 0.266927 0.578614 -0.161138
C59   C     C_2   0.209735 0.180701 0.526304 0.111340
C60   C     C_2   0.319679 0.328270 0.580406 0.256458
H1    H     H_    0.546036 0.251256 0.207361 0.134193
H2    H     H_    0.662564 0.955707 0.208269 0.189550
H3    H     H_    0.621392 0.901647 0.831142 0.200980
H4    H     H_    0.215723 0.293050 0.611835 0.184293
H5    H     H_    0.274411 0.201554 0.366728 0.158927
H6    H     H_    0.236652 0.262668 0.323256 0.192319
H7    H     H_    0.116778 0.103336 0.321824 0.258093
H8    H     H_    0.084783 0.160927 0.270105 0.228086
H9    H     H_    0.148620 0.116963 0.175614 0.290261
H10   H     H_    0.062255 0.024519 0.161722 0.284003
H11   H     H_    0.174261 0.055297 0.226073 0.256577
H12   H     H_    0.540883 0.287803 0.336661 0.141835
H13   H     H_    0.237935 0.005546 0.118484 0.179865
H14   H     H_    0.307614 0.108153 0.217458 0.142192
H15   H     H_    0.349901 0.961208 0.152646 0.248090
H16   H     H_    0.425409 0.065757 0.252202 0.223129
H17   H     H_    0.322167 0.035115 0.307902 0.282439
H18   H     H_    0.351609 0.951613 0.281352 0.279288
H19   H     H_    0.246075 0.929994 0.208076 0.265018
H20   H     H_    0.898638 0.732926 0.730970 0.184244
H21   H     H_    0.915427 0.762263 0.655406 0.138328
H22   H     H_    0.787425 0.578587 0.612157 0.251493
H23   H     H_    0.786136 0.747968 0.449193 0.137365
H24   H     H_    0.800444 0.605210 0.532396 0.210561
H25   H     H_    0.957701 0.646892 0.606488 0.254134
H26   H     H_    0.886176 0.535608 0.573430 0.279217
H27   H     H_    0.944652 0.620195 0.686621 0.274145
H28   H     H_    0.047264 0.704018 0.532054 0.164917
H29   H     H_    0.107147 0.754652 0.646348 0.116271
H30   H     H_    0.174997 0.744270 0.516048 0.233674
H31   H     H_    0.248497 0.811601 0.631868 0.230496
H32   H     H_    0.199980 0.681513 0.649631 0.261267
H33   H     H_    0.239520 0.667002 0.574242 0.272649
H34   H     H_    0.663801 0.714836 0.463029 0.140716
H35   H     H_    0.123453 0.611982 0.533180 0.266729
H36   H     H_    0.218558 0.420100 0.513616 0.185216
H37   H     H_    0.179281 0.495124 0.544868 0.134232
H38   H     H_    0.099419 0.306391 0.510857 0.246897
H39   H     H_    0.058794 0.380199 0.536963 0.235299
H40   H     H_    0.035943 0.384551 0.399810 0.254819
H41   H     H_    0.977062 0.274189 0.376729 0.285885
H42   H     H_    0.077020 0.310493 0.374128 0.277434
H43   H     H_    0.151540 0.537735 0.780229 0.190237
H44   H     H_    0.171135 0.558711 0.701505 0.128487
H45   H     H_    0.355838 0.526317 0.598805 0.165531
H46   H     H_    0.252929 0.697165 0.895669 0.255848
H47   H     H_    0.270596 0.720142 0.815861 0.220380
H48   H     H_    0.110604 0.662487 0.725299 0.261296
H49   H     H_    0.159345 0.752802 0.833593 0.275802
H50   H     H_    0.093608 0.642388 0.807138 0.276904
H51   H     H_    0.212349 0.047761 0.751490 0.142267
H52   H     H_    0.214698 0.869196 0.768958 0.180657
H53   H     H_    0.337397 0.035729 0.782615 0.170751
H54   H     H_    0.777344 0.140080 0.246289 0.177970
O1    O     O_R   0.460610 0.409240 0.550770 -0.581630
O2    O     O_R   0.909530 0.949160 0.358700 -0.584288
O3    O     O_R   0.090460 0.141840 0.551380 -0.633661
O4    O     O_R   0.358470 0.409870 0.449260 -0.631084
O5    O     O_R   0.090460 0.039050 0.448590 -0.588857
O6    O     O_R   0.090470 0.050840 0.641300 -0.615679
O7    O     O_R   0.090460 0.948050 0.538510 -0.570063
O8    O     O_R   0.909540 0.960950 0.551410 -0.566883
O9    O     O_R   0.909540 0.858160 0.448620 -0.624179
O10   O     O_R   0.551070 0.590720 0.641790 -0.571458
O11   O     O_R   0.448930 0.591350 0.540280 -0.637120
O12   O     O_R   0.358520 0.946380 0.906940 -0.615405
O13   O     O_R   0.641530 0.590130 0.550740 -0.587080
O14   O     O_R   0.539390 0.590760 0.449230 -0.617538
O15   O     O_R   0.551070 0.408650 0.459720 -0.637441
O16   O     O_R   0.448930 0.409280 0.358210 -0.566405
O17   O     O_R   0.460650 0.048500 0.906910 -0.616882
O18   O     O_3   0.225520 0.269741 0.430784 -0.668091
O19   O     O_3   0.342746 0.087639 0.119840 -0.589988
O20   O     O_3   0.793410 0.731465 0.649000 -0.566563
O21   O     O_3   0.111314 0.837527 0.593560 -0.624995
O22   O     O_3   0.233199 0.462288 0.637217 -0.614543
O23   O     O_R   0.551120 0.956920 0.905770 -0.624380
O24   O     O_3   0.276040 0.572447 0.804534 -0.570681
O25   O     O_R   0.449000 0.854790 0.905800 -0.614427
O26   O     O_R   0.641600 0.047410 0.086710 -0.618346
O27   O     O_R   0.539480 0.945290 0.086740 -0.598830
O28   O     O_R   0.551130 0.138990 0.087850 -0.629994
O29   O     O_R   0.449000 0.036870 0.087880 -0.590956
O30   O     O_R   0.909540 0.051950 0.461490 -0.580543
Zn1   Zn    Zn3+2 0.568200 0.499580 0.567780 1.051008
Zn2   Zn    Zn3+2 0.431800 0.500420 0.432220 1.021675
Zn3   Zn    Zn3+2 0.568250 0.065080 0.996810 1.004704
Zn4   Zn    Zn3+2 0.431870 0.928710 0.996840 1.000327
Zn5   Zn    Zn3+2 0.000000 0.068630 0.568630 1.081863
Zn6   Zn    Zn3+2 1.000000 0.931370 0.431370 1.061718

loop_
_geom_bond_atom_site_label_1
_geom_bond_atom_site_label_2
_ccdc_geom_bond_type
C41   H14   S    
C58   C60   S    
C55   C57   S    
C23   C34   A    
Br5   C29   S    
C9    C21   S    
C7    C28   S    
C9    H23   S    
C47   H25   S    
C53   H41   S    
C43   H17   S    
C42   H16   S    
C51   H37   S    
C2    O18   S    
O8    Zn5   S    
C51   H36   S    
C40   H11   S    
C27   C29   D    
O27   Zn4   S    
C39   H8    S    
C46   H22   S    
C34   C45   A    
O1    Zn1   S    
C30   C31   D    
C12   C32   A    
C11   H34   S    
O3    Zn5   S    
C41   H13   S    
C49   H31   S    
C48   C49   S    
C20   O7    A    
C40   H10   S    
C53   H40   S    
C1    O1    A    
C46   C47   S    
C55   H46   S    
C19   O5    A    
O12   Zn4   S    
C54   H43   S    
C39   C40   S    
C8    C9    D    
O2    Zn6   S    
O6    Zn5   S    
C57   H50   S    
O26   Zn3   S    
O17   Zn3   S    
C1    C2    S    
C12   C37   A    
C55   H47   S    
C16   O14   A    
C58   C59   D    
C15   O27   A    
Br4   C27   S    
C51   C52   S    
Br6   C36   S    
C33   C35   A    
C5    C17   S    
C44   H21   S    
C18   O2    A    
C48   H29   S    
C47   H26   S    
C53   H42   S    
C43   H18   S    
O7    Zn6   S    
C44   C46   S    
C42   H15   S    
C42   C43   S    
C58   H4    S    
O11   Zn2   S    
C10   O20   S    
C27   C30   S    
C50   H32   S    
C33   O22   S    
C47   H27   S    
C43   H19   S    
C10   C11   D    
C13   C26   S    
Br7   C59   S    
C45   C56   A    
C32   H45   S    
C44   O20   S    
C22   O21   S    
C41   O19   S    
C52   C53   S    
C40   H9    S    
O9    Zn6   S    
C35   C36   A    
C46   H24   S    
C54   C55   S    
O14   Zn2   S    
C7    H12   S    
C14   O23   A    
C20   C24   S    
C25   C26   D    
O15   Zn1   S    
C50   H33   S    
O29   Zn4   S    
O25   Zn4   S    
C3    O19   S    
O5    Zn6   S    
C30   H54   S    
C52   H39   S    
O4    Zn2   S    
C16   O13   A    
C32   C33   A    
O10   Zn1   S    
C51   O22   S    
Br8   C60   S    
C26   H53   S    
O28   Zn3   S    
C4    C23   S    
C57   H48   S    
C13   O17   A    
C24   H51   S    
C45   H3    S    
C13   O12   A    
C38   H6    S    
C52   H38   S    
C36   C37   A    
C38   O18   S    
C28   O15   A    
C48   H28   S    
C38   C39   S    
C4    O10   A    
C22   C25   S    
C48   O21   S    
C18   C29   S    
C2    C60   D    
C15   O26   A    
C37   C56   A    
C1    O4    A    
O13   Zn1   S    
C17   O29   A    
C4    O11   A    
C18   O30   A    
C11   C16   S    
C39   H7    S    
C35   O24   S    
C22   C24   D    
C3    C5    D    
O16   Zn2   S    
C49   C50   S    
C21   O9    A    
C5    H1    S    
C15   C31   S    
C49   H30   S    
C19   O3    A    
C3    C6    S    
C31   H2    S    
O30   Zn5   S    
Br2   C6    S    
C44   H20   S    
C19   C59   S    
C14   C56   S    
O23   Zn3   S    
C21   O8    A    
Br1   C34   S    
C54   H44   S    
C14   O25   A    
C25   H52   S    
C8    C10   S    
C41   C42   S    
C54   O24   S    
C57   H49   S    
C6    C7    D    
C17   O28   A    
C50   H35   S    
C28   O16   A    
C38   H5    S    
Br3   C8    S    
C20   O6    A    
C12   C23   A    
