data_mof_unit_12981.cif
_audit_creation_date              2012-12-10T16:46:03-0500
_audit_creation_method            fapswitch 2.2
_symmetry_space_group_name_H-M    P1
_symmetry_Int_Tables_number       1
_space_group_crystal_system       triclinic
_cell_length_a                    10.716968
_cell_length_b                    8.725362
_cell_length_c                    7.42709
_cell_angle_alpha                 102.669332
_cell_angle_beta                  94.338564
_cell_angle_gamma                 92.746739
_cell_volume                      674.164331675

loop_
_atom_site_label
_atom_site_type_symbol
_atom_type_description
_atom_site_fract_x
_atom_site_fract_y
_atom_site_fract_z
_atom_type_partial_charge
C1    C     C_R   0.492426 0.199687 0.454875 0.887726
C2    C     C_3   0.877230 0.491452 0.495676 0.108474
C3    C     C_3   0.936037 0.661131 0.523634 -0.397781
C4    C     C_3   0.913832 0.391443 0.310260 -0.391726
C5    C     C_2   0.490318 0.032294 0.435280 -0.434722
C6    C     C_2   0.470116 0.963488 0.577003 -0.037655
C7    C     C_R   0.259599 0.492875 0.500820 0.784903
C8    C     C_R   0.492153 0.798594 0.547564 0.882131
C9    C     C_R   0.739749 0.495590 0.497517 0.777708
C10   C     C_3   0.075423 0.413764 0.659263 0.377272
C11   C     C_3   0.931056 0.417547 0.655208 -0.406241
C12   C     C_3   0.079929 0.659958 0.531696 -0.482675
C13   C     C_3   0.057416 0.393053 0.311745 -0.356355
C14   C     C_3   0.121189 0.488845 0.501649 0.099572
Cu1   Cu    Cu3+1 0.514070 0.517380 0.684380 0.927312
Cu2   Cu    Cu3+1 0.485930 0.482620 0.315620 0.925339
H1    H     H_    0.118228 0.487826 0.794300 0.074496
H2    H     H_    0.875586 0.439053 0.191562 0.173971
H3    H     H_    0.115137 0.718363 0.424584 0.191528
H4    H     H_    0.901005 0.714263 0.407721 0.171682
H5    H     H_    0.513698 0.964540 0.302418 0.151527
H6    H     H_    0.398336 0.383083 0.949104 0.217617
H7    H     H_    0.600688 0.618737 0.051222 0.220941
H8    H     H_    0.886301 0.296634 0.636707 0.178252
H9    H     H_    0.907662 0.486615 0.791811 0.136281
H10   H     H_    0.120053 0.729291 0.669135 0.152276
H11   H     H_    0.908373 0.735841 0.654393 0.164623
H12   H     H_    0.086303 0.446632 0.197107 0.165476
H13   H     H_    0.087078 0.270185 0.283302 0.187177
H14   H     H_    0.873689 0.268111 0.289266 0.165078
N1    N     N_2   0.464720 0.456420 0.038520 -0.225109
N2    N     N_2   0.535280 0.543580 0.961480 -0.224727
O1    O     O_R   0.509140 0.286130 0.619770 -0.592352
O2    O     O_R   0.485380 0.256770 0.308360 -0.582647
O3    O     O_R   0.329570 0.514650 0.655700 -0.596860
O4    O     O_R   0.305810 0.485300 0.344290 -0.597024
O5    O     O_R   0.514620 0.743230 0.691640 -0.576059
O6    O     O_R   0.490860 0.713870 0.380230 -0.601669
O7    O     O_R   0.694190 0.514700 0.655710 -0.590572
O8    O     O_R   0.670430 0.485350 0.344300 -0.593822
C15   C     C_3   0.426672 0.052627 0.762359 -0.356941
C16   C     C_3   0.367059 0.954944 0.885399 -0.822795
H15   H     H_    0.300918 0.860447 0.801521 0.242745
H16   H     H_    0.439920 0.903966 0.964460 0.270578
H17   H     H_    0.314721 0.032132 0.988942 0.225237
H18   H     H_    0.507488 0.125312 0.846543 0.229327
H19   H     H_    0.353513 0.130652 0.730239 0.232121
O9    O     O_3   0.111321 0.256481 0.634633 -0.582545
C17   C     C_3   0.109479 0.205587 0.802575 -0.396765
H20   H     H_    0.017760 0.220382 0.862757 0.162221
H21   H     H_    0.185653 0.268903 0.905524 0.159690
H22   H     H_    0.125006 0.078105 0.774161 0.203757

loop_
_geom_bond_atom_site_label_1
_geom_bond_atom_site_label_2
_ccdc_geom_bond_type
C2    C4    S    
C15   H18   S    
C13   H12   S    
C8    O5    A    
C7    C14   S    
C15   C16   S    
N1    N2    D    
C16   H17   S    
C17   H22   S    
C4    H2    S    
H7    N2    S    
C3    H11   S    
C2    C3    S    
C15   H19   S    
C1    O1    A    
C3    H4    S    
Cu2   O6    S    
C13   C14   S    
Cu2   O4    S    
Cu2   N1    S    
Cu1   O7    S    
C16   H16   S    
Cu2   O8    S    
C1    C5    S    
C2    C11   S    
C12   H3    S    
C13   H13   S    
O9    C17   S    
C12   H10   S    
C12   C14   S    
C1    O2    A    
C10   C11   S    
C8    O6    A    
C10   O9    S    
C5    C6    D    
H6    N1    S    
C11   H9    S    
C10   H1    S    
Cu1   Cu2   S    
C11   H8    S    
C9    O7    A    
C5    H5    S    
C17   H20   S    
C7    O4    A    
Cu1   O3    S    
C4    C13   S    
Cu1   O5    S    
C6    C8    S    
C3    C12   S    
Cu2   O2    S    
C2    C9    S    
C7    O3    A    
Cu1   O1    S    
C9    O8    A    
C4    H14   S    
C16   H15   S    
C10   C14   S    
C17   H21   S    
C6    C15   S    
Cu1   N2    S    
