data_mof_unit_55669.cif
_audit_creation_date              2013-03-05T15:55:20-0500
_audit_creation_method            fapswitch 2.2
_symmetry_space_group_name_H-M    P1
_symmetry_Int_Tables_number       1
_space_group_crystal_system       triclinic
_cell_length_a                    27.163808
_cell_length_b                    10.671129
_cell_length_c                    9.886399
_cell_angle_alpha                 89.321084
_cell_angle_beta                  88.751656
_cell_angle_gamma                 91.183462
_cell_volume                      2864.24746536

loop_
_atom_site_label
_atom_site_type_symbol
_atom_site_description
_atom_site_fract_x
_atom_site_fract_y
_atom_site_fract_z
_atom_type_partial_charge
O1    O     O_R   0.500000 0.316780 0.614690 -0.654882
O2    O     O_R   0.500000 0.316750 0.385360 -0.634511
C1    C     C_R   0.502873 0.259449 0.501422 0.858352
O3    O     O_R   0.428760 0.500030 0.614650 -0.618360
O4    O     O_R   0.428750 0.500010 0.385320 -0.632465
C2    C     C_R   0.405861 0.498223 0.501131 0.852151
Zn1   Zn    Zn3+2 0.500000 0.500020 0.653130 0.944992
Zn2   Zn    Zn3+2 0.500000 0.499980 0.346870 0.959208
O5    O     O_R   0.500000 0.683250 0.614640 -0.614277
O6    O     O_R   0.500000 0.683220 0.385310 -0.612299
O7    O     O_R   0.571250 0.499990 0.614680 -0.609851
O8    O     O_R   0.571240 0.499970 0.385350 -0.597562
C3    C     C_R   0.493528 0.738409 0.500094 0.893555
C4    C     C_R   0.594211 0.496446 0.498489 0.895388
C5    C     C_R   0.180036 0.322861 0.606187 0.514792
O9    O     O_2   0.203632 0.329689 0.724721 -0.560907
N1    N     N_R   0.205577 0.342491 0.486887 -0.350005
C6    C     C_R   0.183377 0.330788 0.364821 0.522171
C7    C     C_R   0.268735 0.510472 0.454973 0.008279
C8    C     C_R   0.318352 0.550825 0.457503 0.133038
C9    C     C_R   0.340354 0.342983 0.538647 -0.276698
C10   C     C_R   0.291753 0.302269 0.530986 -0.106465
C11   C     C_R   0.255808 0.385248 0.490078 0.225995
C12   C     C_R   0.104693 0.299509 0.481579 -0.052673
C13   C     C_R   0.129093 0.299837 0.605741 -0.019015
C14   C     C_R   0.101932 0.283861 0.726508 -0.132499
C15   C     C_R   0.132372 0.310891 0.359790 -0.022538
C16   C     C_R   0.353766 0.466454 0.503163 -0.070531
H1    H     H_    0.367940 0.277029 0.569144 0.143303
H2    H     H_    0.281853 0.206099 0.557345 0.159086
H3    H     H_    0.119907 0.283179 0.823300 0.185994
C17   C     C_R   0.646608 0.468606 0.494356 -0.099629
C18   C     C_R   0.972963 0.279492 0.599668 0.049255
C19   C     C_R   0.977025 0.324639 0.354565 0.036719
C20   C     C_R   0.949431 0.311457 0.477361 0.075016
C21   C     C_R   0.943431 0.253165 0.716241 -0.216595
C22   C     C_R   0.892961 0.269604 0.715882 -0.119818
C23   C     C_R   0.870224 0.313947 0.599862 -0.015257
C24   C     C_R   0.898102 0.333633 0.479075 -0.059953
C25   C     C_R   0.874836 0.377729 0.361389 -0.065384
C26   C     C_R   0.824606 0.408909 0.371942 0.517887
N2    N     N_R   0.798571 0.387800 0.490219 -0.353114
C27   C     C_R   0.819940 0.339092 0.602176 0.523562
C28   C     C_R   0.714083 0.336194 0.423496 -0.007832
C29   C     C_R   0.663937 0.364807 0.421088 -0.080982
C30   C     C_R   0.679184 0.542545 0.568347 -0.258990
C31   C     C_R   0.729314 0.516917 0.567009 0.042477
C32   C     C_R   0.746901 0.413474 0.494692 0.211168
O10   O     O_2   0.792506 0.315883 0.715570 -0.543311
C33   C     C_R   0.025111 0.279350 0.602488 0.048127
C34   C     C_R   0.052598 0.292990 0.479349 0.072926
C35   C     C_R   0.028528 0.305600 0.354231 0.055226
C36   C     C_R   0.050907 0.272990 0.725167 -0.210937
H4    H     H_    0.871966 0.250077 0.808453 0.195620
H5    H     H_    0.958244 0.218440 0.809409 0.142343
H6    H     H_    0.032641 0.266778 0.822936 0.135498
O11   O     O_2   0.210468 0.342251 0.249066 -0.552371
C37   C     C_R   0.108422 0.306806 0.236326 -0.128247
H7    H     H_    0.129009 0.310252 0.141180 0.190681
C38   C     C_R   0.952703 0.363278 0.237063 -0.253249
C39   C     C_R   0.902762 0.390224 0.239207 0.005738
O12   O     O_2   0.801615 0.460604 0.266040 -0.537877
C40   C     C_R   0.057341 0.303854 0.233314 -0.212431
H8    H     H_    0.972312 0.379302 0.142169 0.138383
H9    H     H_    0.665548 0.621616 0.624923 0.157407
H10   H     H_    0.041461 0.300408 0.134402 0.136430
H11   H     H_    0.504490 0.113026 0.285566 0.178975
C41   C     C_R   0.512443 0.103744 0.756770 -0.177924
H12   H     H_    0.535819 0.186148 0.766156 0.185500
C42   C     C_R   0.497488 0.042078 0.876155 -0.211650
H13   H     H_    0.507471 0.081506 0.972576 0.154137
C43   C     C_R   0.467302 0.935174 0.871034 0.023347
C44   C     C_R   0.456987 0.881659 0.745012 -0.027296
C45   C     C_R   0.479038 0.934739 0.624909 0.028711
C46   C     C_R   0.498786 0.056436 0.629451 0.074844
C47   C     C_R   0.503598 0.124654 0.505436 -0.106126
C48   C     C_R   0.500310 0.063515 0.381608 -0.193674
H14   H     H_    0.496556 0.889640 0.283595 0.187994
C49   C     C_R   0.493300 0.936482 0.379722 -0.179104
C50   C     C_R   0.484614 0.870768 0.500928 -0.130118
C51   C     C_R   0.436804 0.333244 0.145733 -0.262131
H15   H     H_    0.434514 0.328979 0.252985 0.222594
C52   C     C_R   0.406222 0.248947 0.079106 -0.026406
C53   C     C_R   0.405079 0.250969 0.937929 0.181489
C54   C     C_R   0.436171 0.335087 0.865494 -0.235024
H16   H     H_    0.433840 0.332633 0.758410 0.211575
C55   C     C_R   0.468614 0.418365 0.930558 0.134111
C56   C     C_R   0.468713 0.418110 0.075057 0.138896
N3    N     N_R   0.499540 0.498800 0.142780 -0.129435
C57   C     C_R   0.529800 0.578906 0.068300 0.016835
H17   H     H_    0.553811 0.642604 0.867587 0.154244
C58   C     C_R   0.529702 0.578652 0.924980 -0.134225
N4    N     N_R   0.499520 0.498720 0.857170 -0.116337
C59   C     C_1   0.230898 0.598058 0.420703 0.229991
N5    N     N_1   0.200593 0.668051 0.393300 -0.180021
C60   C     C_1   0.882010 0.429367 0.112235 0.273757
N6    N     N_1   0.865631 0.460568 0.010388 -0.143892
C61   C     C_1   0.762483 0.598475 0.638728 0.231882
N7    N     N_1   0.789123 0.663787 0.696245 -0.163663
C62   C     C_1   0.447332 0.881372 0.995730 0.157005
N8    N     N_1   0.431136 0.837737 0.095112 -0.221406
C63   C     C_1   0.418221 0.786778 0.738524 0.185012
N9    N     N_1   0.386666 0.712468 0.735578 -0.191951
C64   C     C_1   0.562341 0.664784 0.135270 0.240198
N10   N     N_1   0.588612 0.734129 0.188683 -0.190147
C65   C     C_1   0.377099 0.158675 0.158056 0.212444
N11   N     N_1   0.353845 0.086396 0.221571 -0.192611
N12   N     N_2   0.373688 0.166633 0.867524 -0.316613
H18   H     H_    0.386644 0.144190 0.772151 0.216718
C66   C     C_3   0.322444 0.201211 0.867891 -0.668967
H19   H     H_    0.318537 0.295211 0.820337 0.256666
H20   H     H_    0.306988 0.202920 0.972641 0.265351
H21   H     H_    0.300829 0.131422 0.810061 0.237335
C67   C     C_1   0.630446 0.285491 0.346107 0.202737
N13   N     N_1   0.604000 0.222102 0.285662 -0.194579
C68   C     C_1   0.732256 0.226837 0.354184 0.224672
N14   N     N_1   0.746806 0.139600 0.298896 -0.167082
N15   N     N_2   0.332039 0.675762 0.417037 -0.313780
H22   H     H_    0.361869 0.713221 0.466360 0.220940
C69   C     C_3   0.335953 0.695489 0.272147 -0.682929
H23   H     H_    0.366684 0.640449 0.228934 0.252571
H24   H     H_    0.343258 0.796469 0.250024 0.256025
H25   H     H_    0.301146 0.667516 0.222816 0.251284

loop_
_geom_bond_atom_site_label_1
_geom_bond_atom_site_label_2
_geom_bond_distance
_ccdc_geom_bond_type
C55   C56   1.428599 A    
C26   N2    1.367257 A    
C17   C29   1.413818 A    
C20   C24   1.418808 A    
C7    C8    1.407247 A    
H11   C48   1.083759 S    
C12   C15   1.408227 A    
C8    N15   1.426942 S    
C67   N13   1.157117 T    
C39   C60   1.447806 S    
C54   H16   1.062540 S    
C68   N14   1.157326 T    
C41   C46   1.415807 A    
Zn1   O7    1.964263 S    
N1    C11   1.430905 S    
C31   C61   1.442938 S    
C21   C22   1.385794 A    
C23   C24   1.411259 A    
O7    C4    1.296433 A    
C5    C13   1.400560 A    
C65   N11   1.157284 T    
C5    O9    1.349912 S    
C18   C21   1.411874 A    
N12   H18   1.031816 S    
C5    N1    1.367038 A    
C19   C20   1.416824 A    
C44   C45   1.424286 A    
O5    C3    1.287225 A    
C66   H19   1.110806 S    
C58   N4    1.362993 A    
C53   N12   1.424973 S    
N15   H22   1.030820 S    
C53   C54   1.399633 A    
C2    C16   1.447955 S    
C52   C53   1.396677 A    
C41   H12   1.080056 S    
O6    C3    1.294963 A    
C42   H13   1.084120 S    
C69   H25   1.110318 S    
C12   C34   1.416050 A    
C54   C55   1.409272 A    
C40   H10   1.078075 S    
C14   H3    1.083742 S    
C45   C50   1.416806 A    
C9    C10   1.385221 A    
C19   C38   1.410440 A    
C63   N9    1.156681 T    
C26   O12   1.348923 S    
O3    Zn1   1.980310 S    
C29   C67   1.451198 S    
C64   N10   1.157397 T    
C51   C52   1.392896 A    
C69   H24   1.109978 S    
C33   C34   1.418612 A    
C66   H20   1.109445 S    
C48   C49   1.365401 A    
Zn1   N4    2.016859 S    
C33   C36   1.415511 A    
C45   C46   1.396385 A    
C6    C15   1.399387 A    
C34   C35   1.417958 A    
C12   C13   1.407669 A    
C30   H9    1.084928 S    
O3    C2    1.295093 A    
C24   C25   1.416299 A    
H14   C49   1.081781 S    
C27   O10   1.350124 S    
C8    C16   1.408848 A    
C18   C33   1.417460 A    
C9    H1    1.083677 S    
C35   C40   1.415026 A    
C51   H15   1.061181 S    
C25   C39   1.415782 A    
C38   C39   1.392267 A    
O1    C1    1.284036 A    
C7    C11   1.411985 A    
C46   C47   1.420627 A    
C22   C23   1.396820 A    
C6    O11   1.349962 S    
C57   C58   1.417017 A    
C31   C32   1.408365 A    
Zn2   O8    1.980307 S    
C60   N6    1.157732 T    
N1    C6    1.366654 A    
C13   C14   1.396610 A    
N2    C32   1.435413 S    
C47   C48   1.397720 A    
C1    C47   1.439048 S    
C66   H21   1.110352 S    
C57   C64   1.437339 S    
C7    C59   1.446404 S    
C22   H4    1.083547 S    
C41   C42   1.393123 A    
C44   C63   1.448649 S    
C9    C16   1.398375 A    
O8    C4    1.293162 A    
N2    C27   1.363461 A    
C14   C36   1.388847 A    
H17   C58   1.082932 S    
C69   H23   1.111296 S    
C43   C62   1.443918 S    
C36   H6    1.077551 S    
C37   C40   1.388262 A    
Zn1   O5    1.987526 S    
C30   C31   1.394234 A    
C25   C26   1.413024 A    
C10   H2    1.082872 S    
O1    Zn1   1.996381 S    
C17   C30   1.397755 A    
O2    Zn2   1.987523 S    
C28   C29   1.402736 A    
C4    C17   1.459787 S    
C43   C44   1.407959 A    
C15   C37   1.396321 A    
O4    Zn2   1.964265 S    
C19   C35   1.417789 A    
C52   C65   1.444579 S    
C38   H8    1.078789 S    
O2    C1    1.298393 A    
C37   H7    1.083656 S    
C23   C27   1.397209 A    
C21   H5    1.077889 S    
O4    C2    1.290679 A    
C55   N4    1.376757 A    
C62   N8    1.156546 T    
C18   C20   1.421251 A    
N12   C66   1.447346 S    
C59   N5    1.157249 T    
N15   C69   1.446647 S    
C3    C50   1.438047 S    
C51   C56   1.409214 A    
C49   C50   1.394361 A    
C56   N3    1.378110 A    
C28   C68   1.450195 S    
Zn2   O6    1.996381 S    
C61   N7    1.157268 T    
C10   C11   1.394778 A    
C42   C43   1.393142 A    
Zn2   N3    2.018213 S    
N3    C57   1.370493 A    
C28   C32   1.407462 A    
