data_mof_unit_61841.cif
_audit_creation_date              2012-12-10T20:58:28-0500
_audit_creation_method            fapswitch 2.2
_symmetry_space_group_name_H-M    P1
_symmetry_Int_Tables_number       1
_space_group_crystal_system       triclinic
_cell_length_a                    15.806626
_cell_length_b                    15.08693
_cell_length_c                    11.570737
_cell_angle_alpha                 90.000256
_cell_angle_beta                  89.975409
_cell_angle_gamma                 90.000364
_cell_volume                      2759.31343289

loop_
_atom_site_label
_atom_site_type_symbol
_atom_type_description
_atom_site_fract_x
_atom_site_fract_y
_atom_site_fract_z
_atom_type_partial_charge
C1    C     C_R   0.338709 0.500000 0.500309 0.904059
C2    C     C_R   0.575932 0.046869 0.512200 0.512907
C3    C     C_R   0.575932 0.953132 0.512200 0.512905
C4    C     C_R   0.424064 0.046868 0.487931 0.512855
C5    C     C_1   0.500000 0.807116 0.500024 0.360312
C6    C     C_1   0.500000 0.192884 0.500024 0.360320
C7    C     C_1   0.500011 0.499999 0.161131 -0.160458
C8    C     C_1   0.499988 0.500000 0.838863 -0.161416
C9    C     C_1   0.500004 0.499999 0.059189 0.022740
C10   C     C_1   0.499994 0.500000 0.940804 0.022318
C11   C     C_R   0.955512 0.581856 0.554113 0.122184
C12   C     C_R   0.661291 0.500000 0.500197 0.903632
C13   C     C_R   0.044444 0.418240 0.554496 0.123323
C14   C     C_R   0.044445 0.581856 0.554136 0.123272
C15   C     C_R   0.955511 0.418240 0.554457 0.122205
C16   C     C_R   0.912313 0.500041 0.548828 0.059774
C17   C     C_R   0.087649 0.500041 0.548891 0.059724
C18   C     C_1   0.823605 0.500018 0.530039 -0.010637
C19   C     C_1   0.176374 0.500017 0.530145 -0.010283
C20   C     C_3   0.091911 0.669608 0.556828 -0.793309
C21   C     C_3   0.908041 0.330496 0.557500 -0.791112
C22   C     C_3   0.908043 0.669606 0.556806 -0.791069
C23   C     C_1   0.250615 0.500003 0.514378 -0.168475
C24   C     C_3   0.091911 0.330498 0.557594 -0.793386
C25   C     C_1   0.749377 0.500005 0.514256 -0.168501
C26   C     C_R   0.499999 0.905047 0.500054 -0.409256
C27   C     C_R   0.499999 0.094953 0.500054 -0.409261
C28   C     C_R   0.500015 0.500000 0.281331 0.902286
C29   C     C_R   0.499985 0.500000 0.718667 0.902200
C30   C     C_R   0.424064 0.953132 0.487931 0.512849
F1    F     F_    0.349590 0.090745 0.476045 -0.594550
F2    F     F_    0.650404 0.909254 0.524105 -0.594983
F3    F     F_    0.650405 0.090748 0.524105 -0.594976
F4    F     F_    0.349590 0.909253 0.476044 -0.594560
H1    H     H_    0.161604 0.662580 0.559662 0.249875
H2    H     H_    0.161603 0.337535 0.560412 0.249851
H3    H     H_    0.073920 0.292733 0.636136 0.245270
H4    H     H_    0.076248 0.290851 0.479686 0.252078
H5    H     H_    0.076240 0.709046 0.478744 0.252013
H6    H     H_    0.073931 0.707581 0.635203 0.245328
H7    H     H_    0.838346 0.337531 0.560251 0.250530
H8    H     H_    0.923794 0.290855 0.479603 0.250767
H9    H     H_    0.925940 0.292727 0.636056 0.246330
H10   H     H_    0.838348 0.662579 0.559600 0.250549
H11   H     H_    0.925951 0.707565 0.635204 0.246383
H12   H     H_    0.923790 0.709061 0.478746 0.250708
N1    N     N_1   0.500000 0.270550 0.500000 -0.092956
N2    N     N_1   0.500000 0.729450 0.500000 -0.092959
O1    O     O_R   0.378020 0.573650 0.500040 -0.603572
O2    O     O_R   0.621980 0.426350 0.499960 -0.603578
O3    O     O_R   0.621980 0.573650 0.499960 -0.603590
O4    O     O_R   0.378020 0.426350 0.500040 -0.603556
O5    O     O_R   0.500010 0.573670 0.334460 -0.606592
O6    O     O_R   0.499990 0.426330 0.665540 -0.607228
O7    O     O_R   0.499990 0.573670 0.665540 -0.607218
O8    O     O_R   0.500010 0.426330 0.334460 -0.606587
Zn1   Zn    Zn3+2 0.500000 0.598370 0.500000 1.022256
Zn2   Zn    Zn3+2 0.500000 0.401630 0.500000 1.022266

loop_
_geom_bond_atom_site_label_1
_geom_bond_atom_site_label_2
_ccdc_geom_bond_type
C24   H4    S    
C28   O5    A    
C1    C23   S    
C2    C27   A    
O3    Zn1   S    
C5    C26   S    
C24   H3    S    
C3    C26   A    
C9    C10   S    
C11   C22   S    
C19   C23   T    
C6    C27   S    
C13   C17   A    
C12   C25   S    
C29   O6    A    
C22   H11   S    
O7    Zn1   S    
C2    C3    A    
C28   O8    A    
N2    Zn1   S    
N1    Zn2   S    
C14   C17   A    
C24   H2    S    
C18   C25   T    
O4    Zn2   S    
C22   H12   S    
C21   H7    S    
C8    C29   S    
C2    F3    S    
C8    C10   T    
C1    O4    A    
O8    Zn2   S    
C26   C30   A    
C13   C15   A    
C3    F2    S    
C20   H6    S    
C5    N2    T    
C4    C30   A    
C4    F1    S    
C6    N1    T    
C30   F4    S    
C15   C16   A    
O2    Zn2   S    
C14   C20   S    
C15   C21   S    
C12   O3    A    
O1    Zn1   S    
C16   C18   S    
O6    Zn2   S    
C11   C14   A    
C7    C9    T    
C20   H5    S    
O5    Zn1   S    
C4    C27   A    
C29   O7    A    
C17   C19   S    
C21   H9    S    
C20   H1    S    
C1    O1    A    
C11   C16   A    
C22   H10   S    
C7    C28   S    
C21   H8    S    
C13   C24   S    
C12   O2    A    
