data_mof_unit_53027.cif
_audit_creation_date              2012-12-10T19:08:37-0500
_audit_creation_method            fapswitch 2.2
_symmetry_space_group_name_H-M    P1
_symmetry_Int_Tables_number       1
_space_group_crystal_system       triclinic
_cell_length_a                    15.979744
_cell_length_b                    10.864754
_cell_length_c                    9.547134
_cell_angle_alpha                 89.614645
_cell_angle_beta                  90.289494
_cell_angle_gamma                 90.003829
_cell_volume                      1657.47645029

loop_
_atom_site_label
_atom_site_type_symbol
_atom_type_description
_atom_site_fract_x
_atom_site_fract_y
_atom_site_fract_z
_atom_type_partial_charge
C1    C     C_R   0.499360 0.262629 0.500167 0.789930
C2    C     C_R   0.044173 0.495211 0.623744 -0.179111
C3    C     C_1   0.822976 0.492068 0.499958 -0.071178
C4    C     C_1   0.177081 0.495078 0.498010 -0.070574
C5    C     C_1   0.252163 0.497235 0.498830 -0.184104
C6    C     C_1   0.747896 0.495870 0.500921 -0.187979
C7    C     C_R   0.489851 0.060466 0.620345 0.077530
C8    C     C_R   0.498490 0.129856 0.498543 -0.117239
C9    C     C_R   0.506622 0.065422 0.371206 -0.215631
C10   C     C_R   0.507165 0.936311 0.370559 -0.226000
C11   C     C_R   0.500754 0.869741 0.497452 -0.089960
C12   C     C_R   0.341306 0.499352 0.499654 0.824944
C13   C     C_R   0.493280 0.936544 0.619834 0.110041
C14   C     C_3   0.484391 0.923978 0.774365 -0.497502
C15   C     C_3   0.479614 0.065978 0.776195 -0.199299
C16   C     C_R   0.544327 0.586954 0.073395 0.252124
C17   C     C_R   0.449367 0.423233 0.074599 -0.079565
C18   C     C_R   0.449082 0.423828 0.925753 -0.071008
C19   C     C_R   0.544160 0.586879 0.925863 0.210826
C20   C     C_3   0.636010 0.608559 0.918754 -0.495856
C21   C     C_3   0.636916 0.607414 0.078207 -0.076071
C22   C     C_R   0.500488 0.737235 0.499454 0.798991
C23   C     C_R   0.658726 0.499439 0.500357 0.823082
C24   C     C_R   0.957026 0.493306 0.623232 -0.202111
C25   C     C_R   0.912745 0.487871 0.496684 0.107461
C26   C     C_R   0.956268 0.482999 0.368615 0.010492
C27   C     C_R   0.043990 0.486478 0.370049 -0.222794
C28   C     C_R   0.087588 0.492419 0.497229 0.139206
Cu1   Cu    Cu3+1 0.500000 0.499980 0.640670 0.940086
Cu2   Cu    Cu3+1 0.500000 0.500020 0.359330 0.937766
H1    H     H_    0.077642 0.499472 0.722594 0.139964
H2    H     H_    0.534231 0.110199 0.828189 0.150086
H3    H     H_    0.409610 0.359391 0.130612 0.150250
H4    H     H_    0.408510 0.361865 0.869903 0.166752
H5    H     H_    0.669573 0.529183 0.873214 0.197128
H6    H     H_    0.651010 0.698987 0.869717 0.195218
H7    H     H_    0.671932 0.528015 0.123441 0.204258
H8    H     H_    0.924090 0.496643 0.721510 0.143475
H9    H     H_    0.078220 0.483052 0.272342 0.139358
H10   H     H_    0.512869 0.114038 0.272414 0.159765
H11   H     H_    0.512902 0.889449 0.271341 0.164651
H12   H     H_    0.425492 0.875741 0.803389 0.208584
H13   H     H_    0.541990 0.886651 0.824705 0.180521
N1    N     N_R   0.500520 0.500930 0.147930 -0.202753
N2    N     N_R   0.500520 0.500890 0.852020 -0.188293
O1    O     O_R   0.500000 0.319640 0.618810 -0.583922
O2    O     O_R   0.500010 0.319680 0.381230 -0.589285
O3    O     O_R   0.380300 0.499950 0.618760 -0.574966
O4    O     O_R   0.380310 0.499990 0.381180 -0.575196
O5    O     O_R   0.499990 0.680320 0.618770 -0.575406
O6    O     O_R   0.500000 0.680360 0.381190 -0.584943
O7    O     O_R   0.619690 0.500010 0.618820 -0.581721
O8    O     O_R   0.619700 0.500050 0.381240 -0.578702
C29   C     C_3   0.661098 0.731087 0.142462 -0.821453
H14   H     H_    0.623246 0.807502 0.096993 0.216647
H15   H     H_    0.651322 0.728038 0.257396 0.249916
H16   H     H_    0.728336 0.749553 0.122427 0.238935
C30   C     C_R   0.911805 0.472679 0.233021 0.113052
C31   C     C_R   0.861819 0.369304 0.204747 -0.131008
C32   C     C_R   0.822138 0.357664 0.074735 -0.148427
C33   C     C_R   0.831763 0.449254 0.972723 -0.130023
C34   C     C_R   0.880021 0.553547 0.001196 -0.140438
C35   C     C_R   0.920643 0.564835 0.130422 -0.154333
H17   H     H_    0.854604 0.297138 0.282579 0.124960
H18   H     H_    0.784308 0.277372 0.052779 0.127289
H19   H     H_    0.802028 0.439129 0.871446 0.123109
H20   H     H_    0.886536 0.625245 0.922768 0.127286
H21   H     H_    0.958648 0.645372 0.150779 0.126180
C36   C     C_R   0.395911 0.111702 0.829072 0.164222
C37   C     C_R   0.380768 0.106322 0.973863 -0.182324
C38   C     C_R   0.305309 0.149336 0.028509 -0.159606
C39   C     C_R   0.244141 0.198311 0.939227 -0.118158
C40   C     C_R   0.258093 0.203595 0.795018 -0.157786
C41   C     C_R   0.333333 0.160270 0.739691 -0.117697
H22   H     H_    0.427785 0.069282 0.044552 0.127763
H23   H     H_    0.294502 0.145338 0.140274 0.136062
H24   H     H_    0.185917 0.232142 0.981781 0.130399
H25   H     H_    0.210628 0.241624 0.725965 0.137335
H26   H     H_    0.342130 0.165780 0.627690 0.116777

loop_
_geom_bond_atom_site_label_1
_geom_bond_atom_site_label_2
_ccdc_geom_bond_type
Cu2   O6    S    
C16   C21   S    
C1    C8    S    
C40   C41   A    
C19   C20   S    
C12   O3    A    
C3    C6    T    
C12   O4    A    
C7    C8    A    
C26   C27   A    
C34   C35   A    
C34   H20   S    
C38   H23   S    
C1    O1    A    
C29   H14   S    
C20   H5    S    
C33   H19   S    
C27   H9    S    
C8    C9    A    
C24   H8    S    
C40   H25   S    
C37   C38   A    
Cu1   Cu2   S    
C9    C10   A    
C16   N1    A    
C14   H12   S    
C14   H13   S    
C7    C15   S    
C31   C32   A    
C13   C14   S    
C10   H11   S    
Cu2   N1    S    
C36   C37   A    
C17   H3    S    
C4    C28   S    
C23   O8    A    
Cu1   O5    S    
C15   C36   S    
Cu2   O8    S    
C29   H15   S    
Cu1   O3    S    
Cu2   O2    S    
C3    C25   S    
C24   C25   A    
C5    C12   S    
C4    C5    T    
C25   C26   A    
C9    H10   S    
Cu1   N2    S    
C32   C33   A    
C39   H24   S    
C26   C30   S    
C17   C18   A    
C31   H17   S    
C36   C41   A    
C18   H4    S    
Cu2   O4    S    
C32   H18   S    
C41   H26   S    
C2    C24   A    
C18   N2    A    
C27   C28   A    
C30   C35   A    
C35   H21   S    
C1    O2    A    
C39   C40   A    
C15   H2    S    
C19   N2    A    
C11   C22   S    
C22   O5    A    
Cu1   O1    S    
C30   C31   A    
C17   N1    A    
C38   C39   A    
C11   C13   A    
C23   O7    A    
C21   C29   S    
C16   C19   A    
C6    C23   S    
C33   C34   A    
C10   C11   A    
C20   H6    S    
C7    C13   A    
C21   H7    S    
C20   C21   S    
C37   H22   S    
C14   C15   S    
C2    H1    S    
C2    C28   A    
Cu1   O7    S    
C22   O6    A    
C29   H16   S    
