data_mof_unit_40563.cif
_audit_creation_date              2013-03-05T16:04:07-0500
_audit_creation_method            fapswitch 2.2
_symmetry_space_group_name_H-M    P1
_symmetry_Int_Tables_number       1
_space_group_crystal_system       triclinic
_cell_length_a                    10.860964
_cell_length_b                    9.66147
_cell_length_c                    10.904927
_cell_angle_alpha                 90.851233
_cell_angle_beta                  89.767709
_cell_angle_gamma                 89.875892
_cell_volume                      1144.14684966

loop_
_atom_site_label
_atom_site_type_symbol
_atom_site_description
_atom_site_fract_x
_atom_site_fract_y
_atom_site_fract_z
_atom_type_partial_charge
O1    O     O_R   0.319640 0.618740 0.499990 -0.525696
O2    O     O_R   0.680360 0.618740 0.500010 -0.530401
O3    O     O_R   0.319620 0.381170 0.499990 -0.565985
O4    O     O_R   0.680380 0.381170 0.500010 -0.585257
C1    C     C_R   0.262359 0.499061 0.501103 0.940214
C2    C     C_R   0.736893 0.499688 0.496044 0.926549
O5    O     O_R   0.500000 0.618810 0.319650 -0.559957
O6    O     O_R   0.500000 0.618810 0.680350 -0.542870
O7    O     O_R   0.499970 0.381240 0.319640 -0.538211
O8    O     O_R   0.500030 0.381240 0.680360 -0.544651
C3    C     C_R   0.491339 0.499020 0.263121 0.890493
C4    C     C_R   0.497770 0.501746 0.738370 0.912147
Cu1   Cu    Cu3+1 0.500000 0.640660 0.500000 1.163555
Cu2   Cu    Cu3+1 0.500000 0.359340 0.500000 1.124574
C5    C     C_R   0.362866 0.726902 0.116194 0.259081
C6    C     C_R   0.498824 0.763765 0.900546 0.273715
C7    C     C_R   0.345278 0.847034 0.046627 0.162320
C8    C     C_R   0.422274 0.870826 0.945216 0.214423
C9    C     C_R   0.481838 0.629961 0.946211 -0.106715
C10   C     C_R   0.440151 0.620108 0.068021 -0.112404
C11   C     C_R   0.471587 0.497440 0.130184 -0.139310
C12   C     C_R   0.486985 0.504988 0.874091 -0.159673
C13   C     C_R   0.489877 0.376338 0.058534 0.279271
C14   C     C_R   0.457623 0.381327 0.935184 0.260954
C15   C     C_R   0.064595 0.412238 0.414500 0.240031
C16   C     C_R   0.935654 0.416740 0.409472 0.233754
C17   C     C_R   0.870661 0.499251 0.495007 -0.304042
C18   C     C_R   0.127555 0.494060 0.503125 -0.287606
C19   C     C_R   0.932471 0.573186 0.587330 0.231969
C20   C     C_R   0.060898 0.567639 0.594772 0.249657
C21   C     C_R   0.403721 0.076311 0.546784 0.066522
C22   C     C_R   0.594975 0.073855 0.449728 0.012106
C23   C     C_R   0.402922 0.929310 0.547118 0.413956
C24   C     C_R   0.595051 0.926357 0.447664 0.398108
N1    N     N_R   0.500000 0.852070 0.500000 -0.270748
N2    N     N_R   0.500000 0.147940 0.500000 -0.235806
N3    N     N_R   0.528627 0.247178 0.108593 0.153601
O9    O     O_R   0.633472 0.193787 0.074274 -0.217307
O10   O     O_R   0.452451 0.172805 0.171742 -0.271592
N4    N     N_R   0.350275 0.302501 0.899439 0.191118
O11   O     O_R   0.279067 0.252107 0.984092 -0.183706
O12   O     O_R   0.308887 0.302517 0.787845 -0.275881
N5    N     N_R   0.283725 0.702328 0.219047 0.144203
O13   O     O_R   0.269014 0.796186 0.304542 -0.274505
O14   O     O_R   0.216931 0.591166 0.221277 -0.321814
N6    N     N_R   0.611197 0.796578 0.838839 0.187693
O15   O     O_R   0.609985 0.864552 0.736938 -0.283526
O16   O     O_R   0.713442 0.788246 0.899971 -0.178762
N7    N     N_R   0.244225 0.938564 0.072798 0.216313
O17   O     O_R   0.144202 0.929048 0.007992 -0.150784
O18   O     O_R   0.246092 0.020467 0.168338 -0.162048
N8    N     N_R   0.413223 0.997616 0.880508 0.163549
O19   O     O_R   0.510387 0.072593 0.860752 -0.274979
O20   O     O_R   0.309803 0.029180 0.828255 -0.225883
N9    N     N_R   0.130680 0.322840 0.330660 0.177657
O21   O     O_R   0.178789 0.209067 0.371292 -0.248150
O22   O     O_R   0.114718 0.334855 0.213108 -0.164557
N10   N     N_R   0.870899 0.337409 0.317721 0.166277
O23   O     O_R   0.790439 0.396976 0.247767 -0.301834
O24   O     O_R   0.892641 0.205661 0.303271 -0.207727
N11   N     N_R   0.863186 0.642293 0.681523 0.179138
O25   O     O_R   0.849513 0.775957 0.678521 -0.170788
O26   O     O_R   0.803828 0.570248 0.762327 -0.306121
N12   N     N_R   0.120819 0.619486 0.703729 0.186768
O27   O     O_R   0.204804 0.545503 0.756280 -0.314686
O28   O     O_R   0.080586 0.729708 0.761191 -0.154290
H1    H     H_    0.326848 0.132877 0.586135 0.217818
H2    H     H_    0.670557 0.128666 0.407889 0.207641
N13   N     N_R   0.299743 0.864068 0.601390 0.163384
O29   O     O_R   0.316930 0.790871 0.698326 -0.299315
O30   O     O_R   0.188971 0.905277 0.574864 -0.238348
N14   N     N_R   0.694942 0.857890 0.386377 0.153813
O31   O     O_R   0.677042 0.802201 0.278704 -0.282091
O32   O     O_R   0.807145 0.884835 0.420387 -0.244346

loop_
_geom_bond_atom_site_label_1
_geom_bond_atom_site_label_2
_geom_bond_distance
_ccdc_geom_bond_type
O5    C3    1.306922 A    
C13   C14   1.392869 A    
C21   C23   1.420350 A    
N14   O32   1.300980 A    
C19   C20   1.398483 A    
C20   N12   1.440897 S    
O6    C4    1.304352 A    
C17   C19   1.400255 A    
C1    C18   1.465087 S    
N5    O14   1.297813 A    
C3    C11   1.466172 S    
C21   N2    1.357187 A    
C5    C10   1.421869 A    
C9    C10   1.406263 A    
C2    C17   1.452842 S    
C22   H2    1.080967 S    
O7    Cu2   1.981285 S    
N12   O27   1.298048 A    
N11   O25   1.300495 A    
N9    O21   1.300563 A    
C18   C20   1.413894 A    
C7    C8    1.405707 A    
C15   C16   1.402322 A    
C5    N5    1.433240 S    
N3    O10   1.299119 A    
C19   N11   1.427686 S    
Cu1   Cu2   2.717965 S    
C10   C11   1.415867 A    
C15   C18   1.418291 A    
C21   H1    1.080771 S    
O7    C3    1.305523 A    
C16   C17   1.404966 A    
O2    C2    1.302736 A    
O3    Cu2   1.969967 S    
O8    C4    1.316881 A    
N5    O13   1.300034 A    
C6    C9    1.404503 A    
O1    C1    1.314394 A    
C22   N2    1.362883 A    
N4    O12   1.299008 A    
N4    O11   1.302527 A    
C14   N4    1.445665 S    
N3    O9    1.300418 A    
N8    O20   1.299321 A    
Cu1   N1    2.042531 S    
N6    O16   1.300486 A    
N9    O22   1.301131 A    
C11   C13   1.410480 A    
O4    Cu2   1.970874 S    
N13   O29   1.294461 A    
N7    O17   1.301068 A    
C12   C14   1.412995 A    
O4    C2    1.301560 A    
O1    Cu1   1.970755 S    
C24   N14   1.427990 S    
C8    N8    1.426143 S    
C23   N13   1.418503 S    
O6    Cu1   1.981117 S    
C4    C12   1.484039 S    
N13   O30   1.301448 A    
O5    Cu1   1.974881 S    
C9    C12   1.432003 A    
N8    O19   1.300345 A    
N11   O26   1.300819 A    
C24   N1    1.384626 A    
O8    Cu2   1.975033 S    
N7    O18   1.299145 A    
C6    N6    1.429768 S    
C5    C7    1.409075 A    
O2    Cu1   1.969843 S    
N6    O15   1.299254 A    
Cu2   N2    2.042435 S    
C23   N1    1.383251 A    
N10   O23   1.301174 A    
C13   N3    1.432529 S    
N10   O24   1.301250 A    
C16   N10   1.438204 S    
C6    C8    1.405860 A    
C7    N7    1.433100 S    
C15   N9    1.437215 S    
C22   C24   1.424887 A    
N14   O31   1.299803 A    
O3    C1    1.296418 A    
N12   O28   1.301372 A    
