data_mof_unit_30745.cif
_audit_creation_date              2012-12-10T18:36:07-0500
_audit_creation_method            fapswitch 2.2
_symmetry_space_group_name_H-M    P1
_symmetry_Int_Tables_number       1
_space_group_crystal_system       triclinic
_cell_length_a                    15.066165
_cell_length_b                    15.645532
_cell_length_c                    19.281704
_cell_angle_alpha                 90.786608
_cell_angle_beta                  104.395332
_cell_angle_gamma                 82.663794
_cell_volume                      4365.54315116

loop_
_atom_site_label
_atom_site_type_symbol
_atom_type_description
_atom_site_fract_x
_atom_site_fract_y
_atom_site_fract_z
_atom_type_partial_charge
C1    C     C_R   0.441951 0.661314 0.489486 0.875747
C2    C     C_R   0.558049 0.338686 0.510514 0.875747
C3    C     C_R   0.406079 0.752330 0.487928 -0.066617
C4    C     C_R   0.593921 0.247669 0.512072 -0.066617
C5    C     C_R   0.304482 0.866999 0.523217 -0.174200
C6    C     C_R   0.695518 0.133001 0.476782 -0.174200
C7    C     C_R   0.326305 0.780013 0.510902 -0.187705
C8    C     C_R   0.673694 0.219987 0.489098 -0.187705
C9    C     C_R   0.458790 0.811934 0.471364 -0.169587
C10   C     C_R   0.541210 0.188066 0.528636 -0.169588
C11   C     C_R   0.444021 0.898567 0.490112 0.107348
C12   C     C_R   0.555979 0.101433 0.509888 0.107348
C13   C     C_R   0.364753 0.925725 0.515963 0.136271
C14   C     C_R   0.635247 0.074275 0.484037 0.136271
C15   C     C_R   0.508181 0.957235 0.487850 0.064537
C16   C     C_R   0.491818 0.042765 0.512150 0.064537
C17   C     C_R   0.410659 0.067395 0.536040 -0.113175
C18   C     C_R   0.589341 0.932604 0.463960 -0.113175
C19   C     C_R   0.348171 0.010142 0.537046 -0.201137
C20   C     C_R   0.651829 0.989858 0.462954 -0.201137
C21   C     C_R   0.844947 0.649931 0.592959 0.268691
C22   C     C_R   0.155053 0.350069 0.407041 0.268691
C23   C     C_R   0.500893 0.499975 0.634234 0.875855
C24   C     C_R   0.499106 0.500025 0.365766 0.875855
C25   C     C_R   0.754455 0.625898 0.581528 0.397344
C26   C     C_R   0.245545 0.374102 0.418472 0.397344
C27   C     C_R   0.794606 0.507970 0.509713 -0.161482
C28   C     C_R   0.205394 0.492030 0.490287 -0.161482
C29   C     C_R   0.886390 0.528698 0.523865 -0.049173
C30   C     C_R   0.113610 0.471302 0.476135 -0.049173
C31   C     C_R   0.912579 0.591542 0.574821 -0.050944
C32   C     C_R   0.087421 0.408458 0.425178 -0.050944
C33   C     C_R   0.952889 0.491598 0.488106 0.136956
C34   C     C_R   0.047111 0.508402 0.511894 0.136956
C35   C     C_R   0.072850 0.557051 0.573348 -0.241811
C36   C     C_R   0.927150 0.442949 0.426652 -0.241811
C37   C     C_R   0.006376 0.598203 0.604108 -0.060072
C38   C     C_R   0.993624 0.401797 0.395892 -0.060072
C39   C     C_R   0.419969 0.493151 0.730433 -0.197192
C40   C     C_R   0.580031 0.506849 0.269567 -0.197192
C41   C     C_R   0.419714 0.493656 0.802165 -0.150507
C42   C     C_R   0.580286 0.506344 0.197835 -0.150507
C43   C     C_R   0.501054 0.502279 0.854552 0.078285
C44   C     C_R   0.498945 0.497721 0.145448 0.078285
C45   C     C_R   0.582652 0.511044 0.834102 -0.154051
C46   C     C_R   0.417348 0.488956 0.165898 -0.154051
C47   C     C_R   0.582899 0.510570 0.762120 -0.137961
C48   C     C_R   0.417101 0.489430 0.237880 -0.137960
C49   C     C_R   0.501575 0.501304 0.709932 -0.036579
C50   C     C_R   0.498425 0.498696 0.290068 -0.036579
C51   C     C_R   0.499457 0.498599 0.069860 0.297935
C52   C     C_R   0.500542 0.501401 0.930140 0.297935
H1    H     H_    0.356033 0.486419 0.691151 0.161580
H2    H     H_    0.643967 0.513581 0.308849 0.161580
H3    H     H_    0.028925 0.636984 0.650549 0.202111
H4    H     H_    0.971075 0.363016 0.349451 0.202111
H5    H     H_    0.227538 0.544611 0.524238 0.160441
H6    H     H_    0.772462 0.455389 0.475762 0.160441
H7    H     H_    0.143801 0.564764 0.598402 0.137635
H8    H     H_    0.856199 0.435236 0.401598 0.137635
H9    H     H_    0.355740 0.487009 0.816381 0.158617
H10   H     H_    0.644260 0.512991 0.183619 0.158617
H11   H     H_    0.646362 0.517908 0.873549 0.163617
H12   H     H_    0.353638 0.482092 0.126451 0.163617
H13   H     H_    0.646681 0.516942 0.747478 0.187188
H14   H     H_    0.353319 0.483058 0.252522 0.187188
H15   H     H_    0.287524 0.031638 0.556454 0.168042
H16   H     H_    0.712476 0.968361 0.443546 0.168042
H17   H     H_    0.485347 0.213200 0.551625 0.152101
H18   H     H_    0.514653 0.786800 0.448375 0.152101
H19   H     H_    0.716358 0.265807 0.477302 0.163324
H20   H     H_    0.283642 0.734193 0.522698 0.163324
H21   H     H_    0.243712 0.887468 0.542706 0.159890
H22   H     H_    0.756288 0.112532 0.457294 0.159890
H23   H     H_    0.392606 0.130567 0.554971 0.167074
H24   H     H_    0.607394 0.869433 0.445029 0.167074
N1    N     N_R   0.578753 0.508867 0.981502 -0.165873
N2    N     N_R   0.421247 0.491133 0.018498 -0.165873
N3    N     N_R   0.578179 0.507527 0.050158 -0.168309
N4    N     N_R   0.421820 0.492473 0.949842 -0.168309
N5    N     N_R   0.731690 0.552730 0.540620 -0.171994
N6    N     N_R   0.268310 0.447270 0.459380 -0.171994
O1    O     O_R   0.383120 0.605620 0.479520 -0.635163
O2    O     O_R   0.616880 0.394380 0.520480 -0.635164
O3    O     O_R   0.531890 0.639510 0.505590 -0.541609
O4    O     O_R   0.468110 0.360490 0.494410 -0.541609
O5    O     O_R   0.425590 0.483060 0.588820 -0.642334
O6    O     O_R   0.574410 0.516940 0.411180 -0.642334
O7    O     O_R   0.574360 0.516950 0.614890 -0.551600
O8    O     O_R   0.425640 0.483050 0.385110 -0.551601
Zn1   Zn    Zn3+2 0.400660 0.477370 0.482600 1.007560
Zn2   Zn    Zn3+2 0.599340 0.522630 0.517400 1.007560
S1    S     S_3+6 0.323246 0.302487 0.379110 0.090654
O9    O     O_2   0.363071 0.228983 0.431058 -0.295639
O10   O     O_2   0.268422 0.267382 0.311203 -0.224849
O11   O     O_3   0.411807 0.337456 0.355603 -0.545189
H25   H     H_    0.449212 0.285027 0.343867 0.368068
S2    S     S_3+6 0.676754 0.697513 0.620890 0.090654
O12   O     O_2   0.731578 0.732618 0.688797 -0.224849
O13   O     O_2   0.636929 0.771017 0.568942 -0.295639
O14   O     O_3   0.588193 0.662544 0.644397 -0.545189
H26   H     H_    0.550788 0.714973 0.656133 0.368068
S3    S     S_3+6 0.875382 0.756493 0.618016 0.070542
O15   O     O_2   0.911200 0.758190 0.698026 -0.261192
O16   O     O_2   0.950517 0.776014 0.584122 -0.317511
O17   O     O_3   0.787720 0.836211 0.591794 -0.466599
H27   H     H_    0.812730 0.889296 0.611960 0.382643
S4    S     S_3+6 0.124618 0.243507 0.381983 0.070543
O18   O     O_2   0.049483 0.223986 0.415878 -0.317511
O19   O     O_2   0.088800 0.241810 0.301974 -0.261192
O20   O     O_3   0.212280 0.163789 0.408206 -0.466599
H28   H     H_    0.187269 0.110704 0.388040 0.382643

loop_
_geom_bond_atom_site_label_1
_geom_bond_atom_site_label_2
_ccdc_geom_bond_type
C15   C18   A    
S1    O9    D    
O5    Zn1   S    
C27   C29   A    
C2    O2    A    
O20   H28   S    
C41   H9    S    
C4    C8    A    
C22   S4    S    
C39   C41   A    
C28   H5    S    
C21   C31   A    
O14   H26   S    
C22   C32   A    
C35   C37   A    
C3    C7    A    
O4    Zn1   S    
C20   H16   S    
N2    N4    A    
C43   C52   S    
C23   C49   S    
O17   H27   S    
C15   C16   A    
C29   C33   A    
C33   C36   A    
S4    O18   D    
C35   H7    S    
C34   C35   A    
N5    Zn2   S    
C11   C15   A    
C12   C16   A    
C16   C17   A    
C23   O7    A    
C19   H15   S    
C32   C38   A    
C42   H10   S    
C5    C13   A    
C26   S1    S    
C40   C42   A    
C26   N6    A    
C23   O5    A    
C25   N5    A    
C41   C43   A    
C42   C44   A    
O3    Zn2   S    
C44   C46   A    
C6    H22   S    
C45   C47   A    
C24   C50   S    
C46   C48   A    
C30   C34   A    
C28   N6    A    
C14   C20   A    
C27   N5    A    
C9    H18   S    
C47   C49   A    
C7    H20   S    
C5    C7    A    
C13   C19   A    
C6    C8    A    
C45   H11   S    
N6    Zn1   S    
C31   C37   A    
C46   H12   S    
C1    C3    S    
C21   S3    S    
C2    C4    S    
C3    C9    A    
C6    C14   A    
C9    C11   A    
O11   H25   S    
C33   C34   A    
N1    N3    A    
S3    O16   D    
O6    Zn2   S    
O7    Zn2   S    
C43   C45   A    
C10   C12   A    
C44   C51   S    
C39   C49   A    
C12   C14   A    
S1    O11   S    
C40   H2    S    
C1    O3    A    
C4    C10   A    
C52   N1    A    
C21   C25   A    
C8    H19   S    
C18   H24   S    
C24   O6    A    
C36   H8    S    
C27   H6    S    
C24   O8    A    
C1    O1    A    
S2    O14   S    
O1    Zn1   S    
S2    O13   D    
S4    O20   S    
C28   C30   A    
C51   N2    A    
C29   C31   A    
C36   C38   A    
C30   C32   A    
C11   C13   A    
O8    Zn1   S    
C39   H1    S    
C40   C50   A    
C48   C50   A    
C17   C19   A    
S4    O19   D    
C2    O4    A    
S3    O17   S    
C18   C20   A    
C5    H21   S    
C51   N3    A    
C37   H3    S    
C10   H17   S    
C25   S2    S    
C38   H4    S    
S1    O10   D    
S2    O12   D    
C22   C26   A    
S3    O15   D    
C17   H23   S    
O2    Zn2   S    
C48   H14   S    
C52   N4    A    
C47   H13   S    
