data_mof_unit_16043.cif
_audit_creation_date              2012-12-10T17:07:10-0500
_audit_creation_method            fapswitch 2.2
_symmetry_space_group_name_H-M    P1
_symmetry_Int_Tables_number       1
_space_group_crystal_system       triclinic
_cell_length_a                    17.159388
_cell_length_b                    11.067924
_cell_length_c                    9.9674
_cell_angle_alpha                 112.09311
_cell_angle_beta                  93.173293
_cell_angle_gamma                 94.928515
_cell_volume                      1739.6179993

loop_
_atom_site_label
_atom_site_type_symbol
_atom_type_description
_atom_site_fract_x
_atom_site_fract_y
_atom_site_fract_z
_atom_type_partial_charge
C1    C     C_R   0.494279 0.253509 0.439406 0.823860
C2    C     C_R   0.505345 0.746492 0.560617 0.824011
C3    C     C_2   0.491512 0.111465 0.401986 0.010172
C4    C     C_2   0.506564 0.888401 0.597993 0.007780
C5    C     C_2   0.493616 0.068531 0.511683 -0.157452
C6    C     C_2   0.493444 0.929849 0.488741 -0.156994
C7    C     C_2   0.508133 0.511775 0.079364 0.254589
C8    C     C_2   0.491760 0.488445 0.920737 0.256916
C9    C     C_R   0.351939 0.503784 0.520961 0.808866
C10   C     C_R   0.648050 0.496134 0.479016 0.810704
C11   C     C_R   0.267401 0.500215 0.535609 -0.088596
C12   C     C_R   0.732564 0.499369 0.464256 -0.088656
C13   C     C_R   0.217886 0.404648 0.422979 -0.292480
C14   C     C_R   0.782187 0.594944 0.576668 -0.292327
C15   C     C_R   0.137281 0.393572 0.429341 -0.019297
C16   C     C_R   0.862781 0.605687 0.570148 -0.019199
C17   C     C_R   0.104579 0.479432 0.550570 0.064762
C18   C     C_R   0.895360 0.519492 0.448977 0.064644
C19   C     C_R   0.153858 0.572886 0.669813 0.188397
C20   C     C_R   0.845974 0.425990 0.329958 0.188333
C21   C     C_R   0.236139 0.586525 0.660190 0.147041
C22   C     C_R   0.763704 0.412675 0.339767 0.147545
C23   C     C_2   0.018842 0.478683 0.546095 -0.188516
C24   C     C_2   0.981078 0.520025 0.453283 -0.188650
Cu1   Cu    Cu3+1 0.513640 0.521550 0.643210 0.926908
Cu2   Cu    Cu3+1 0.486360 0.478450 0.356790 0.925988
H1    H     H_    0.242499 0.337151 0.329535 0.166222
H2    H     H_    0.757662 0.662700 0.670050 0.166004
H3    H     H_    0.012848 0.550519 0.377826 0.158311
H4    H     H_    0.987065 0.448218 0.621565 0.158326
H5    H     H_    0.482619 0.858601 0.377804 0.178072
H6    H     H_    0.496199 0.138713 0.622852 0.174960
H7    H     H_    0.579618 0.623671 0.917196 0.186806
H8    H     H_    0.420378 0.376330 0.082834 0.187346
N1    N     N_2   0.465840 0.446060 0.141630 -0.288833
N2    N     N_2   0.534160 0.553940 0.858370 -0.288310
O1    O     O_R   0.507280 0.332200 0.576490 -0.597492
O2    O     O_R   0.492720 0.667800 0.423510 -0.598926
O3    O     O_R   0.484240 0.295800 0.334620 -0.568748
O4    O     O_R   0.515760 0.704200 0.665380 -0.568565
O5    O     O_R   0.399260 0.520290 0.634950 -0.581474
O6    O     O_R   0.600740 0.479710 0.365050 -0.581588
O7    O     O_R   0.376220 0.483890 0.393080 -0.570735
O8    O     O_R   0.623780 0.516110 0.606920 -0.570142
C25   C     C_3   0.709189 0.305160 0.221810 -0.823946
H9    H     H_    0.667281 0.256008 0.271555 0.227311
H10   H     H_    0.676076 0.347996 0.155049 0.248431
H11   H     H_    0.740011 0.226263 0.147841 0.228911
C26   C     C_3   0.290529 0.693986 0.778452 -0.823112
H12   H     H_    0.332377 0.743518 0.728994 0.227154
H13   H     H_    0.259611 0.772607 0.852613 0.228728
H14   H     H_    0.323709 0.651008 0.844978 0.248232
C27   C     C_3   0.119523 0.658110 0.805944 -0.826211
H15   H     H_    0.057197 0.625883 0.810160 0.237936
H16   H     H_    0.151863 0.654002 0.903492 0.229363
H17   H     H_    0.123816 0.761067 0.813186 0.247791
C28   C     C_3   0.880189 0.340408 0.193873 -0.826045
H18   H     H_    0.942517 0.372469 0.189421 0.238074
H19   H     H_    0.875853 0.237550 0.186973 0.247644
H20   H     H_    0.847805 0.344329 0.096264 0.229481
C29   C     C_1   0.910910 0.708815 0.688254 0.248926
N3    N     N_1   0.949087 0.791897 0.782800 -0.284520
C30   C     C_1   0.089277 0.290462 0.310999 0.248762
N4    N     N_1   0.051199 0.207401 0.216269 -0.284513
C31   C     C_3   0.522094 0.983034 0.755416 -0.871784
H21   H     H_    0.533275 0.932336 0.830490 0.249811
H22   H     H_    0.574667 0.053865 0.768624 0.238997
H23   H     H_    0.470343 0.037091 0.789343 0.228452
C32   C     C_3   0.488067 0.018617 0.244063 -0.874879
H24   H     H_    0.489038 0.071144 0.168717 0.250310
H25   H     H_    0.539650 0.962253 0.227014 0.230163
H26   H     H_    0.433105 0.949784 0.213913 0.236800
C33   C     C_3   0.423502 0.385504 0.838757 -0.786852
H27   H     H_    0.368674 0.415962 0.889495 0.189759
H28   H     H_    0.410610 0.365084 0.724195 0.280691
H29   H     H_    0.434837 0.289917 0.843673 0.175801
C34   C     C_3   0.576183 0.615104 0.161533 -0.783850
H30   H     H_    0.631058 0.585351 0.110582 0.188593
H31   H     H_    0.564398 0.710746 0.157254 0.178039
H32   H     H_    0.589346 0.634980 0.275894 0.281970

loop_
_geom_bond_atom_site_label_1
_geom_bond_atom_site_label_2
_ccdc_geom_bond_type
C34   H30   S    
C10   O6    A    
C33   H27   S    
C21   C26   S    
C7    C8    S    
C25   H9    S    
C17   C23   S    
C18   C24   S    
C19   C21   A    
Cu1   O4    S    
C5    C6    S    
Cu2   O3    S    
C28   H19   S    
C12   C22   A    
H7    N2    S    
H8    N1    S    
C8    N2    D    
C25   H10   S    
C32   H25   S    
C24   H3    S    
Cu1   O1    S    
C31   H22   S    
C23   C24   D    
C1    O1    A    
C7    C34   S    
C5    H6    S    
C19   C27   S    
C34   H31   S    
C6    H5    S    
C33   H28   S    
C32   H24   S    
Cu1   O8    S    
Cu2   O7    S    
C27   H16   S    
C9    O7    A    
C10   O8    A    
C23   H4    S    
C4    C6    D    
Cu1   O5    S    
Cu2   O2    S    
C28   H20   S    
C25   H11   S    
C26   H13   S    
Cu1   Cu2   S    
C27   H15   S    
C11   C21   A    
C1    C3    S    
C32   H26   S    
C2    C4    S    
C2    O2    A    
C31   H23   S    
C9    C11   S    
C10   C12   S    
C12   C14   A    
C26   H12   S    
C13   C15   A    
C33   H29   S    
C14   C16   A    
C16   C29   S    
Cu2   O6    S    
C27   H17   S    
C15   C17   A    
C3    C32   S    
C7    N1    D    
C26   H14   S    
C20   C22   A    
C3    C5    D    
C9    O5    A    
C11   C13   A    
C28   H18   S    
C4    C31   S    
C34   H32   S    
C8    C33   S    
C17   C19   A    
C18   C20   A    
C29   N3    T    
C1    O3    A    
Cu1   N2    S    
C30   N4    T    
C2    O4    A    
Cu2   N1    S    
C22   C25   S    
C16   C18   A    
C31   H21   S    
C15   C30   S    
C13   H1    S    
C14   H2    S    
C20   C28   S    
