data_mof_unit_39763.cif
_audit_creation_date              2012-12-11T14:36:27-0500
_audit_creation_method            fapswitch 2.2
_symmetry_space_group_name_H-M    P1
_symmetry_Int_Tables_number       1
_space_group_crystal_system       triclinic
_cell_length_a                    13.548086
_cell_length_b                    13.506201
_cell_length_c                    27.550706
_cell_angle_alpha                 91.391103
_cell_angle_beta                  90.802925
_cell_angle_gamma                 59.854426
_cell_volume                      4358.19439939

loop_
_atom_site_label
_atom_site_type_symbol
_atom_type_description
_atom_site_fract_x
_atom_site_fract_y
_atom_site_fract_z
_atom_type_partial_charge
C1    C     C_R   0.621756 0.103086 0.569320 0.545291
C2    C     C_1   0.648433 0.704385 0.658214 0.060738
C3    C     C_3   0.473262 0.117005 0.695652 0.016321
C4    C     C_3   0.430340 0.787082 0.119951 -0.103046
C5    C     C_3   0.141879 0.963199 0.401460 -0.042035
C6    C     C_3   0.064034 0.915337 0.202594 -0.094939
C7    C     C_3   0.217016 0.460768 0.207421 -0.129526
C8    C     C_3   0.444012 0.446758 0.122994 -0.052481
C9    C     C_3   0.380784 0.336862 0.383216 -0.060754
C10   C     C_3   0.550836 0.546213 0.234947 -0.064344
C11   C     C_3   0.371134 0.553897 0.320195 -0.030336
C12   C     C_3   0.921761 0.791820 0.281852 -0.113976
C13   C     C_3   0.059146 0.195636 0.736105 0.429360
C14   C     C_R   0.599548 0.780261 0.568854 0.553393
C15   C     C_3   0.124721 0.095141 0.771139 0.450878
C16   C     C_1   0.094780 0.200247 0.902065 0.024928
C17   C     C_1   0.227142 0.141516 0.616729 0.025922
C18   C     C_3   0.075945 0.275499 0.772353 0.216022
C19   C     C_3   0.141436 0.174363 0.807454 -0.100824
C20   C     C_3   0.187978 0.245778 0.746255 0.150357
C21   C     C_3   0.172107 0.164898 0.710649 -0.118210
C22   C     C_1   0.631152 0.732734 0.616377 0.046525
C23   C     C_3   0.253604 0.145869 0.781725 0.229918
C24   C     C_3   0.237574 0.065228 0.745929 0.388690
C25   C     C_1   0.120519 0.182660 0.859801 0.044121
C26   C     C_R   0.277685 0.122482 0.569508 0.539345
C27   C     C_1   0.196735 0.153632 0.658445 0.033737
C28   C     C_3   0.666322 0.273230 0.738993 -0.079003
C29   C     C_3   0.571618 0.284040 0.773980 -0.131444
C30   C     C_1   0.691771 0.208668 0.902085 0.035290
C31   C     C_1   0.642329 0.140319 0.615633 0.020157
C32   C     C_3   0.757138 0.180504 0.772204 0.508592
C33   C     C_3   0.715922 0.553179 0.766237 0.394724
C34   C     C_3   0.663757 0.191007 0.806535 -0.079325
C35   C     C_3   0.749943 0.085974 0.743161 0.407827
C36   C     C_3   0.659505 0.177671 0.709954 -0.041517
C37   C     C_3   0.656645 0.094958 0.777923 -0.127905
C38   C     C_R   0.620551 0.098404 0.430523 0.563987
C39   C     C_3   0.566766 0.187594 0.744575 0.227243
C40   C     C_1   0.674761 0.199306 0.859490 0.014770
C41   C     C_1   0.654088 0.162394 0.657229 0.028454
C42   C     C_R   0.719047 0.648511 0.364494 0.357079
C43   C     C_R   0.741530 0.627833 0.314945 0.035207
C44   C     C_3   0.679577 0.648011 0.805494 -0.071543
C45   C     C_R   0.774648 0.580920 0.215543 -0.012667
C46   C     C_R   0.848810 0.500494 0.248808 -0.121904
C47   C     C_R   0.833291 0.524117 0.298278 -0.097325
C48   C     C_R   0.783681 0.551742 0.166873 -0.162226
C49   C     C_R   0.699536 0.623332 0.134139 0.031698
C50   C     C_R   0.600332 0.778430 0.430180 0.606853
C51   C     C_R   0.551424 0.832647 0.346874 -0.150417
C52   C     C_R   0.573731 0.814664 0.297582 0.023543
C53   C     C_R   0.667744 0.710911 0.281319 0.033855
C54   C     C_R   0.502292 0.897347 0.264360 -0.103324
C55   C     C_3   0.603706 0.627001 0.738704 0.395875
C56   C     C_R   0.517575 0.873168 0.214724 -0.105583
C57   C     C_R   0.604261 0.765637 0.197873 0.016125
C58   C     C_R   0.684266 0.687450 0.231442 0.016412
C59   C     C_R   0.608657 0.730405 0.148971 0.250492
C60   C     C_R   0.622299 0.748829 0.379763 0.040352
C61   C     C_R   0.213203 0.052380 0.357525 0.263094
C62   C     C_R   0.277168 0.120316 0.431103 0.537676
C63   C     C_R   0.192266 0.064227 0.307016 -0.016873
C64   C     C_R   0.155702 0.090680 0.205798 -0.043034
C65   C     C_R   0.173463 0.989915 0.227762 0.266879
C66   C     C_3   0.661833 0.680252 0.710256 -0.054210
C67   C     C_R   0.195839 0.975279 0.277695 0.392630
C68   C     C_R   0.130921 0.108263 0.156137 -0.120352
C69   C     C_R   0.105624 0.212237 0.135570 -0.029675
C70   C     C_R   0.180021 0.246963 0.363156 -0.175399
C71   C     C_R   0.163070 0.258469 0.313532 -0.044707
C72   C     C_R   0.170681 0.166825 0.285017 -0.072980
C73   C     C_R   0.144705 0.358855 0.291985 -0.106431
C74   C     C_3   0.775517 0.605599 0.737385 -0.173835
C75   C     C_R   0.135809 0.369158 0.241844 0.266691
C76   C     C_R   0.138573 0.280191 0.212942 0.020484
C77   C     C_3   0.567469 0.721340 0.778101 0.460400
C78   C     C_R   0.156252 0.178558 0.234516 -0.046841
C79   C     C_R   0.115507 0.294788 0.163487 -0.132920
C80   C     C_R   0.216104 0.141508 0.384566 -0.016368
C81   C     C_R   0.568509 0.240059 0.363394 0.289622
C82   C     C_R   0.578361 0.261729 0.314186 -0.002462
C83   C     C_R   0.588022 0.297680 0.213980 -0.025726
C84   C     C_R   0.529878 0.392368 0.246633 0.258453
C85   C     C_R   0.524173 0.374842 0.296696 0.270937
C86   C     C_3   0.738569 0.701584 0.777388 -0.216366
C87   C     C_R   0.598163 0.312723 0.163995 0.203857
C88   C     C_3   0.625369 0.774618 0.749760 0.395649
C89   C     C_R   0.673342 0.217406 0.134638 0.003135
C90   C     C_R   0.701360 0.037299 0.349231 -0.169803
C91   C     C_R   0.700277 0.054466 0.299683 0.018535
C92   C     C_R   0.640841 0.167419 0.281992 -0.079816
C93   C     C_R   0.757165 0.959752 0.267666 0.259573
C94   C     C_R   0.757090 0.978254 0.218119 -0.073864
C95   C     C_R   0.705243 0.089646 0.200451 -0.022480
C96   C     C_R   0.644103 0.185184 0.232130 -0.105774
C97   C     C_R   0.718888 0.106410 0.151921 0.313670
C98   C     C_1   0.697039 0.604225 0.899941 0.038990
C99   C     C_1   0.688348 0.627980 0.857700 0.045149
C100  C     C_R   0.635133 0.128199 0.381234 -0.023691
C101  C     C_R   0.049079 0.235636 0.949943 0.544420
C102  C     C_R   0.711513 0.561905 0.948146 0.556971
C103  C     C_R   0.722321 0.225496 0.950588 0.550162
C104  C     C_R   0.048165 0.245583 0.088470 0.532828
C105  C     C_R   0.708441 0.575643 0.085873 0.590149
C106  C     C_R   0.717920 0.234769 0.089237 0.587903
C107  C     C_3   0.356027 0.196496 0.834433 -0.046583
C108  C     C_3   0.142839 0.411950 0.705893 -0.060026
C109  C     C_3   0.017227 0.437105 0.821605 -0.092280
Cr1   Cr    Cr6+3 0.417550 0.169090 0.500530 1.045175
Cr2   Cr    Cr6+3 0.669180 0.913420 0.499920 1.066173
Cr3   Cr    Cr6+3 0.413260 0.917540 0.499520 1.085162
Cr4   Cr    Cr6+3 0.909170 0.177380 0.020380 1.084685
Cr5   Cr    Cr6+3 0.912710 0.429210 0.018220 1.038045
Cr6   Cr    Cr6+3 0.657170 0.432570 0.019030 1.049761
F1    F     F_    0.843727 0.985040 0.727277 -0.542330
F2    F     F_    0.093734 0.015594 0.782975 -0.469403
F3    F     F_    0.958233 0.222871 0.712449 -0.512498
F4    F     F_    0.321412 0.955775 0.732519 -0.495053
F5    F     F_    0.856939 0.175268 0.787779 -0.479110
F6    F     F_    0.788810 0.571215 0.397665 -0.636673
F7    F     F_    0.576706 0.890129 0.742065 -0.600352
F8    F     F_    0.220049 0.873796 0.296895 -0.621036
F9    F     F_    0.782727 0.014569 0.122139 -0.630960
F10   F     F_    0.460736 0.781460 0.799244 -0.494501
F11   F     F_    0.534880 0.587913 0.718935 -0.568869
F12   F     F_    0.761361 0.438377 0.775728 -0.533093
H1    H     H_    0.792697 0.734109 0.793474 0.162884
H2    H     H_    0.432166 0.978969 0.276782 0.110495
H3    H     H_    0.479430 0.912503 0.359966 0.135843
H4    H     H_    0.124528 0.044319 0.133987 0.166963
H5    H     H_    0.095265 0.375334 0.147512 0.179246
H6    H     H_    0.138971 0.429253 0.313973 0.114712
H7    H     H_    0.175702 0.317614 0.384449 0.135901
H8    H     H_    0.799037 0.904891 0.193599 0.184512
H9    H     H_    0.748127 0.950766 0.362655 0.191102
H10   H     H_    0.326685 0.277935 0.815194 0.176053
H11   H     H_    0.443306 0.168601 0.848170 0.143233
H12   H     H_    0.496102 0.364793 0.786833 0.181580
H13   H     H_    0.301409 0.210755 0.866446 0.087056
H14   H     H_    0.076122 0.478592 0.729719 0.148462
H15   H     H_    0.102983 0.382873 0.677678 0.125302
H16   H     H_    0.184612 0.452499 0.686819 0.169167
H17   H     H_    0.967662 0.531383 0.817867 0.135890
H18   H     H_    0.109201 0.411475 0.821361 0.110332
H19   H     H_    0.993907 0.417399 0.857033 0.149795
H20   H     H_    0.561280 0.042537 0.691907 0.160874
H21   H     H_    0.444314 0.160640 0.660375 0.108216
H22   H     H_    0.417261 0.082307 0.704187 0.230648
H23   H     H_    0.671360 0.344873 0.722744 0.244029
H24   H     H_    0.385288 0.823861 0.154855 0.151820
H25   H     H_    0.452460 0.696033 0.116467 0.153941
H26   H     H_    0.369725 0.834506 0.090306 0.153226
H27   H     H_    0.163166 0.880917 0.418207 0.148223
H28   H     H_    0.072941 0.983510 0.374298 0.129578
H29   H     H_    0.110678 0.029990 0.430843 0.105078
H30   H     H_    0.998032 0.997802 0.186868 0.129258
H31   H     H_    0.040967 0.908964 0.240510 0.137683
H32   H     H_    0.064027 0.845045 0.180915 0.155312
H33   H     H_    0.251201 0.402859 0.175054 0.107599
H34   H     H_    0.651519 0.022538 0.793374 0.193521
H35   H     H_    0.282010 0.428677 0.236939 0.113456
H36   H     H_    0.201397 0.546499 0.197335 0.156899
H37   H     H_    0.454287 0.379586 0.095955 0.097463
H38   H     H_    0.410208 0.528385 0.103461 0.133575
H39   H     H_    0.380537 0.458924 0.150728 0.120865
H40   H     H_    0.345236 0.380244 0.348441 0.085525
H41   H     H_    0.320554 0.389021 0.412585 0.148869
H42   H     H_    0.384868 0.252617 0.380983 0.127987
H43   H     H_    0.630657 0.493201 0.214021 0.148235
H44   H     H_    0.571733 0.552423 0.273656 0.145033
H45   H     H_    0.851926 0.468190 0.154875 0.134268
H46   H     H_    0.507416 0.633777 0.220278 0.150940
H47   H     H_    0.322196 0.526642 0.296156 0.092284
H48   H     H_    0.372380 0.627988 0.304363 0.212768
H49   H     H_    0.323999 0.584382 0.354996 0.147956
H50   H     H_    0.956723 0.839601 0.302303 0.115110
H51   H     H_    0.951835 0.775604 0.243611 0.127293
H52   H     H_    0.956092 0.707203 0.298979 0.172761
H53   H     H_    0.860701 0.557091 0.720022 0.175067
H54   H     H_    0.914726 0.416737 0.236586 0.130336
H55   H     H_    0.890165 0.459261 0.323329 0.180181
H56   H     H_    0.458618 0.937008 0.189854 0.154839
O1    O     O_R   0.301710 0.195650 0.554160 -0.509738
O2    O     O_R   0.635520 0.542770 0.964420 -0.492192
O3    O     O_R   0.665950 0.325030 0.970100 -0.504851
O4    O     O_R   0.522390 0.158990 0.550460 -0.494399
O5    O     O_R   0.816620 0.158530 0.074540 -0.452667
O6    O     O_R   0.004460 0.188870 0.069750 -0.505423
O7    O     O_R   0.025800 0.341780 0.072300 -0.522534
O8    O     O_R   0.807650 0.528950 0.067500 -0.504188
O9    O     O_R   0.633420 0.550490 0.071810 -0.492327
O10   O     O_R   0.664000 0.332180 0.069640 -0.482300
O11   O     O_3   0.826350 0.346390 0.019210 -0.269999
O12   O     O_R   0.658900 0.818120 0.449760 -0.489026
O13   O     O_R   0.694390 0.003530 0.554040 -0.487420
O14   O     O_R   0.657700 0.819660 0.549320 -0.494410
O15   O     O_R   0.501930 0.803280 0.552920 -0.481787
O16   O     O_R   0.318170 0.023580 0.549580 -0.484929
O17   O     O_R   0.303010 0.193990 0.446760 -0.545730
O18   O     O_R   0.523600 0.157450 0.450900 -0.467911
O19   O     O_R   0.695690 0.001860 0.446640 -0.527918
O20   O     O_3   0.361227 0.109568 0.803397 -0.449905
O21   O     O_3   0.226043 0.321868 0.733828 -0.528207
O22   O     O_3   0.985775 0.386736 0.783524 -0.488744
O23   O     O_R   0.503220 0.801620 0.445520 -0.486129
O24   O     O_3   0.460763 0.197785 0.732077 -0.492432
O25   O     O_3   0.527168 0.799811 0.115576 -0.565947
O26   O     O_3   0.241018 0.950410 0.379353 -0.492708
O27   O     O_3   0.173702 0.902832 0.200198 -0.564752
O28   O     O_3   0.112901 0.471621 0.222138 -0.582093
O29   O     O_3   0.548097 0.421660 0.145277 -0.518452
O30   O     O_3   0.488557 0.325719 0.393416 -0.496660
O31   O     O_3   0.476023 0.502891 0.229747 -0.556504
O32   O     O_3   0.483908 0.465846 0.330242 -0.523685
O33   O     O_3   0.801682 0.849354 0.284356 -0.577870
O34   O     O_R   0.319370 0.022040 0.450020 -0.462606
O35   O     O_3   0.499990 0.000010 0.499990 -0.282692
O36   O     O_R   0.818720 0.150820 0.967160 -0.481014
O37   O     O_R   0.006410 0.181720 0.970200 -0.475685
O38   O     O_R   0.027890 0.334070 0.964920 -0.523675
O39   O     O_R   0.809600 0.521790 0.967960 -0.499650

loop_
_geom_bond_atom_site_label_1
_geom_bond_atom_site_label_2
_ccdc_geom_bond_type
C59   O25   S    
C33   C55   S    
C12   H51   S    
C28   H23   S    
C93   C94   A    
Cr5   O7    S    
C34   C37   S    
Cr4   O11   S    
C105  O8    A    
C9    H42   S    
C109  H19   S    
C76   C79   A    
C92   C96   A    
C103  O36   A    
C6    H30   S    
C108  H15   S    
C81   C82   A    
C90   C91   A    
C31   C41   T    
C45   C46   A    
C3    H20   S    
C14   O15   A    
C75   O28   S    
C11   H49   S    
C13   C18   S    
C18   O22   S    
C34   C40   S    
C17   C26   S    
C64   C68   A    
C46   H54   S    
C62   C80   S    
C44   C77   S    
C35   C37   S    
C76   C78   A    
C97   F9    S    
C85   O32   S    
C66   C88   S    
C55   C77   S    
C44   C99   S    
C86   C88   S    
C57   C59   A    
C83   C96   A    
C61   C80   A    
C5    H27   S    
C66   C74   S    
C1    C31   S    
C82   C92   A    
C56   C57   A    
C18   C19   S    
C87   O29   S    
C90   C100  A    
C107  H13   S    
C61   C63   A    
C72   C78   A    
C48   H45   S    
C43   C53   A    
C81   O30   S    
C35   C36   S    
C77   C88   S    
C84   O31   S    
C68   C69   A    
C65   C67   A    
C38   O18   A    
C39   O24   S    
C30   C103  S    
C2    C22   T    
C23   C24   S    
C55   F11   S    
C70   C71   A    
Cr2   O35   S    
Cr5   O11   S    
Cr3   O16   S    
C5    H29   S    
Cr2   O13   S    
Cr1   O4    S    
C10   H46   S    
Cr3   O23   S    
C12   H50   S    
C21   C27   S    
Cr1   O1    S    
C3    H21   S    
C93   O33   S    
C73   C75   A    
C105  O9    A    
C36   C41   S    
C103  O3    A    
C32   F5    S    
C47   H55   S    
C44   C86   S    
Cr2   O19   S    
Cr3   O15   S    
C108  H14   S    
C6    H31   S    
C51   H3    S    
C52   C54   A    
C4    O25   S    
C106  O10   A    
C54   C56   A    
C1    O4    A    
C29   H12   S    
C14   O14   A    
C63   C67   A    
C45   C58   A    
C3    H22   S    
C102  O2    A    
Cr1   O17   S    
C51   C52   A    
C17   C27   T    
C32   C35   S    
C13   F3    S    
C28   C32   S    
C1    O13   A    
C84   C85   A    
C20   O21   S    
C38   C100  S    
C8    H37   S    
C42   C60   A    
C91   C92   A    
C71   C73   A    
Cr6   O3    S    
C19   C23   S    
C10   O31   S    
C49   C105  S    
C7    H33   S    
C9    O30   S    
C10   H44   S    
C98   C102  S    
Cr4   O5    S    
C86   H1    S    
C29   C34   S    
C36   C39   S    
C6    H32   S    
C15   F2    S    
C89   C97   A    
C32   C34   S    
C89   C106  S    
C68   H4    S    
C15   C19   S    
C75   C76   A    
C62   O34   A    
C107  O20   S    
C107  H10   S    
C91   C93   A    
C90   H9    S    
C50   O12   A    
C16   C101  S    
C79   H5    S    
C83   C84   A    
C20   C23   S    
C9    H40   S    
Cr3   O34   S    
C104  O7    A    
C29   C39   S    
C94   H8    S    
C13   C21   S    
C35   F1    S    
C70   C80   A    
C61   O26   S    
Cr5   O39   S    
C4    H25   S    
C109  O22   S    
C26   O16   A    
C5    O26   S    
C65   O27   S    
C8    H39   S    
Cr6   O9    S    
C50   O23   A    
C88   F7    S    
C15   C24   S    
C56   H56   S    
Cr6   O11   S    
C73   H6    S    
Cr1   O18   S    
C69   C79   A    
C10   H43   S    
C42   C43   A    
C12   O33   S    
C28   C29   S    
C55   C66   S    
C77   F10   S    
C52   C53   A    
C102  O39   A    
C37   H34   S    
C45   C48   A    
C101  O38   A    
C16   C25   T    
C4    H24   S    
C30   C40   T    
C46   C47   A    
C48   C49   A    
C11   H47   S    
Cr5   O8    S    
Cr4   O37   S    
C20   C21   S    
C33   C44   S    
C64   C78   A    
C54   H2    S    
C9    H41   S    
C109  H18   S    
C2    C66   S    
C67   F8    S    
C83   C87   A    
C7    O28   S    
C53   C58   A    
C95   C97   A    
C33   F12   S    
C6    O27   S    
C81   C100  A    
C24   F4    S    
C74   C86   S    
C82   C85   A    
Cr4   O6    S    
C11   H48   S    
C49   C59   A    
C50   C60   S    
C64   C65   A    
C14   C22   S    
C107  H11   S    
C13   C15   S    
C106  O5    A    
C71   C72   A    
C37   C39   S    
C5    H28   S    
Cr2   O14   S    
C101  O37   A    
C57   C58   A    
Cr2   O12   S    
C7    H36   S    
Cr6   O2    S    
C104  O6    A    
C3    O24   S    
C4    H26   S    
C109  H17   S    
C18   C20   S    
Cr5   O38   S    
Cr6   O10   S    
C94   C95   A    
Cr1   O35   S    
C8    H38   S    
C19   C25   S    
C62   O17   A    
C33   C74   S    
C12   H52   S    
C74   H53   S    
C63   C72   A    
C28   C36   S    
C108  O21   S    
C98   C99   T    
C38   O19   A    
C21   C24   S    
C23   O20   S    
C95   C96   A    
C70   H7    S    
C87   C89   A    
Cr3   O35   S    
C7    H35   S    
C51   C60   A    
C8    O29   S    
C43   C47   A    
Cr4   O36   S    
C108  H16   S    
C42   F6    S    
C11   O32   S    
C69   C104  S    
C26   O1    A    
