data_mof_unit_54067.cif
_audit_creation_date              2012-12-10T20:39:57-0500
_audit_creation_method            fapswitch 2.2
_symmetry_space_group_name_H-M    P1
_symmetry_Int_Tables_number       1
_space_group_crystal_system       triclinic
_cell_length_a                    23.311234
_cell_length_b                    10.730313
_cell_length_c                    9.855416
_cell_angle_alpha                 89.831226
_cell_angle_beta                  90.439077
_cell_angle_gamma                 91.176007
_cell_volume                      2464.60137446

loop_
_atom_site_label
_atom_site_type_symbol
_atom_type_description
_atom_site_fract_x
_atom_site_fract_y
_atom_site_fract_z
_atom_type_partial_charge
C1    C     C_R   0.500457 0.259892 0.500412 0.879097
C2    C     C_R   0.969843 0.384958 0.750653 -0.197964
C3    C     C_R   0.029721 0.392098 0.753934 -0.019165
C4    C     C_R   0.060432 0.427155 0.635135 -0.057127
C5    C     C_R   0.029435 0.452468 0.514143 -0.028329
C6    C     C_R   0.058479 0.487946 0.394477 -0.009210
C7    C     C_R   0.027569 0.511808 0.274780 -0.148255
C8    C     C_R   0.968103 0.502573 0.273412 -0.157251
C9    C     C_R   0.120830 0.438357 0.631011 0.506391
C10   C     C_R   0.118031 0.499211 0.397296 0.524392
C11   C     C_R   0.236987 0.583918 0.569663 -0.143268
C12   C     C_R   0.389565 0.501526 0.499779 0.858777
C13   C     C_R   0.296745 0.595074 0.565253 0.052825
C14   C     C_R   0.327553 0.500519 0.500179 -0.057505
C15   C     C_R   0.298952 0.398008 0.441792 -0.322923
C16   C     C_R   0.239595 0.387471 0.447427 0.051327
C17   C     C_R   0.208640 0.481135 0.511084 0.251825
C18   C     C_R   0.754601 0.359785 0.465845 -0.139093
C19   C     C_R   0.695866 0.376249 0.456858 -0.056268
C20   C     C_R   0.672318 0.488597 0.501556 -0.108158
C21   C     C_R   0.707954 0.587837 0.548558 0.017143
C22   C     C_R   0.767561 0.569599 0.556402 0.022213
C23   C     C_R   0.498967 0.739737 0.499824 0.870548
C24   C     C_R   0.790144 0.455050 0.516131 0.231828
C25   C     C_R   0.496122 0.061960 0.623835 0.046572
C26   C     C_R   0.496670 0.127549 0.501113 -0.096605
C27   C     C_R   0.488793 0.063840 0.378236 -0.208516
C28   C     C_R   0.486224 0.935387 0.377611 -0.223096
C29   C     C_R   0.492889 0.870768 0.500016 -0.095711
C30   C     C_R   0.493901 0.934570 0.622640 0.098329
C31   C     C_3   0.533730 0.922332 0.741200 -0.516918
C32   C     C_3   0.536588 0.063685 0.743851 -0.204747
C33   C     C_R   0.456183 0.442494 0.070619 0.159134
C34   C     C_R   0.610437 0.500346 0.500326 0.888007
C35   C     C_R   0.540636 0.564817 0.072482 -0.115259
C36   C     C_R   0.540875 0.564124 0.928484 -0.112138
C37   C     C_R   0.454727 0.447634 0.927651 0.116412
C38   C     C_3   0.433990 0.316032 0.913501 -0.157390
C39   C     C_3   0.441956 0.305162 0.068193 -0.186275
C40   C     C_R   0.878658 0.467288 0.394483 0.516190
C41   C     C_R   0.879302 0.410095 0.629066 0.532427
C42   C     C_R   0.939334 0.411606 0.631512 -0.030165
C43   C     C_R   0.969105 0.444047 0.512498 -0.016991
C44   C     C_R   0.938491 0.470253 0.392015 -0.013724
H1    H     H_    0.947007 0.359557 0.842510 0.193077
H2    H     H_    0.487483 0.112466 0.282294 0.170596
H3    H     H_    0.482678 0.887545 0.281164 0.171357
H4    H     H_    0.511599 0.881291 0.830852 0.193284
H5    H     H_    0.574557 0.876583 0.714994 0.198118
H6    H     H_    0.518142 0.100711 0.838214 0.133628
H7    H     H_    0.574015 0.615415 0.127310 0.148567
H8    H     H_    0.574555 0.613758 0.874530 0.146570
H9    H     H_    0.465594 0.262329 0.856505 0.173003
H10   H     H_    0.480765 0.250848 0.093898 0.152109
H11   H     H_    0.049186 0.538560 0.181928 0.196512
H12   H     H_    0.945448 0.522685 0.179750 0.194999
H13   H     H_    0.212169 0.655686 0.617502 0.147693
H14   H     H_    0.323116 0.324186 0.396342 0.151966
H15   H     H_    0.773260 0.273998 0.430875 0.154144
N1    N     N_R   0.850681 0.440153 0.512469 -0.351992
N2    N     N_R   0.147556 0.473774 0.513728 -0.352400
N3    N     N_R   0.499610 0.499140 0.142800 -0.113870
N4    N     N_R   0.499610 0.499180 0.857150 -0.112422
O1    O     O_R   0.500010 0.316790 0.614690 -0.627147
O2    O     O_2   0.849638 0.381387 0.742394 -0.539821
O3    O     O_2   0.153022 0.413734 0.741798 -0.555007
O4    O     O_2   0.146580 0.535187 0.284585 -0.547443
O5    O     O_R   0.500000 0.316760 0.385350 -0.626491
O6    O     O_R   0.416160 0.499980 0.614700 -0.626796
O7    O     O_R   0.416150 0.499940 0.385360 -0.620915
O8    O     O_R   0.500000 0.683240 0.614650 -0.619190
O9    O     O_R   0.499990 0.683210 0.385310 -0.624171
O10   O     O_R   0.583850 0.500060 0.614640 -0.613282
O11   O     O_R   0.583840 0.500020 0.385300 -0.614894
O12   O     O_2   0.848466 0.494272 0.281058 -0.547044
Zn1   Zn    Zn3+2 0.500000 0.500020 0.653130 0.940202
Zn2   Zn    Zn3+2 0.500000 0.499980 0.346870 0.945311
C45   C     C_1   0.660430 0.278559 0.397092 0.210255
N5    N     N_1   0.631704 0.201430 0.348451 -0.213704
C46   C     C_3   0.683450 0.716542 0.570614 -0.435411
C47   C     C_3   0.679079 0.784364 0.433802 -0.358292
C48   C     C_3   0.658132 0.916799 0.449843 -0.820185
H16   H     H_    0.614668 0.916192 0.494456 0.261976
H17   H     H_    0.688155 0.971894 0.515250 0.273942
H18   H     H_    0.655980 0.961369 0.348304 0.264439
H19   H     H_    0.721925 0.788317 0.384914 0.244754
H20   H     H_    0.648881 0.732656 0.365451 0.226954
H21   H     H_    0.640604 0.709926 0.618728 0.198407
H22   H     H_    0.710637 0.772421 0.641762 0.219310
C49   C     C_1   0.806514 0.669132 0.598943 0.179745
N6    N     N_1   0.837722 0.748540 0.632827 -0.181077
C50   C     C_1   0.594051 0.115872 0.714214 0.243868
N7    N     N_1   0.639257 0.157120 0.691955 -0.201938
C51   C     C_1   0.057340 0.363706 0.881903 0.273977
N8    N     N_1   0.079232 0.340822 0.984555 -0.149741
C52   C     C_3   0.372539 0.306598 0.851822 -0.334010
C53   C     C_3   0.365727 0.191336 0.760713 -0.388356
C54   C     C_3   0.302922 0.164657 0.724548 -0.850185
H23   H     H_    0.278710 0.136903 0.816826 0.269035
H24   H     H_    0.283194 0.248498 0.679428 0.284540
H25   H     H_    0.299936 0.087324 0.650014 0.247444
H26   H     H_    0.390084 0.207354 0.665564 0.229708
H27   H     H_    0.383451 0.108184 0.812335 0.221014
H28   H     H_    0.338679 0.305714 0.929461 0.214546
H29   H     H_    0.363550 0.389668 0.789066 0.218045
C55   C     C_3   0.390999 0.266138 0.158595 -0.347377
C56   C     C_3   0.373415 0.128375 0.137398 -0.369329
C57   C     C_3   0.336723 0.078715 0.253887 -0.872308
H30   H     H_    0.360264 0.087377 0.351969 0.258668
H31   H     H_    0.296340 0.131133 0.259183 0.275201
H32   H     H_    0.325844 0.978773 0.236482 0.260853
H33   H     H_    0.348423 0.117136 0.042061 0.243164
H34   H     H_    0.411999 0.069933 0.129239 0.216492
H35   H     H_    0.405404 0.277950 0.265210 0.229541
H36   H     H_    0.353763 0.327939 0.144983 0.199173
C58   C     C_3   0.325689 0.709895 0.626131 -0.418559
C59   C     C_3   0.329951 0.698883 0.781052 -0.293447
C60   C     C_3   0.358294 0.815056 0.843054 -0.896036
H37   H     H_    0.402111 0.829650 0.801810 0.266528
H38   H     H_    0.332235 0.898175 0.820665 0.267068
H39   H     H_    0.361608 0.803710 0.954853 0.252158
H40   H     H_    0.286370 0.686127 0.824633 0.231768
H41   H     H_    0.355701 0.616639 0.809035 0.230356
H42   H     H_    0.369201 0.725698 0.583462 0.199814
H43   H     H_    0.300613 0.793432 0.598367 0.201584
C61   C     C_1   0.210780 0.279006 0.390894 0.182749
N9    N     N_1   0.187422 0.192211 0.345811 -0.186763

loop_
_geom_bond_atom_site_label_1
_geom_bond_atom_site_label_2
_ccdc_geom_bond_type
C39   C55   S    
C52   H29   S    
C28   H3    S    
C61   N9    T    
C40   N1    A    
C41   C42   A    
N3    Zn2   S    
C19   C20   A    
C7    H11   S    
C59   H40   S    
C8    H12   S    
C47   C48   S    
C7    C8    A    
C32   C50   S    
C10   O4    S    
C58   C59   S    
C26   C27   A    
C33   C39   S    
C55   H35   S    
C18   C24   A    
C23   C29   S    
C28   C29   A    
C37   C38   S    
C30   C31   S    
C39   H10   S    
C55   C56   S    
C15   C16   A    
O5    Zn2   S    
C1    O5    A    
C57   H30   S    
O6    Zn1   S    
C18   C19   A    
C56   H33   S    
C46   H22   S    
C9    O3    S    
C56   H34   S    
O9    Zn2   S    
C17   N2    S    
C60   H37   S    
C35   C36   A    
C16   C17   A    
O11   Zn2   S    
C56   C57   S    
C3    C51   S    
C36   N4    A    
C53   H26   S    
C36   H8    S    
C20   C34   S    
C25   C32   S    
C5    C43   A    
C13   C14   A    
O7    Zn2   S    
C31   H5    S    
C37   N4    A    
C53   C54   S    
C2    H1    S    
O1    Zn1   S    
C38   C39   S    
C23   O8    A    
C45   N5    T    
C33   N3    A    
C41   O2    S    
C25   C26   A    
C33   C37   A    
C60   H39   S    
C19   C45   S    
C43   C44   A    
C29   C30   A    
C31   C32   S    
C40   C44   A    
C24   N1    S    
C52   C53   S    
C22   C49   S    
C47   H19   S    
C47   H20   S    
C32   H6    S    
C53   H27   S    
C34   O11   A    
C27   H2    S    
C12   O6    A    
C12   C14   S    
C48   H16   S    
C48   H17   S    
C58   H43   S    
C52   H28   S    
C35   H7    S    
C1    C26   S    
O10   Zn1   S    
C9    N2    A    
C10   N2    A    
C42   C43   A    
C3    C4    A    
C54   H25   S    
C1    O1    A    
O8    Zn1   S    
C25   C30   A    
C12   O7    A    
C11   C17   A    
C58   H42   S    
C23   O9    A    
C8    C44   A    
C41   N1    A    
C46   C47   S    
C6    C10   A    
C40   O12   S    
C6    C7    A    
C48   H18   S    
C54   H24   S    
C57   H32   S    
C55   H36   S    
C31   H4    S    
C2    C3    A    
C59   H41   S    
C46   H21   S    
C11   H13   S    
C59   C60   S    
C11   C13   A    
C49   N6    T    
C5    C6    A    
C38   H9    S    
C2    C42   A    
C21   C46   S    
C50   N7    T    
C15   H14   S    
C57   H31   S    
C35   N3    A    
C22   C24   A    
C51   N8    T    
C60   H38   S    
C13   C58   S    
C34   O10   A    
C18   H15   S    
C4    C5    A    
C20   C21   A    
C54   H23   S    
N4    Zn1   S    
C38   C52   S    
C27   C28   A    
C14   C15   A    
C4    C9    A    
C21   C22   A    
C16   C61   S    
