data_mof_unit_33335.cif
_audit_creation_date              2012-12-11T15:27:45-0500
_audit_creation_method            fapswitch 2.2
_symmetry_space_group_name_H-M    P1
_symmetry_Int_Tables_number       1
_space_group_crystal_system       triclinic
_cell_length_a                    23.246721
_cell_length_b                    7.301359
_cell_length_c                    15.137666
_cell_angle_alpha                 90.272047
_cell_angle_beta                  108.24724
_cell_angle_gamma                 89.714106
_cell_volume                      2440.11003639

loop_
_atom_site_label
_atom_site_type_symbol
_atom_type_description
_atom_site_fract_x
_atom_site_fract_y
_atom_site_fract_z
_atom_type_partial_charge
O1    O     O_R   0.711000 0.648610 0.341170 -0.537620
O2    O     O_R   0.289000 0.351390 0.658830 -0.538354
O3    O     O_R   0.789000 0.148610 0.158830 -0.532268
O4    O     O_R   0.211000 0.851390 0.841170 -0.541748
O5    O     O_R   0.829650 0.322030 0.336650 -0.538950
O6    O     O_R   0.170350 0.677970 0.663350 -0.538514
O7    O     O_R   0.670350 0.822030 0.163350 -0.537845
O8    O     O_R   0.329650 0.177970 0.836650 -0.532908
C1    C     C_R   0.854263 0.485678 0.356828 0.713791
C2    C     C_R   0.145737 0.514322 0.643172 0.713040
C3    C     C_R   0.645731 0.985929 0.143186 0.734339
C4    C     C_R   0.354267 0.014068 0.856819 0.731625
O9    O     O_R   0.713950 0.319280 0.352070 -0.540539
O10   O     O_R   0.286050 0.680720 0.647930 -0.540141
O11   O     O_R   0.786050 0.819280 0.147930 -0.544830
O12   O     O_R   0.213950 0.180720 0.852070 -0.530525
O13   O     O_R   0.672470 0.142870 0.174360 -0.531370
O14   O     O_R   0.327530 0.857130 0.825640 -0.535215
O15   O     O_R   0.827530 0.642870 0.325640 -0.534451
O16   O     O_R   0.172470 0.357130 0.674360 -0.535393
C5    C     C_R   0.701995 0.488100 0.376073 0.685157
C6    C     C_R   0.298005 0.511900 0.623927 0.684333
C7    C     C_R   0.798012 0.986935 0.123865 0.725255
C8    C     C_R   0.201926 0.013083 0.876058 0.724801
O17   O     O_3   0.736530 0.478650 0.191680 -0.375982
O18   O     O_3   0.263470 0.521350 0.808320 -0.375649
O19   O     O_3   0.763470 0.978650 0.308320 -0.382960
O20   O     O_3   0.236530 0.021350 0.691680 -0.383520
V1    V     V_3+5 0.752500 0.206170 0.260820 1.434140
V2    V     V_3+5 0.247500 0.793830 0.739180 1.422311
V3    V     V_3+5 0.747500 0.706170 0.239180 1.425723
V4    V     V_3+5 0.252500 0.293830 0.760820 1.445026
C9    C     C_R   0.826932 0.992242 0.051035 -0.038984
C10   C     C_R   0.173015 0.007848 0.948890 -0.042447
C11   C     C_R   0.672972 0.499155 0.448657 -0.077180
C12   C     C_R   0.327026 0.500841 0.551342 -0.076866
C13   C     C_R   0.822625 0.971292 0.889813 -0.188333
C14   C     C_R   0.177235 0.034613 0.109877 -0.188048
C15   C     C_R   0.676896 0.551131 0.608095 -0.135204
C16   C     C_R   0.323106 0.448789 0.391911 -0.136969
C17   C     C_R   0.792687 0.974920 0.956937 0.195216
C18   C     C_R   0.207199 0.028371 0.042817 0.196865
C19   C     C_R   0.706779 0.533806 0.541770 0.183818
C20   C     C_R   0.293223 0.466110 0.458237 0.183831
C21   C     C_R   0.889989 0.005074 0.077526 -0.269069
C22   C     C_R   0.109992 0.993861 0.922482 -0.268148
C23   C     C_R   0.610049 0.482238 0.422801 -0.246235
C24   C     C_R   0.389948 0.517819 0.577193 -0.246157
C25   C     C_R   0.921163 0.998782 0.010987 0.085288
C26   C     C_R   0.078762 0.003350 0.988891 0.085609
C27   C     C_R   0.578737 0.501354 0.488758 0.082395
C28   C     C_R   0.421261 0.498673 0.511240 0.082985
C29   C     C_R   0.886042 0.981483 0.916044 0.102642
C30   C     C_R   0.113842 0.023192 0.083721 0.102820
C31   C     C_R   0.613606 0.536245 0.582509 0.076074
C32   C     C_R   0.386394 0.463734 0.417494 0.076136
C33   C     C_R   0.985797 0.006965 0.035567 0.067595
C34   C     C_R   0.014115 0.996007 0.964273 0.067448
C35   C     C_R   0.514220 0.488628 0.464686 0.069168
C36   C     C_R   0.485778 0.511406 0.535312 0.068707
C37   C     C_R   0.976831 0.979323 0.870789 -0.183639
C38   C     C_R   0.023045 0.025733 0.128958 -0.183750
C39   C     C_R   0.522799 0.545742 0.627586 -0.179828
C40   C     C_R   0.477201 0.454272 0.372414 -0.180544
C41   C     C_R   0.914278 0.972777 0.847543 -0.178043
C42   C     C_R   0.085580 0.033507 0.152152 -0.178312
C43   C     C_R   0.585241 0.557476 0.650338 -0.187108
C44   C     C_R   0.414759 0.442506 0.349665 -0.190385
H1    H     H_    0.887677 0.959650 0.774841 0.132157
H2    H     H_    0.112144 0.048790 0.224754 0.132364
H3    H     H_    0.611648 0.584347 0.722074 0.125174
H4    H     H_    0.388353 0.415606 0.277932 0.128029
H5    H     H_    0.994293 0.971078 0.812968 0.125319
H6    H     H_    0.005542 0.036078 0.186677 0.125420
H7    H     H_    0.505194 0.564870 0.684765 0.123933
H8    H     H_    0.494805 0.435125 0.315237 0.124054
C45   C     C_1   0.416757 0.006655 0.918777 -0.183566
C46   C     C_1   0.583239 0.993330 0.081235 -0.181704
C47   C     C_1   0.083244 0.507273 0.581202 -0.187552
C48   C     C_1   0.916756 0.492726 0.418798 -0.187665
C49   C     C_1   0.469136 0.002235 0.969984 0.005036
C50   C     C_1   0.530859 0.997742 0.030032 0.005343
C51   C     C_1   0.030864 0.502548 0.530011 0.005260
C52   C     C_1   0.969136 0.497451 0.469988 0.005260
H9    H     H_    0.086966 0.979328 0.849101 0.108432
H10   H     H_    0.913090 0.016028 0.151051 0.108222
H11   H     H_    0.412829 0.543289 0.649814 0.109084
H12   H     H_    0.587166 0.456841 0.350174 0.108971
N1    N     N_3   0.271978 0.045018 0.069175 -0.676992
H13   H     H_    0.290189 0.067623 0.140801 0.227138
H14   H     H_    0.289228 0.919304 0.055445 0.216877
N2    N     N_3   0.727799 0.961932 0.930274 -0.680272
H15   H     H_    0.709099 0.960953 0.857813 0.228302
H16   H     H_    0.717328 0.835469 0.953400 0.222078
N3    N     N_3   0.228657 0.447624 0.429651 -0.674627
H17   H     H_    0.217959 0.339184 0.466509 0.226164
H18   H     H_    0.210293 0.567714 0.447750 0.220010
N4    N     N_3   0.771348 0.552209 0.570362 -0.674463
H19   H     H_    0.782062 0.660650 0.533520 0.226329
H20   H     H_    0.789694 0.432104 0.552245 0.219983
H21   H     H_    0.796436 0.957989 0.816938 0.119576
H22   H     H_    0.203385 0.050396 0.182632 0.119245
H23   H     H_    0.703261 0.577986 0.679860 0.132880
H24   H     H_    0.296742 0.421879 0.320151 0.134090

loop_
_geom_bond_atom_site_label_1
_geom_bond_atom_site_label_2
_ccdc_geom_bond_type
O17   V3    S    
C13   H21   S    
O1    C5    A    
O19   V1    S    
C9    C21   A    
O3    C7    A    
N3    H17   S    
C10   C18   A    
C19   N4    S    
C48   C52   T    
O15   V3    S    
C49   C50   S    
C25   C33   A    
C33   C38   A    
O7    C3    A    
C35   C40   A    
C26   C30   A    
C36   C39   A    
C40   C44   A    
O9    V1    S    
C14   C18   A    
O4    C8    A    
C25   C29   A    
O1    V3    S    
O13   V1    S    
O2    V4    S    
O3    V1    S    
C28   C36   A    
C1    O15   A    
C15   C31   A    
C2    O16   A    
C16   C32   A    
O2    C6    A    
C12   C24   A    
C10   C22   A    
C21   C25   A    
N1    H14   S    
C11   C19   A    
C16   C20   A    
C43   H3    S    
C44   H4    S    
C22   H9    S    
C13   C29   A    
C34   C37   A    
O11   C7    A    
C11   C23   A    
C35   C36   A    
O12   C8    A    
O10   V2    S    
O5    V1    S    
C39   C43   A    
O7    V3    S    
C38   C42   A    
O8    V4    S    
C7    C9    S    
O18   V4    S    
C23   C27   A    
C37   H5    S    
C32   C44   A    
C8    C10   S    
C1    C48   S    
C26   C34   A    
O5    C1    A    
C3    C46   S    
C16   H24   S    
C46   C50   T    
C31   C43   A    
C51   C52   S    
C14   C30   A    
C45   C49   T    
O8    C4    A    
C4    C45   S    
N2    H16   S    
C40   H8    S    
C24   H11   S    
O9    C5    A    
O11   V3    S    
O14   V2    S    
O6    V2    S    
N4    H20   S    
C12   C20   A    
C27   C35   A    
C29   C41   A    
O16   V4    S    
C3    O13   A    
O6    C2    A    
C15   C19   A    
C2    C47   S    
N3    H18   S    
C15   H23   S    
C30   C42   A    
O12   V4    S    
C6    C12   S    
C22   C26   A    
C18   N1    S    
C9    C17   A    
C23   H12   S    
O10   C6    A    
O20   V2    S    
C5    C11   S    
C14   H22   S    
C20   N3    S    
C47   C51   T    
C33   C34   A    
C42   H2    S    
C39   H7    S    
C41   H1    S    
N2    H15   S    
C21   H10   S    
C27   C31   A    
C13   C17   A    
C37   C41   A    
C24   C28   A    
C17   N2    S    
N4    H19   S    
C4    O14   A    
C38   H6    S    
N1    H13   S    
O4    V2    S    
C28   C32   A    
