data_mof_unit_58927.cif
_audit_creation_date              2012-12-11T15:56:37-0500
_audit_creation_method            fapswitch 2.2
_symmetry_space_group_name_H-M    P1
_symmetry_Int_Tables_number       1
_space_group_crystal_system       triclinic
_cell_length_a                    14.640048
_cell_length_b                    7.173282
_cell_length_c                    13.577274
_cell_angle_alpha                 89.967625
_cell_angle_beta                  99.811951
_cell_angle_gamma                 90.050241
_cell_volume                      1404.98977663

loop_
_atom_site_label
_atom_site_type_symbol
_atom_type_description
_atom_site_fract_x
_atom_site_fract_y
_atom_site_fract_z
_atom_type_partial_charge
O1    O     O_R   0.336930 0.638190 0.166330 -0.543593
O2    O     O_R   0.663070 0.361810 0.833670 -0.543594
O3    O     O_R   0.163070 0.138190 0.333670 -0.523597
O4    O     O_R   0.836930 0.861810 0.666330 -0.523597
O5    O     O_R   0.147900 0.305430 0.139630 -0.513174
O6    O     O_R   0.852100 0.694570 0.860370 -0.513174
O7    O     O_R   0.352100 0.805430 0.360370 -0.544397
O8    O     O_R   0.647900 0.194570 0.639630 -0.544397
C1    C     C_R   0.115104 0.477569 0.113142 0.745944
C2    C     C_R   0.884896 0.522431 0.886858 0.745944
C3    C     C_R   0.384915 0.977593 0.386833 0.702847
C4    C     C_R   0.615085 0.022407 0.613166 0.702847
O9    O     O_R   0.335280 0.308290 0.154310 -0.535156
O10   O     O_R   0.664720 0.691710 0.845690 -0.535156
O11   O     O_R   0.164720 0.808290 0.345690 -0.547339
O12   O     O_R   0.835280 0.191710 0.654310 -0.547339
O13   O     O_R   0.351790 0.140890 0.348460 -0.535720
O14   O     O_R   0.648210 0.859110 0.651540 -0.535720
O15   O     O_R   0.148210 0.640890 0.151540 -0.531060
O16   O     O_R   0.851790 0.359110 0.848460 -0.531060
C5    C     C_R   0.365820 0.477189 0.135231 0.655294
C6    C     C_R   0.634180 0.522811 0.864769 0.655294
C7    C     C_R   0.134158 0.976891 0.364746 0.746995
C8    C     C_R   0.865842 0.023109 0.635254 0.746995
O17   O     O_3   0.255200 0.472570 0.313680 -0.383009
O18   O     O_3   0.744800 0.527430 0.686320 -0.383009
O19   O     O_3   0.244800 0.972570 0.186320 -0.367053
O20   O     O_3   0.755200 0.027430 0.813680 -0.367053
V1    V     V_3+5 0.249040 0.196590 0.238190 1.512506
V2    V     V_3+5 0.750960 0.803410 0.761810 1.512506
V3    V     V_3+5 0.250960 0.696590 0.261810 1.452508
V4    V     V_3+5 0.749040 0.303410 0.738190 1.452508
C9    C     C_R   0.074177 0.875468 0.517195 -0.260586
C10   C     C_R   0.925823 0.124532 0.482805 -0.260586
C11   C     C_R   0.427680 0.370753 0.984855 -0.100296
C12   C     C_R   0.572320 0.629247 0.015145 -0.100296
H1    H     H_    0.133312 0.782500 0.532290 0.118106
H2    H     H_    0.866688 0.217500 0.467710 0.118106
H3    H     H_    0.369957 0.274023 0.971698 0.161044
H4    H     H_    0.630043 0.725977 0.028302 0.161044
C13   C     C_R   0.013841 0.888853 0.587215 0.013810
C14   C     C_R   0.986159 0.111147 0.412785 0.013810
C15   C     C_R   0.488851 0.381867 0.915381 0.005333
C16   C     C_R   0.511149 0.618133 0.084619 0.005332
C17   C     C_R   0.937197 0.013070 0.569060 -0.055115
C18   C     C_R   0.062803 0.986930 0.430940 -0.055115
C19   C     C_R   0.563195 0.511742 0.931392 -0.151814
C20   C     C_R   0.436805 0.488258 0.068608 -0.151815
C21   C     C_1   0.533914 0.008203 0.533149 -0.157946
C22   C     C_1   0.466086 0.991797 0.466851 -0.157947
C23   C     C_1   0.966079 0.508236 0.966864 -0.124853
C24   C     C_1   0.033920 0.491764 0.033136 -0.124853
C25   C     C_2   0.037638 0.777631 0.680239 0.355394
H5    H     H_    0.079697 0.653015 0.680365 0.046671
O21   O     O_2   0.015218 0.828017 0.758591 -0.528847
C26   C     C_2   0.962362 0.222369 0.319761 0.355394
H6    H     H_    0.920303 0.346985 0.319635 0.046671
O22   O     O_2   0.984782 0.171983 0.241409 -0.528847
C27   C     C_2   0.470206 0.264408 0.823952 0.372059
H7    H     H_    0.501297 0.297400 0.759113 0.047832
O23   O     O_2   0.418446 0.129884 0.819312 -0.532786
C28   C     C_2   0.529794 0.735592 0.176048 0.372059
H8    H     H_    0.498703 0.702600 0.240886 0.047832
O24   O     O_2   0.581554 0.870116 0.180688 -0.532786

loop_
_geom_bond_atom_site_label_1
_geom_bond_atom_site_label_2
_ccdc_geom_bond_type
O2    C6    A    
C11   H3    S    
O1    C5    A    
C28   H8    S    
O14   V2    S    
O19   V1    S    
C11   C15   A    
O3    C7    A    
O17   V3    S    
C10   C14   A    
C15   C27   S    
O8    C4    A    
C5    C20   S    
O15   V3    S    
O10   C6    A    
O11   C7    A    
C4    C21   S    
O9    C5    A    
C27   H7    S    
O12   C8    A    
C10   C17   A    
C25   H5    S    
O7    C3    A    
C9    C18   A    
C13   C25   S    
O5    C1    A    
C1    C24   S    
O10   V2    S    
C11   C20   A    
O20   V2    S    
O6    V2    S    
O7    V3    S    
C26   O22   D    
C6    C19   S    
C9    C13   A    
O5    V1    S    
C25   O21   D    
O1    V3    S    
C14   C18   A    
O4    C8    A    
O4    V2    S    
C12   C16   A    
C27   O23   D    
O6    C2    A    
C2    C23   S    
C23   C24   T    
O8    V4    S    
C8    C17   S    
C12   H4    S    
C7    C18   S    
O13   V1    S    
C26   H6    S    
C12   C19   A    
O2    V4    S    
C21   C22   T    
O16   V4    S    
C4    O14   A    
C3    C22   S    
C13   C17   A    
O12   V4    S    
C3    O13   A    
O3    V1    S    
C28   O24   D    
C14   C26   S    
C10   H2    S    
C15   C19   A    
O11   V3    S    
C1    O15   A    
O18   V4    S    
C9    H1    S    
C16   C20   A    
O9    V1    S    
C2    O16   A    
C16   C28   S    
