data_mof_unit_50772.cif
_audit_creation_date              2013-03-05T15:55:31-0500
_audit_creation_method            fapswitch 2.2
_symmetry_space_group_name_H-M    P1
_symmetry_Int_Tables_number       1
_space_group_crystal_system       triclinic
_cell_length_a                    20.136594
_cell_length_b                    7.263364
_cell_length_c                    13.626477
_cell_angle_alpha                 89.701505
_cell_angle_beta                  103.086014
_cell_angle_gamma                 90.045009
_cell_volume                      1941.21830658

loop_
_atom_site_label
_atom_site_type_symbol
_atom_site_description
_atom_site_fract_x
_atom_site_fract_y
_atom_site_fract_z
_atom_type_partial_charge
O1    O     O_R   0.449560 0.506810 0.599700 -0.584624
O2    O     O_R   0.550440 0.006810 0.400300 -0.584696
O3    O     O_R   0.587960 0.180060 0.595760 -0.601371
O4    O     O_R   0.412040 0.680060 0.404240 -0.597338
C1    C     C_R   0.614737 0.344036 0.617206 0.968395
C2    C     C_R   0.385175 0.844411 0.382573 0.955546
O5    O     O_R   0.452380 0.177430 0.611700 -0.588542
O6    O     O_R   0.547620 0.677430 0.388300 -0.587114
O7    O     O_R   0.413900 0.001890 0.416350 -0.588428
O8    O     O_R   0.586100 0.501890 0.583650 -0.594438
C3    C     C_R   0.436201 0.345177 0.637279 0.914689
C4    C     C_R   0.564198 0.845859 0.363431 0.913668
O9    O     O_3   0.487530 0.337490 0.435890 -0.279861
O10   O     O_3   0.512470 0.837490 0.564110 -0.284390
V1    V     V_3+5 0.502310 0.064660 0.511890 1.205783
V2    V     V_3+5 0.497690 0.564660 0.488110 1.206366
C5    C     C_R   0.608112 0.876419 0.111680 -0.076248
C6    C     C_R   0.391573 0.322460 0.889365 -0.077512
H1    H     H_    0.515285 0.868312 0.163346 0.132096
H2    H     H_    0.484170 0.306115 0.837323 0.142489
H3    H     H_    0.580139 0.883596 0.034033 0.169947
H4    H     H_    0.418949 0.298792 0.966267 0.171676
C7    C     C_R   0.603731 0.854550 0.286280 -0.086365
C8    C     C_R   0.396910 0.350717 0.715114 -0.091146
C9    C     C_R   0.931775 0.828170 0.313721 -0.200486
C10   C     C_R   0.068482 0.374186 0.684325 -0.219342
C11   C     C_R   0.896879 0.801038 0.390055 0.450995
C12   C     C_R   0.103633 0.381040 0.607052 0.451060
C13   C     C_R   0.825355 0.809152 0.366846 -0.289931
C14   C     C_R   0.175173 0.377315 0.631538 -0.295556
C15   C     C_R   0.787577 0.843585 0.267069 0.055529
C16   C     C_R   0.212806 0.366246 0.732993 0.053310
C17   C     C_R   0.824185 0.862493 0.189763 0.052146
C18   C     C_R   0.175848 0.358334 0.810317 0.061222
C19   C     C_R   0.714735 0.855306 0.241179 0.097169
C20   C     C_R   0.285753 0.360665 0.759964 0.096691
C21   C     C_R   0.680020 0.875448 0.138036 -0.019482
C22   C     C_R   0.320051 0.343783 0.863544 -0.016353
C23   C     C_R   0.717476 0.890679 0.062803 0.341948
C24   C     C_R   0.282267 0.342730 0.939056 0.327788
C25   C     C_R   0.788390 0.884685 0.089093 -0.315512
C26   C     C_R   0.211292 0.347913 0.911694 -0.326581
C27   C     C_R   0.674885 0.848485 0.314377 -0.196194
C28   C     C_R   0.326074 0.368684 0.687250 -0.195922
C29   C     C_R   0.570486 0.866344 0.185241 -0.167259
C30   C     C_R   0.429399 0.324978 0.815760 -0.172586
C31   C     C_R   0.896322 0.856664 0.214453 -0.194384
C32   C     C_R   0.103674 0.363475 0.784944 -0.183259
H5    H     H_    0.697290 0.840834 0.393983 0.110948
H6    H     H_    0.304372 0.385627 0.607933 0.110347
H7    H     H_    0.986975 0.820364 0.330900 0.188795
H8    H     H_    0.013257 0.380057 0.666381 0.184528
H9    H     H_    0.800854 0.785802 0.428260 0.177363
H10   H     H_    0.199731 0.380741 0.569273 0.174559
H11   H     H_    0.815368 0.899206 0.029237 0.173359
H12   H     H_    0.183922 0.346211 0.971546 0.161175
C33   C     C_R   0.205331 0.003772 0.260120 0.401421
C34   C     C_R   0.787646 0.522484 0.754610 0.443854
C35   C     C_R   0.272486 0.000670 0.318763 -0.161798
C36   C     C_R   0.722663 0.511386 0.690643 -0.180679
H13   H     H_    0.289729 0.112024 0.370952 0.154116
H14   H     H_    0.702464 0.630850 0.645775 0.161311
C37   C     C_R   0.315863 0.851115 0.315286 -0.215535
C38   C     C_R   0.683475 0.351185 0.685046 -0.233570
C39   C     C_R   0.291296 0.704067 0.250608 -0.042097
C40   C     C_R   0.710305 0.199541 0.745118 -0.019093
H15   H     H_    0.323286 0.585765 0.246980 0.191059
H16   H     H_    0.680892 0.074340 0.743374 0.190821
C41   C     C_R   0.225606 0.708743 0.188617 -0.043511
C42   C     C_R   0.774745 0.209003 0.810132 -0.040692
H17   H     H_    0.209453 0.595393 0.137406 0.168493
H18   H     H_    0.791986 0.094259 0.859537 0.202216
C43   C     C_R   0.181735 0.858345 0.191373 -0.300337
C44   C     C_R   0.815535 0.366859 0.814666 -0.343921
O11   O     O_R   0.913920 0.203370 0.916260 -0.581028
O12   O     O_R   0.086080 0.703370 0.083740 -0.591632
O13   O     O_R   0.047620 0.535540 0.888290 -0.588354
O14   O     O_R   0.952380 0.035540 0.111710 -0.574406
C45   C     C_R   0.063779 0.368792 0.862500 0.930759
C46   C     C_R   0.935985 0.867839 0.137010 0.966368
O15   O     O_R   0.912040 0.532780 0.904220 -0.548237
O16   O     O_R   0.087960 0.032780 0.095780 -0.564829
O17   O     O_R   0.949550 0.708160 0.099720 -0.583776
O18   O     O_R   0.050450 0.208160 0.900280 -0.590701
C47   C     C_R   0.885266 0.366579 0.882896 0.939569
C48   C     C_R   0.113703 0.864619 0.119301 0.954044
O19   O     O_3   0.012480 0.375300 0.064060 -0.266374
O20   O     O_3   0.987520 0.875300 0.935940 -0.260055
V3    V     V_3+5 0.997690 0.648180 0.988110 1.276909
V4    V     V_3+5 0.002310 0.148180 0.011890 1.276509
N1    N     N_R   0.684220 0.915082 0.958798 0.219943
O21   O     O_R   0.698268 0.805436 0.891106 -0.408233
O22   O     O_R   0.645632 0.058096 0.930428 -0.446819
N2    N     N_R   0.315005 0.340353 0.044433 0.223039
O23   O     O_R   0.289681 0.241495 0.107044 -0.423528
O24   O     O_R   0.362019 0.460795 0.080221 -0.442046
N3    N     N_R   0.934170 0.760570 0.490876 0.257844
O25   O     O_R   0.998168 0.805605 0.520015 -0.361217
O26   O     O_R   0.905997 0.665515 0.551657 -0.350090
N4    N     N_R   0.066684 0.393093 0.503550 0.261068
O27   O     O_R   0.001747 0.356685 0.478744 -0.346344
O28   O     O_R   0.097341 0.443654 0.433389 -0.323304
N5    N     N_R   0.161127 0.150399 0.275716 0.243052
O29   O     O_R   0.184560 0.317510 0.290034 -0.376987
O30   O     O_R   0.101573 0.112616 0.292918 -0.357824
N6    N     N_R   0.822306 0.695823 0.759260 0.243247
O31   O     O_R   0.831577 0.790901 0.841697 -0.395850
O32   O     O_R   0.824106 0.781979 0.676007 -0.377446

loop_
_geom_bond_atom_site_label_1
_geom_bond_atom_site_label_2
_geom_bond_distance
_ccdc_geom_bond_type
C40   H16   1.082281 S    
C37   C39   1.404917 A    
C7    C29   1.390177 A    
C11   C13   1.404096 A    
O1    C3    1.329838 A    
O2    C4    1.328713 A    
C2    O7    1.318574 A    
N3    O25   1.301697 A    
C23   C25   1.391980 A    
O14   V4    2.033899 S    
O5    C3    1.329898 A    
C14   H10   1.074602 S    
C4    C7    1.456401 S    
O13   V3    2.040226 S    
N6    O32   1.300406 A    
C16   C20   1.431722 A    
C32   C45   1.465824 S    
C19   C21   1.427784 A    
C5    C29   1.388236 A    
C45   O18   1.324442 A    
O14   C46   1.325918 A    
C33   C35   1.406510 A    
N6    O31   1.298674 A    
C34   C36   1.400935 A    
C3    C8    1.460472 S    
C7    C27   1.397470 A    
C36   H14   1.083780 S    
C33   C43   1.423736 A    
C41   H17   1.083221 S    
C25   H11   1.082180 S    
O11   V4    1.993021 S    
C26   H12   1.082822 S    
O19   V4    1.792885 S    
O11   C47   1.349652 A    
C39   H15   1.082351 S    
C18   C26   1.405680 A    
C42   C44   1.403342 A    
C15   C17   1.421931 A    
C41   C43   1.406954 A    
C19   C27   1.415306 A    
C9    C31   1.393653 A    
C10   C32   1.395384 A    
O12   V3    1.995185 S    
O15   V3    2.024558 S    
C12   N4    1.440142 S    
C24   C26   1.393446 A    
O6    V2    2.034169 S    
C22   C24   1.411429 A    
O18   V4    2.025463 S    
C31   C46   1.462458 S    
C46   O17   1.321908 A    
O17   V3    2.029197 S    
C6    C30   1.390032 A    
C23   N1    1.433941 S    
N3    O26   1.300264 A    
O13   C45   1.324042 A    
C33   N5    1.435694 S    
C35   H13   1.083612 S    
O4    C2    1.315237 A    
N1    O21   1.300488 A    
C27   H5    1.077554 S    
O5    V1    2.040502 S    
O16   C48   1.336025 A    
C5    H3    1.081241 S    
C1    C38   1.481251 S    
C34   N6    1.433777 S    
C38   C40   1.402287 A    
C2    C37   1.487010 S    
O4    V2    2.020644 S    
C9    H7    1.084289 S    
C10   H8    1.084007 S    
N1    O22   1.301273 A    
O6    C4    1.330103 A    
N4    O28   1.301237 A    
N5    O30   1.301713 A    
O1    V2    2.021893 S    
C5    C21   1.410739 A    
N2    O24   1.301328 A    
O2    V1    2.025499 S    
C17   C31   1.415499 A    
C15   C19   1.431336 A    
C20   C28   1.417043 A    
C18   C32   1.416177 A    
O12   C48   1.341185 A    
O3    V1    2.024455 S    
C34   C44   1.430405 A    
C28   H6    1.076600 S    
C39   C41   1.399370 A    
C11   N3    1.437594 S    
C6    H4    1.080858 S    
C10   C12   1.396107 A    
C24   N2    1.437999 S    
O3    C1    1.313744 A    
H1    C29   1.083793 S    
C9    C11   1.393965 A    
C35   C37   1.402117 A    
O16   V4    2.020743 S    
C36   C38   1.398099 A    
C8    C30   1.391063 A    
C20   C22   1.428665 A    
C6    C22   1.411493 A    
C17   C25   1.406219 A    
C1    O8    1.316191 A    
C13   C15   1.420632 A    
O8    V2    2.004418 S    
C14   C16   1.420033 A    
C40   C42   1.397595 A    
C13   H9    1.076039 S    
C8    C28   1.396545 A    
C12   C14   1.403433 A    
N4    O27   1.301643 A    
C44   C47   1.498285 S    
O7    V1    2.006870 S    
N2    O23   1.301379 A    
O15   C47   1.328182 A    
C43   C48   1.494556 S    
O20   V3    1.786353 S    
C21   C23   1.407451 A    
O9    V2    1.793472 S    
N5    O29   1.301496 A    
O10   V1    1.786934 S    
C42   H18   1.075694 S    
H2    C30   1.083777 S    
C16   C18   1.421886 A    
