data_mof_unit_39244.cif
_audit_creation_date              2013-03-05T15:46:42-0500
_audit_creation_method            fapswitch 2.2
_symmetry_space_group_name_H-M    P1
_symmetry_Int_Tables_number       1
_space_group_crystal_system       triclinic
_cell_length_a                    8.42492
_cell_length_b                    16.712775
_cell_length_c                    19.09953
_cell_angle_alpha                 108.12924
_cell_angle_beta                  85.880254
_cell_angle_gamma                 97.966697
_cell_volume                      2529.93751496

loop_
_atom_site_label
_atom_site_type_symbol
_atom_site_description
_atom_site_fract_x
_atom_site_fract_y
_atom_site_fract_z
_atom_type_partial_charge
P1    P     P_3+3 0.391560 0.302240 0.409860 0.533041
O1    O     O_2   0.558990 0.288510 0.428270 -0.351726
O2    O     O_3   0.341190 0.396600 0.446070 -0.328245
O3    O     O_3   0.809080 0.340350 0.563320 -0.412857
O4    O     O_2   0.648628 0.191317 0.492355 -0.371880
O5    O     O_3   0.433386 0.285265 0.315241 -0.533759
O6    O     O_3   0.749968 0.199712 0.620574 -0.477405
H1    H     H_    0.688143 0.314351 0.686721 0.170406
C1    C     C_3   0.769100 0.241532 0.752728 -0.627827
P2    P     P_3+3 0.873530 0.566630 0.670640 0.497673
P3    P     P_3+3 0.364031 0.385791 0.697345 0.483782
O7    O     O_2   0.692320 0.540420 0.676730 -0.369843
O8    O     O_3   0.406060 0.383660 0.606030 -0.368686
O9    O     O_2   0.504974 0.444375 0.741910 -0.324839
O10   O     O_3   0.891341 0.676454 0.710544 -0.536172
O11   O     O_3   0.383841 0.285591 0.703461 -0.524155
C2    C     C_3   0.241733 0.231859 0.679130 0.148005
H2    H     H_    0.137106 0.259521 0.711544 0.070304
C3    C     C_3   0.249145 0.144623 0.690273 -0.580068
C4    C     C_3   0.292638 0.714035 0.726605 0.186105
H3    H     H_    0.183522 0.711962 0.696929 0.110524
C5    C     C_3   0.287898 0.785773 0.801763 -0.638467
H4    H     H_    0.257028 0.842383 0.789215 0.154144
Ba1   Ba    Ba6+2 0.640410 0.457420 0.526150 1.633757
C6    C     C_3   0.294071 0.278485 0.277029 0.424060
H5    H     H_    0.327986 0.304163 0.230221 0.110495
H6    H     H_    0.205796 0.317985 0.310937 0.123285
C7    C     C_3   0.225219 0.185805 0.245083 -1.034744
H7    H     H_    0.320905 0.147849 0.214781 0.279691
H8    H     H_    0.130245 0.180640 0.206017 0.263993
H9    H     H_    0.172764 0.159599 0.289415 0.240011
C8    C     C_3   0.850314 0.714407 0.659908 0.360743
H10   H     H_    0.726732 0.689224 0.641468 0.103967
H11   H     H_    0.936195 0.703575 0.611879 0.111496
C9    C     C_3   0.857906 0.809268 0.698056 -0.805608
H12   H     H_    0.771617 0.821875 0.745812 0.283453
H13   H     H_    0.827019 0.841372 0.659255 0.178999
H14   H     H_    0.980839 0.835681 0.717622 0.278110
P4    P     P_3+3 0.418740 0.697770 0.590200 0.554710
O12   O     O_2   0.251320 0.711540 0.571760 -0.334369
O13   O     O_3   0.469110 0.603410 0.553990 -0.307073
O14   O     O_3   0.001220 0.659660 0.436740 -0.407196
O15   O     O_3   0.432571 0.731962 0.687123 -0.624615
P5    P     P_3+3 0.440398 0.612326 0.299357 0.535140
O16   O     O_3   0.861890 0.456640 0.409240 -0.408078
O17   O     O_3   0.404240 0.616350 0.394030 -0.299642
O18   O     O_2   0.296734 0.550685 0.260673 -0.353731
O19   O     O_3   0.419490 0.704127 0.273508 -0.584906
Ba2   Ba    Ba6+2 0.169770 0.542590 0.473910 1.631142
P6    P     P_3+3 0.796805 0.229755 0.540551 0.467914
C10   C     C_3   0.778333 0.270851 0.683312 0.421622
H15   H     H_    0.899678 0.305043 0.679735 -0.006556
H16   H     H_    0.890507 0.232106 0.764966 0.180085
O20   O     O_3   0.948410 0.543360 0.590820 -0.393604
C11   C     C_3   0.879395 0.274961 0.332016 0.386103
H17   H     H_    0.988680 0.267570 0.356552 0.012837
H18   H     H_    0.804893 0.310129 0.377203 0.168556
C12   C     C_3   0.789513 0.187247 0.297718 -0.848286
H19   H     H_    0.864514 0.148083 0.253740 0.250374
H20   H     H_    0.759063 0.154947 0.340567 0.246876
H21   H     H_    0.677149 0.192660 0.273500 0.272083
P7    P     P_3+3 0.932083 0.426504 0.316175 0.434338
O21   O     O_2   0.117990 0.459640 0.323300 -0.336158
O22   O     O_3   0.918791 0.315575 0.277534 -0.580569
C13   C     C_3   0.493650 0.787814 0.311885 0.185521
C14   C     C_3   0.500870 0.839960 0.254741 -0.713688
H22   H     H_    0.619472 0.841212 0.226179 0.195998
H23   H     H_    0.422261 0.805996 0.208182 0.197311
P8    P     P_3+3 0.004036 0.768536 0.455085 0.483590
C15   C     C_3   0.055411 0.721143 0.311338 0.340624
H24   H     H_    0.941035 0.678808 0.306166 0.116939
O23   O     O_2   0.141381 0.810952 0.508740 -0.325196
O24   O     O_3   0.058705 0.794434 0.373551 -0.549619
H25   H     H_    0.147028 0.683110 0.317597 0.169494
C16   C     C_3   0.092600 0.748677 0.240775 -0.726216
C17   C     C_2   0.706167 0.754190 0.520330 -0.419858
C18   C     C_R   0.102516 0.248270 0.476427 -0.508956
C19   C     C_2   0.546265 0.864397 0.592614 -0.316086
C20   C     C_2   0.556850 0.779818 0.561116 0.300986
C21   C     C_2   0.817146 0.809137 0.499930 0.248235
C22   C     C_3   0.776226 0.897888 0.508740 -0.066829
C23   C     C_3   0.677926 0.930515 0.579973 0.130471
C24   C     C_2   0.912325 0.964345 0.499908 -0.142442
C25   C     C_2   0.880930 0.035732 0.487020 0.023764
C26   C     C_R   0.153929 0.078827 0.438866 0.195873
C27   C     C_R   0.007427 0.102328 0.473958 -0.059746
C28   C     C_R   0.272033 0.138560 0.421984 -0.251955
C29   C     C_R   0.245960 0.223539 0.439542 0.247663
C30   C     C_R   0.981564 0.188802 0.492354 0.201684
H26   H     H_    0.382722 0.118309 0.394407 0.183753
H27   H     H_    0.734912 0.692382 0.516556 0.137937
H28   H     H_    0.082484 0.314082 0.490635 0.168405
H29   H     H_    0.035187 0.955312 0.505402 0.171268
H30   H     H_    0.756386 0.045137 0.485799 0.170074
C31   C     C_R   0.078267 0.454521 0.690600 -0.411477
C32   C     C_R   0.959350 0.506689 0.723267 0.279049
C33   C     C_R   0.915528 0.518240 0.797770 -0.185397
C34   C     C_R   0.996837 0.482425 0.840918 0.035143
C35   C     C_R   0.129679 0.439891 0.808760 -0.202982
C36   C     C_R   0.172444 0.427395 0.734490 0.209552
C37   C     C_R   0.969814 0.426595 0.950498 -0.146238
C38   C     C_R   0.921453 0.432883 0.023493 -0.131211
C39   C     C_R   0.847069 0.502621 0.067818 0.155345
C40   C     C_R   0.820757 0.564931 0.035827 -0.124095
C41   C     C_R   0.871752 0.559565 0.963429 -0.102152
C42   C     C_R   0.946582 0.490134 0.919336 0.169676
C43   C     C_R   0.662724 0.551601 0.179832 -0.168821
C44   C     C_R   0.613656 0.556334 0.252443 0.295698
C45   C     C_R   0.830123 0.477286 0.260899 0.184387
C46   C     C_R   0.882295 0.474740 0.188913 -0.149955
C47   C     C_R   0.796593 0.509666 0.146362 0.035260
C48   C     C_R   0.689861 0.513406 0.289408 -0.594834
H31   H     H_    0.988799 0.445125 0.166392 0.156934
H32   H     H_    0.938888 0.381579 0.044313 0.132885
H33   H     H_    0.021628 0.370364 0.917975 0.150956
H34   H     H_    0.761369 0.618730 0.066166 0.149063
H35   H     H_    0.853196 0.610681 0.942613 0.124197
H36   H     H_    0.593776 0.579075 0.149585 0.159679
H37   H     H_    0.203728 0.418464 0.841682 0.159903
H38   H     H_    0.109237 0.442768 0.632594 0.187472
C49   C     C_2   0.157839 0.765850 0.854983 1.036765
O25   O     O_2   0.017499 0.766630 0.843282 -0.617959
O26   O     O_R   0.197198 0.748207 0.918176 -0.725461
H39   H     H_    0.099203 0.735905 0.948960 0.328254
C50   C     C_2   0.449800 0.811016 0.837593 1.191097
O27   O     O_2   0.513800 0.884196 0.850692 -0.618372
O28   O     O_R   0.526509 0.751251 0.855490 -0.716623
H40   H     H_    0.634431 0.776033 0.878274 0.338545
C51   C     C_2   0.701213 0.300806 0.821308 1.066013
O29   O     O_2   0.661209 0.368370 0.821520 -0.620091
O30   O     O_R   0.683640 0.277042 0.885665 -0.760430
H41   H     H_    0.635580 0.320772 0.928426 0.323879
H42   H     H_    0.695238 0.179260 0.742409 0.294279
C52   C     C_2   0.093545 0.086609 0.670474 0.962720
O31   O     O_2   0.982219 0.109204 0.646849 -0.623994
O32   O     O_R   0.077377 0.006215 0.679802 -0.765285
H43   H     H_    0.968668 0.973290 0.664790 0.337338
C53   C     C_2   0.403271 0.823377 0.383871 0.983201
O33   O     O_2   0.399252 0.787013 0.430403 -0.585153
O34   O     O_R   0.335798 0.899250 0.400872 -0.786075
H44   H     H_    0.296295 0.919693 0.453985 0.347318
C54   C     C_2   0.662734 0.794379 0.334281 0.940652
O35   O     O_2   0.709945 0.737420 0.350812 -0.688948
O36   O     O_R   0.757911 0.872601 0.345174 -0.778199
H45   H     H_    0.870336 0.873830 0.359786 0.365878
C55   C     C_2   0.469910 0.931331 0.281674 1.202434
O37   O     O_2   0.562175 0.984725 0.323654 -0.607714
O38   O     O_R   0.338332 0.955107 0.255801 -0.776849
H46   H     H_    0.332851 0.018410 0.274819 0.313806
C56   C     C_2   0.952870 0.778117 0.216015 1.066140
O39   O     O_2   0.959882 0.851296 0.214832 -0.578502
O40   O     O_R   0.820620 0.719633 0.188533 -0.842768
H47   H     H_    0.748564 0.741243 0.160204 0.307221
C57   C     C_2   0.152458 0.681044 0.174815 1.115543
O41   O     O_2   0.141667 0.607626 0.174674 -0.581013
O42   O     O_R   0.215709 0.700995 0.111707 -0.752049
H48   H     H_    0.216206 0.763001 0.116028 0.301507
H49   H     H_    0.224872 0.223941 0.619893 0.125758
H50   H     H_    0.186198 0.803323 0.255593 0.205113
C58   C     C_2   0.429209 0.896411 0.652897 1.123791
O43   O     O_2   0.285438 0.877228 0.643710 -0.595824
O44   O     O_R   0.484996 0.949980 0.720740 -0.721870
H51   H     H_    0.394533 0.967865 0.757877 0.354542
H52   H     H_    0.817471 0.554596 0.821202 0.170007
C59   C     C_2   0.604317 0.496779 0.353060 1.179271
O45   O     O_2   0.482287 0.447577 0.343089 -0.571312
O46   O     O_R   0.641381 0.548237 0.423501 -0.697328
H53   H     H_    0.738209 0.589910 0.421243 0.285243
C60   C     C_2   0.378848 0.101949 0.637870 1.109460
O47   O     O_2   0.496187 0.083500 0.660391 -0.581307
O48   O     O_R   0.362826 0.083409 0.561973 -0.820545
H54   H     H_    0.455621 0.055216 0.532213 0.335964
C61   C     C_2   0.274089 0.158864 0.772026 1.109982
O49   O     O_2   0.173929 0.191884 0.817620 -0.653929
O50   O     O_R   0.408104 0.135285 0.796144 -0.746216
H55   H     H_    0.407586 0.148362 0.851668 0.348489
C62   C     C_2   0.302408 0.628484 0.732658 0.938182
O51   O     O_2   0.308386 0.614791 0.791589 -0.587983
O52   O     O_R   0.324181 0.565792 0.666917 -0.774698
H56   H     H_    0.411864 0.533064 0.670708 0.374310

loop_
_geom_bond_atom_site_label_1
_geom_bond_atom_site_label_2
_geom_bond_distance
_ccdc_geom_bond_type
C14   H23   1.103579 S    
O48   H54   1.013850 S    
C18   H28   1.082139 S    
C59   O45   1.210689 D    
Ba2   O21   2.813865 S    
C60   O47   1.218805 D    
C31   C32   1.402480 A    
C1    C10   1.543652 S    
C17   C20   1.474351 S    
C28   C29   1.399020 A    
C33   C34   1.417202 A    
O2    Ba2   2.894923 S    
O26   H39   1.013922 S    
P4    O13   1.615541 S    
C26   C27   1.406623 A    
C6    C7    1.523691 S    
O17   Ba2   2.794974 S    
C18   C30   1.407680 A    
C37   C38   1.399929 A    
Ba1   O16   2.803189 S    
C7    H7    1.110626 S    
C9    H13   1.103926 S    
C25   C27   1.497527 S    
C51   O29   1.221109 D    
P2    O10   1.744079 S    
O3    Ba1   2.851585 S    
P3    O9    1.548368 D    
O5    C6    1.399232 S    
P4    C20   1.865927 S    
C16   C56   1.495630 S    
C12   H20   1.110570 S    
O12   Ba2   2.881034 S    
C24   H29   1.083515 S    
O16   P7    1.771246 S    
Ba1   Ba2   4.664816 S    
C39   C47   1.502494 S    
P1    O1    1.541830 D    
C46   C47   1.420871 A    
P7    O22   1.759864 S    
C39   C40   1.409374 A    
C40   H34   1.073940 S    
C54   O35   1.214141 D    
O50   H55   1.013786 S    
C18   C29   1.400916 A    
O11   C2    1.406411 S    
C62   O52   1.381854 S    
C15   H25   1.100305 S    
C43   C44   1.399594 A    
P8    O24   1.756598 S    
C15   H24   1.104582 S    
O16   Ba2   2.939478 S    
O19   C13   1.438537 S    
Ba2   O20   2.802600 S    
C43   H36   1.081303 S    
C57   O42   1.398769 S    
P5    O18   1.543162 D    
P1    C29   1.863603 S    
C26   C28   1.403401 A    
C14   H22   1.104280 S    
C59   O46   1.383137 S    
C32   C33   1.404180 A    
Ba1   O13   2.894314 S    
C60   O48   1.397330 S    
C41   H35   1.081493 S    
O2    Ba1   2.933205 S    
C15   O24   1.415131 S    
O13   Ba2   2.934067 S    
C40   C41   1.397442 A    
C22   C24   1.520726 S    
P5    O17   1.793820 S    
C22   C23   1.528331 S    
C55   O38   1.397841 S    
P5    C44   1.864975 S    
C49   O26   1.399895 S    
C10   H15   1.108465 S    
C8    C9    1.519267 S    
C3    C60   1.522870 S    
O10   C8    1.395601 S    
C9    H14   1.110588 S    
O34   H44   1.011859 S    
C45   C48   1.399299 A    
O46   H53   1.004274 S    
C31   C36   1.403411 A    
O36   H45   1.002234 S    
C5    C50   1.517156 S    
P4    O15   1.766696 S    
O14   Ba2   2.850968 S    
P2    Ba1   3.384538 S    
C12   H19   1.108818 S    
C61   O49   1.224492 D    
O14   P8    1.739776 S    
C44   C48   1.390484 A    
O8    Ba1   2.794359 S    
O3    P6    1.751992 S    
P3    C36   1.852482 S    
P1    O2    1.615541 S    
C9    H12   1.110155 S    
C8    H11   1.111483 S    
P8    O23   1.543563 D    
C3    C61   1.530013 S    
P7    O21   1.587968 D    
C38   H32   1.081829 S    
P3    O11   1.745809 S    
C19   C23   1.515772 S    
P6    C30   1.853682 S    
C24   C25   1.354106 D    
H1    C10   1.107570 S    
P2    C32   1.862395 S    
C33   H52   1.081087 S    
C11   O22   1.407537 S    
C11   H17   1.100976 S    
C2    H2    1.109256 S    
C57   O41   1.216921 D    
C25   H30   1.085241 S    
O38   H46   1.012586 S    
C2    H49   1.114649 S    
C46   H31   1.081790 S    
C49   O25   1.221530 D    
C4    C62   1.483680 S    
C61   O50   1.397605 S    
P2    O7    1.535246 D    
C62   O51   1.222060 D    
C13   C53   1.513226 S    
C19   C58   1.477920 S    
P4    Ba2   3.411127 S    
C4    C5    1.560015 S    
C13   C14   1.588124 S    
C11   H18   1.092257 S    
O1    Ba1   2.880577 S    
C50   O27   1.222837 D    
C37   H33   1.082149 S    
C56   O40   1.391101 S    
O4    P6    1.547035 D    
C28   H26   1.080551 S    
C1    H16   1.107963 S    
O30   H41   1.013982 S    
P4    O12   1.542176 D    
C4    O15   1.401153 S    
C5    C49   1.514650 S    
C55   O37   1.222871 D    
C16   H50   1.098903 S    
C37   C42   1.409926 A    
O42   H48   1.013094 S    
P1    O5    1.757185 S    
C19   C20   1.366011 D    
C43   C47   1.417236 A    
C7    H9    1.107886 S    
C17   C21   1.342253 D    
O6    P6    1.754948 S    
C21   C22   1.524904 S    
C27   C30   1.421221 A    
C52   O32   1.396538 S    
C52   O31   1.221026 D    
C53   O34   1.397713 S    
C1    C51   1.505349 S    
C31   H38   1.082269 S    
O44   H51   1.013331 S    
C41   C42   1.404106 A    
O7    Ba1   2.813667 S    
C34   C42   1.497670 S    
C35   C36   1.395957 A    
C58   O43   1.220083 D    
C7    H8    1.109499 S    
C6    H5    1.110468 S    
O6    C10   1.407932 S    
C45   C46   1.402611 A    
C8    H10   1.106429 S    
C13   C54   1.496426 S    
P3    O8    1.744867 S    
C16   C57   1.516438 S    
P7    C45   1.860856 S    
C12   H21   1.109508 S    
C48   C59   1.450321 S    
C2    C3    1.547602 S    
C3    C52   1.514043 S    
C38   C39   1.407147 A    
P2    O20   1.560209 S    
C14   C55   1.505605 S    
C53   O33   1.219199 D    
C17   H27   1.073038 S    
C35   H37   1.082242 S    
O52   H56   0.997238 S    
P5    O19   1.785362 S    
C4    H3    1.105165 S    
P1    Ba1   3.410563 S    
C34   C35   1.408967 A    
C11   C12   1.522334 S    
C15   C16   1.552925 S    
C50   O28   1.398328 S    
C5    H4    1.112880 S    
O32   H43   1.011760 S    
P8    C21   1.847678 S    
O40   H47   1.010596 S    
Ba1   O20   2.940295 S    
C54   O36   1.399798 S    
O28   H40   1.013854 S    
C58   O44   1.396553 S    
C56   O39   1.223431 D    
C51   O30   1.397101 S    
C6    H6    1.099626 S    
C1    H42   1.104381 S    
