data_mof_unit_14769.cif
_audit_creation_date              2012-12-10T17:16:41-0500
_audit_creation_method            fapswitch 2.2
_symmetry_space_group_name_H-M    P1
_symmetry_Int_Tables_number       1
_space_group_crystal_system       triclinic
_cell_length_a                    10.437717
_cell_length_b                    10.31301
_cell_length_c                    10.71146
_cell_angle_alpha                 93.027314
_cell_angle_beta                  95.404406
_cell_angle_gamma                 76.537738
_cell_volume                      1115.79336662

loop_
_atom_site_label
_atom_site_type_symbol
_atom_type_description
_atom_site_fract_x
_atom_site_fract_y
_atom_site_fract_z
_atom_type_partial_charge
Br1   Br    Br    0.026854 0.179184 0.230813 -0.091062
Br2   Br    Br    0.975395 0.818015 0.764469 -0.114108
C1    C     C_R   0.443980 0.514421 0.267478 0.862699
C2    C     C_R   0.496939 0.742995 0.516890 0.855857
C3    C     C_R   0.752298 0.005455 0.457336 0.391595
C4    C     C_R   0.247771 0.994364 0.540046 0.397752
C5    C     C_R   0.857918 0.914884 0.520598 0.297194
C6    C     C_R   0.142343 0.084422 0.475951 0.301229
C7    C     C_R   0.837111 0.863616 0.633936 0.182280
C8    C     C_R   0.163869 0.135692 0.362856 0.173056
C9    C     C_R   0.708906 0.858495 0.655366 0.287952
C10   C     C_R   0.292138 0.141761 0.342709 0.280876
C11   C     C_R   0.604561 0.925030 0.573852 -0.124385
C12   C     C_R   0.555257 0.494608 0.732966 0.848464
C13   C     C_R   0.395998 0.075189 0.424656 -0.136963
C14   C     C_R   0.625324 0.022861 0.498008 -0.168571
C15   C     C_R   0.375057 0.977232 0.500273 -0.166905
C16   C     C_R   0.485948 0.885191 0.552104 0.038455
C17   C     C_R   0.514360 0.115117 0.446839 0.033966
C18   C     C_2   0.410667 0.541017 0.135384 0.254231
C19   C     C_2   0.585607 0.505339 0.867066 0.271989
C20   C     C_2   0.504242 0.568087 0.070478 -0.177725
C21   C     C_2   0.488780 0.571086 0.935746 -0.118803
C22   C     C_2   0.067100 0.507290 0.478609 0.087249
C23   C     C_2   0.932403 0.494153 0.520785 0.087856
C24   C     C_R   0.503118 0.257081 0.483019 0.892681
Cl1   Cl    Cl    0.770917 0.072705 0.314343 -0.361579
Cl2   Cl    Cl    0.151244 0.528237 0.709481 -0.346538
Cl3   Cl    Cl    0.228625 0.928148 0.683352 -0.383069
Cl4   Cl    Cl    0.003824 0.845511 0.448253 -0.489837
Cl5   Cl    Cl    0.996086 0.154174 0.547554 -0.475845
Cl6   Cl    Cl    0.677212 0.777600 0.786059 -0.489619
Cl7   Cl    Cl    0.324706 0.224706 0.213622 -0.441509
Cl8   Cl    Cl    0.745422 0.428650 0.933019 -0.356803
Cl9   Cl    Cl    0.251399 0.534689 0.066230 -0.350988
Cl10  Cl    Cl    0.849977 0.467344 0.290001 -0.358402
H1    H     H_    0.391926 0.617862 0.891933 0.235873
H2    H     H_    0.600226 0.574435 0.115901 0.240719
H3    H     H_    0.908996 0.525142 0.615816 0.182378
H4    H     H_    0.090081 0.477738 0.383213 0.184145
N1    N     N_2   0.157300 0.551390 0.551120 0.067908
N2    N     N_2   0.842700 0.448610 0.448880 0.070310
O1    O     O_R   0.568940 0.489660 0.307530 -0.573662
O2    O     O_R   0.431060 0.510340 0.692470 -0.575354
O3    O     O_R   0.348880 0.522640 0.340350 -0.573452
O4    O     O_R   0.651120 0.477360 0.659650 -0.569281
O5    O     O_R   0.610030 0.300280 0.483580 -0.558587
O6    O     O_R   0.389970 0.699720 0.516420 -0.569036
O7    O     O_R   0.389970 0.333270 0.516400 -0.603491
O8    O     O_R   0.610030 0.666730 0.483600 -0.615481
Zn1   Zn    Zn3+2 0.646940 0.477980 0.478080 1.133071
Zn2   Zn    Zn3+2 0.353060 0.522020 0.521920 1.131269

loop_
_geom_bond_atom_site_label_1
_geom_bond_atom_site_label_2
_ccdc_geom_bond_type
C23   N2    D    
C4    C6    A    
C9    C11   A    
N1    Zn2   S    
Cl10  N2    S    
C10   C13   A    
N2    Zn1   S    
O7    Zn2   S    
C2    C16   S    
O2    Zn2   S    
C15   C16   A    
C1    C18   S    
C12   O4    A    
C5    Cl4   S    
C21   H1    S    
C23   H3    S    
C13   C17   A    
C22   N1    D    
C7    C9    A    
C1    O1    A    
C8    C10   A    
C24   O5    A    
O1    Zn1   S    
C14   C17   A    
C11   C16   A    
C12   C19   S    
C6    C8    A    
C22   H4    S    
C18   C20   D    
C9    Cl6   S    
O8    Zn1   S    
C3    C5    A    
C19   C21   D    
C11   C14   A    
Br1   C8    S    
C20   H2    S    
C5    C7    A    
Cl2   N1    S    
O6    Zn2   S    
C4    Cl3   S    
C22   C23   S    
C17   C24   S    
C12   O2    A    
C2    O6    A    
C24   O7    A    
C13   C15   A    
C4    C15   A    
C20   C21   S    
C3    C14   A    
O5    Zn1   S    
C19   Cl8   S    
O3    Zn2   S    
C10   Cl7   S    
C3    Cl1   S    
Br2   C7    S    
O4    Zn1   S    
C1    O3    A    
C6    Cl5   S    
C2    O8    A    
C18   Cl9   S    
