data_mof_unit_44428.cif
_audit_creation_date              2013-03-05T15:59:21-0500
_audit_creation_method            fapswitch 2.2
_symmetry_space_group_name_H-M    P1
_symmetry_Int_Tables_number       1
_space_group_crystal_system       triclinic
_cell_length_a                    10.509559
_cell_length_b                    12.626458
_cell_length_c                    13.076398
_cell_angle_alpha                 82.704488
_cell_angle_beta                  90.693967
_cell_angle_gamma                 101.930785
_cell_volume                      1683.81141355

loop_
_atom_site_label
_atom_site_type_symbol
_atom_site_description
_atom_site_fract_x
_atom_site_fract_y
_atom_site_fract_z
_atom_type_partial_charge
O1    O     O_R   0.467970 0.366730 0.627150 -0.602268
O2    O     O_R   0.510820 0.544830 0.662520 -0.623069
C1    C     C_R   0.472529 0.439861 0.690627 0.888785
O3    O     O_R   0.664630 0.410960 0.482340 -0.593190
O4    O     O_R   0.707470 0.589060 0.517710 -0.630388
C2    C     C_R   0.742169 0.500814 0.499233 0.919308
Zn1   Zn    Zn3+2 0.471390 0.381080 0.476380 0.951698
Zn2   Zn    Zn3+2 0.528610 0.618920 0.523620 0.925449
O5    O     O_R   0.489180 0.455170 0.337480 -0.626116
O6    O     O_R   0.532030 0.633270 0.372850 -0.605286
O7    O     O_R   0.292530 0.410940 0.482290 -0.623191
O8    O     O_R   0.335370 0.589040 0.517660 -0.655951
C3    C     C_R   0.512624 0.560698 0.308058 0.880329
C4    C     C_R   0.258011 0.499575 0.500237 0.847355
C5    C     C_3   0.944495 0.450127 0.420477 -0.205525
C6    C     C_3   0.015228 0.395877 0.511166 -0.209059
H1    H     H_    0.032888 0.311541 0.521797 0.160269
H2    H     H_    0.896011 0.410859 0.354944 0.144602
C7    C     C_3   0.122973 0.499174 0.500841 -0.035453
C8    C     C_3   0.053248 0.552423 0.412740 0.272474
C9    C     C_3   0.985649 0.605786 0.489331 -0.196432
C10   C     C_3   0.056272 0.550897 0.579664 -0.298603
C11   C     C_3   0.946483 0.448246 0.588605 0.046540
C12   C     C_3   0.877678 0.501984 0.499338 -0.044305
H3    H     H_    0.970673 0.690980 0.478892 0.156423
H4    H     H_    0.105599 0.590390 0.644809 0.150655
C13   C     C_R   0.521971 0.730250 0.044034 -0.046895
H5    H     H_    0.422860 0.750730 0.848224 0.137262
C14   C     C_R   0.501482 0.595813 0.197594 -0.133025
C15   C     C_R   0.426183 0.294412 0.839227 -0.160976
C16   C     C_R   0.408823 0.262321 0.944490 -0.143600
C17   C     C_R   0.404534 0.339580 0.010701 -0.190754
C18   C     C_R   0.408716 0.450390 0.971342 0.110965
C19   C     C_R   0.406215 0.478557 0.863756 0.077100
C20   C     C_R   0.430747 0.536492 0.033704 0.077712
C21   C     C_R   0.456608 0.646771 0.987589 0.047808
C22   C     C_R   0.421265 0.668673 0.884722 -0.230806
C23   C     C_R   0.387852 0.583895 0.825437 -0.193902
C24   C     C_R   0.438770 0.515783 0.139582 -0.298553
C25   C     C_R   0.550109 0.702970 0.149396 0.169082
C26   C     C_R   0.430551 0.403336 0.798387 -0.132688
H6    H     H_    0.397071 0.435793 0.178037 0.169841
H7    H     H_    0.440692 0.234665 0.790340 0.167783
H8    H     H_    0.403328 0.310447 0.091849 0.130340
H9    H     H_    0.407068 0.178358 0.975640 0.143407
H10   H     H_    0.355985 0.603507 0.747709 0.175717
C27   C     C_R   0.316667 0.087788 0.348354 -0.308527
H11   H     H_    0.299979 0.255532 0.328472 0.131553
H12   H     H_    0.275242 0.878706 0.325623 0.154635
H13   H     H_    0.244989 0.065320 0.290389 0.145232
N1    N     N_R   0.432930 0.222190 0.444670 -0.112943
C28   C     C_R   0.662144 0.800305 0.623700 -0.019950
C29   C     C_R   0.711195 0.907429 0.639394 -0.299055
C30   C     C_R   0.659781 0.991417 0.585221 0.209274
C31   C     C_R   0.546663 0.965036 0.524229 -0.040842
C32   C     C_R   0.506794 0.854849 0.505822 0.183786
C33   C     C_R   0.476272 0.042686 0.475944 -0.014557
C34   C     C_R   0.380057 0.011157 0.402035 0.195801
C35   C     C_R   0.347883 0.903550 0.382264 -0.311913
C36   C     C_R   0.410293 0.826774 0.433694 -0.188461
C37   C     C_R   0.493619 0.149957 0.499919 -0.027816
C38   C     C_R   0.346836 0.194622 0.369795 -0.002020
N2    N     N_R   0.566370 0.776980 0.554790 -0.130983
H14   H     H_    0.551514 0.177990 0.563346 0.193017
H15   H     H_    0.706222 0.735832 0.661522 0.160921
H16   H     H_    0.795213 0.925608 0.687828 0.163177
H17   H     H_    0.387013 0.747136 0.410816 0.213658
N3    N     N_2   0.733665 0.099703 0.581614 -0.298418
H18   H     H_    0.791040 0.115042 0.644819 0.263771
C39   C     C_3   0.800729 0.143739 0.484511 -0.767063
H19   H     H_    0.748611 0.108574 0.418143 0.239329
H20   H     H_    0.900504 0.127034 0.486487 0.225712
H21   H     H_    0.806069 0.232825 0.471694 0.267161
N4    N     N_2   0.116885 0.607643 0.317406 -0.312613
H22   H     H_    0.200521 0.663548 0.328632 0.211271
C40   C     C_3   0.032208 0.650558 0.242528 -0.800509
H23   H     H_    0.088126 0.685538 0.170291 0.245235
H24   H     H_    0.992566 0.715865 0.272490 0.232181
H25   H     H_    0.950815 0.584584 0.224260 0.248710
C41   C     C_2   0.883680 0.391288 0.688330 0.355812
H26   H     H_    0.926787 0.412111 0.760799 0.065543
O9    O     O_2   0.785400 0.320244 0.688595 -0.577330
N5    N     N_2   0.633072 0.779096 0.205185 -0.281697
H27   H     H_    0.730299 0.792084 0.185605 0.249296
C42   C     C_3   0.588707 0.876881 0.221513 -0.711171
H28   H     H_    0.617873 0.897853 0.299351 0.241789
H29   H     H_    0.481405 0.865214 0.214629 0.226555
H30   H     H_    0.635453 0.946805 0.165036 0.252677
C43   C     C_2   0.571724 0.841715 0.990270 0.388083
H31   H     H_    0.507021 0.884829 0.944613 0.047137
O10   O     O_2   0.686653 0.884749 0.993869 -0.576320

loop_
_geom_bond_atom_site_label_1
_geom_bond_atom_site_label_2
_geom_bond_distance
_ccdc_geom_bond_type
C5    H2    1.110255 S    
C31   C32   1.417993 A    
C20   C21   1.417968 A    
N1    C37   1.350034 A    
C40   H25   1.110704 S    
C27   C38   1.384132 A    
C29   C30   1.398294 A    
Zn1   O7    1.996369 S    
C19   C26   1.417764 A    
N4    C40   1.444917 S    
C3    C14   1.466804 S    
C21   C22   1.399897 A    
C40   H24   1.111347 S    
C15   C16   1.387807 A    
O7    C4    1.294530 A    
C30   N3    1.421318 S    
C5    C6    1.552742 S    
O5    C3    1.311674 A    
N5    H27   1.030990 S    
C36   H17   1.064600 S    
C6    H1    1.109600 S    
C11   C12   1.525490 S    
C15   C26   1.402418 A    
C39   H19   1.111809 S    
C11   C41   1.496594 S    
C24   H6    1.076263 S    
C35   C36   1.381623 A    
C19   C23   1.411345 A    
C9    C10   1.552422 S    
C25   N5    1.425662 S    
N1    C38   1.354011 A    
O3    Zn1   1.989892 S    
C27   H13   1.083921 S    
C42   H29   1.110723 S    
C5    C8    1.531049 S    
N4    H22   1.029114 S    
C7    C10   1.535589 S    
C40   H23   1.110348 S    
O3    C2    1.295020 A    
N3    H18   1.031740 S    
C34   C35   1.387217 A    
C42   H28   1.107890 S    
O6    C3    1.309502 A    
C32   C36   1.398890 A    
O1    C1    1.311231 A    
C37   H14   1.075487 S    
C20   C24   1.380822 A    
C22   C23   1.385247 A    
H11   C38   1.081929 S    
C16   C17   1.391724 A    
C13   C25   1.419868 A    
Zn2   O8    1.989894 S    
C2    C12   1.421146 S    
C14   C24   1.392182 A    
C39   H21   1.105787 S    
C18   C19   1.407933 A    
C17   H8    1.077363 S    
C32   N2    1.361496 A    
C8    N4    1.447111 S    
C29   H16   1.083081 S    
C41   O9    1.219731 D    
C5    C12   1.537650 S    
N5    C42   1.447339 S    
O8    C4    1.292320 A    
C6    C11   1.539440 S    
C31   C33   1.427777 A    
C16   H9    1.082866 S    
C15   H7    1.083248 S    
C43   O10   1.220712 D    
C28   C29   1.384563 A    
C42   H30   1.109106 S    
Zn1   O5    1.927035 S    
C9    H3    1.110288 S    
C30   C31   1.428681 A    
C1    C26   1.469284 S    
O1    Zn1   1.956870 S    
C4    C7    1.418267 S    
Zn2   O6    1.956873 S    
O2    Zn2   1.927034 S    
C41   H26   1.084440 S    
C28   N2    1.354509 A    
O4    Zn2   1.996366 S    
C33   C37   1.403725 A    
C13   C21   1.419013 A    
H12   C35   1.084479 S    
C17   C18   1.420092 A    
C7    C8    1.517488 S    
O2    C1    1.308825 A    
Zn1   N1    2.057221 S    
C27   C34   1.398377 A    
C33   C34   1.422194 A    
O4    C2    1.292822 A    
H5    C22   1.081184 S    
C6    C7    1.532951 S    
C14   C25   1.412218 A    
C18   C20   1.420218 A    
C13   C43   1.483842 S    
C23   H10   1.081050 S    
Zn2   N2    2.044946 S    
C8    C9    1.532422 S    
N3    C39   1.448631 S    
C10   H4    1.110577 S    
C9    C12   1.538718 S    
C10   C11   1.539924 S    
C39   H20   1.110900 S    
C43   H31   1.084377 S    
C28   H15   1.081679 S    
