data_mof_unit_14995.cif
_audit_creation_date              2012-10-26T19:25:42-0400
_audit_creation_method            fapswitch 2.2
_symmetry_space_group_name_H-M    P1
_symmetry_Int_Tables_number       1
_space_group_crystal_system       triclinic
_cell_length_a                    15.234161
_cell_length_b                    13.99014
_cell_length_c                    11.874147
_cell_angle_alpha                 89.474548
_cell_angle_beta                  90.43484
_cell_angle_gamma                 90.468946
_cell_volume                      2530.45110238

loop_
_atom_site_label
_atom_site_type_symbol
_atom_type_description
_atom_site_fract_x
_atom_site_fract_y
_atom_site_fract_z
_atom_type_partial_charge
C1    C     C_R   0.329218 0.500112 0.498895 0.584268
C2    C     C_R   0.557670 0.205807 0.432774 0.212167
C3    C     C_R   0.557587 0.796248 0.432936 0.209363
C4    C     C_R   0.442577 0.203436 0.566968 0.210584
C5    C     C_R   0.561173 0.898275 0.436211 -0.007457
C6    C     C_R   0.438496 0.101432 0.562925 -0.007228
C7    C     C_R   0.438341 0.896130 0.563128 -0.007927
C8    C     C_R   0.561182 0.103643 0.436007 -0.007284
C9    C     C_R   0.499782 0.948417 0.499619 0.020779
C10   C     C_R   0.499789 0.051306 0.499450 0.020849
C11   C     C_R   0.624617 0.952182 0.376939 -0.122896
C12   C     C_R   0.670711 0.500354 0.500600 0.582960
C13   C     C_R   0.374717 0.047534 0.621699 -0.121668
C14   C     C_R   0.374708 0.948017 0.621905 -0.124164
C15   C     C_R   0.624610 0.051717 0.376814 -0.122654
C16   C     C_R   0.501187 0.500247 0.284203 0.585600
C17   C     C_R   0.498927 0.499617 0.715806 0.583465
C18   C     C_1   0.503311 0.500191 0.162241 0.039301
C19   C     C_1   0.497035 0.498869 0.837786 0.039708
C20   C     C_1   0.502298 0.499398 0.059995 -0.038693
C21   C     C_1   0.498118 0.498827 0.940042 -0.036330
C22   C     C_R   0.812540 0.515195 0.399501 0.079709
C23   C     C_R   0.904766 0.523915 0.400408 0.013800
C24   C     C_R   0.186649 0.491492 0.598722 0.077753
C25   C     C_R   0.767431 0.502039 0.501034 0.018716
C26   C     C_R   0.232257 0.502199 0.497294 0.015375
C27   C     C_R   0.814536 0.493505 0.603111 -0.059394
C28   C     C_R   0.186524 0.527192 0.397271 -0.059739
C29   C     C_R   0.907942 0.501104 0.603506 0.000017
C30   C     C_R   0.092427 0.529297 0.395571 0.002144
C31   C     C_R   0.953102 0.510687 0.500351 0.015220
C32   C     C_R   0.046863 0.510384 0.497631 0.015669
C33   C     C_R   0.766879 0.463911 0.706007 0.032286
C34   C     C_R   0.094312 0.494455 0.598567 0.014094
C35   C     C_R   0.769613 0.368193 0.742344 -0.079913
C36   C     C_R   0.735038 0.341984 0.846962 -0.109624
C37   C     C_R   0.699810 0.411551 0.916703 -0.088306
C38   C     C_R   0.696378 0.506789 0.880107 -0.101838
C39   C     C_R   0.726206 0.532302 0.773024 -0.084639
C40   C     C_R   0.239283 0.558529 0.299508 0.033953
C41   C     C_R   0.266380 0.492194 0.219556 -0.097303
C42   C     C_R   0.305084 0.524305 0.119795 -0.106432
C43   C     C_R   0.323603 0.621599 0.103745 -0.082251
C44   C     C_R   0.303233 0.686979 0.187635 -0.095172
C45   C     C_R   0.958462 0.501533 0.703649 -0.017846
C46   C     C_R   0.260531 0.655737 0.285160 -0.063304
C47   C     C_R   0.925524 0.540505 0.809340 0.040901
C48   C     C_R   0.906204 0.638332 0.815177 -0.096260
C49   C     C_R   0.877085 0.677137 0.915829 -0.116528
C50   C     C_R   0.867918 0.618684 0.010826 -0.088443
C51   C     C_R   0.889441 0.521561 0.005685 -0.086996
C52   C     C_R   0.919119 0.482726 0.905572 -0.079547
C53   C     C_R   0.074553 0.574848 0.185993 0.041504
C54   C     C_R   0.078924 0.670104 0.148096 -0.090116
C55   C     C_R   0.103398 0.690558 0.037250 -0.098951
C56   C     C_R   0.040591 0.551946 0.298361 -0.018310
C57   C     C_R   0.123011 0.616101 0.964255 -0.074231
C58   C     C_R   0.116930 0.521129 0.001848 -0.100925
C59   C     C_R   0.090022 0.500506 0.111052 -0.091789
C60   C     C_R   0.048506 0.489118 0.699544 -0.117176
C61   C     C_R   0.949446 0.548740 0.303140 -0.119306
C62   C     C_R   0.441931 0.794049 0.566716 0.209182
Cu1   Cu    Cu3+1 0.500000 0.597420 0.500000 1.047790
Cu2   Cu    Cu3+1 0.500000 0.402580 0.500000 1.058569
H1    H     H_    0.082612 0.483882 0.778161 0.136247
H2    H     H_    0.670938 0.561144 0.934964 0.141937
H3    H     H_    0.723500 0.606319 0.745797 0.120876
H4    H     H_    0.251805 0.416832 0.230825 0.113899
H5    H     H_    0.320195 0.473655 0.054562 0.145105
H6    H     H_    0.354018 0.646139 0.026527 0.147111
H7    H     H_    0.318281 0.762101 0.175728 0.117758
H8    H     H_    0.241755 0.707300 0.347867 0.120034
H9    H     H_    0.913142 0.684049 0.741612 0.114769
H10   H     H_    0.861188 0.752259 0.920039 0.116054
H11   H     H_    0.843966 0.649287 0.087808 0.143689
H12   H     H_    0.913318 0.568908 0.229129 0.136538
H13   H     H_    0.883315 0.475341 0.078429 0.139255
H14   H     H_    0.935935 0.407729 0.902524 0.108510
H15   H     H_    0.063187 0.727994 0.204200 0.107260
H16   H     H_    0.107300 0.763948 0.008041 0.112333
H17   H     H_    0.142577 0.632285 0.878820 0.149769
H18   H     H_    0.133343 0.462496 0.947947 0.130441
H19   H     H_    0.083411 0.426687 0.138253 0.108291
H20   H     H_    0.676760 0.919386 0.330602 0.151072
H21   H     H_    0.322303 0.080347 0.667538 0.152015
H22   H     H_    0.322476 0.913643 0.668142 0.150440
H23   H     H_    0.676722 0.086048 0.330335 0.151817
H24   H     H_    0.800564 0.314676 0.691012 0.120758
H25   H     H_    0.737909 0.268342 0.875335 0.122720
H26   H     H_    0.675646 0.391841 0.999248 0.160788
I1    I     I_    0.741386 0.506497 0.243545 -0.409641
I2    I     I_    0.259508 0.487769 0.754285 -0.401239
I3    I     I_    0.358062 0.724530 0.686399 -0.353822
I4    I     I_    0.641008 0.274978 0.312769 -0.328847
I5    I     I_    0.639367 0.730385 0.312067 -0.337482
I6    I     I_    0.362906 0.268166 0.690164 -0.308015
N1    N     N_R   0.500000 0.743810 0.500000 -0.233747
N2    N     N_R   0.500000 0.256190 0.500000 -0.234744
O1    O     O_R   0.370260 0.582280 0.500020 -0.476560
O2    O     O_R   0.629740 0.417720 0.499980 -0.472137
O3    O     O_R   0.629740 0.582280 0.499980 -0.480164
O4    O     O_R   0.370260 0.417720 0.500020 -0.475737
O5    O     O_R   0.500010 0.582270 0.337200 -0.469067
O6    O     O_R   0.499990 0.417730 0.662800 -0.468227
O7    O     O_R   0.499990 0.582270 0.662800 -0.478286
O8    O     O_R   0.500010 0.417730 0.337200 -0.476851

loop_
_geom_bond_atom_site_label_1
_geom_bond_atom_site_label_2
_ccdc_geom_bond_type
C36   H25   S    
C45   C60   A    
C4    N2    A    
C27   C29   A    
C41   C42   A    
C35   C36   A    
Cu1   O3    S    
C1    O1    A    
C53   C59   A    
C53   C54   A    
C27   C33   S    
Cu2   O4    S    
C33   C39   A    
C37   H26   S    
C36   C37   A    
C19   C21   T    
C17   O6    A    
C59   H19   S    
C5    C11   A    
C58   H18   S    
C38   C39   A    
C28   C40   S    
C44   H7    S    
C7    C9    A    
Cu1   O1    S    
C17   C19   S    
C4    I6    S    
C11   C15   A    
C7    C14   A    
C38   H2    S    
C43   H6    S    
C22   C25   A    
C22   I1    S    
Cu1   O7    S    
C9    C10   A    
C46   H8    S    
C16   O8    A    
Cu2   N2    S    
C49   H10   S    
C13   C14   A    
C34   C60   A    
C52   H14   S    
C24   I2    S    
C44   C46   A    
C41   H4    S    
C45   C47   S    
C61   H12   S    
C51   C52   A    
C2    I4    S    
C14   H22   S    
C4    C6    A    
C58   C59   A    
C30   C56   A    
C42   H5    S    
C24   C34   A    
C29   C45   A    
C32   C34   A    
C40   C46   A    
C43   C44   A    
C51   H13   S    
C7    C62   A    
C5    C9    A    
C37   C38   A    
C17   O7    A    
C62   N1    A    
C35   H24   S    
C3    N1    A    
C16   O5    A    
C47   C48   A    
C23   C61   A    
C50   C51   A    
C16   C18   S    
Cu1   O5    S    
C48   C49   A    
C60   H1    S    
C8    C15   A    
C55   C57   A    
C1    C26   S    
C57   H17   S    
C42   C43   A    
C15   H23   S    
C54   H15   S    
C53   C56   S    
Cu2   O6    S    
C54   C55   A    
C40   C41   A    
C22   C23   A    
C39   H3    S    
C48   H9    S    
C31   C32   A    
C2    C8    A    
Cu1   N1    S    
C24   C26   A    
C3    C5    A    
C6    C10   A    
Cu2   O8    S    
C47   C52   A    
C11   H20   S    
C25   C27   A    
C26   C28   A    
C12   C25   S    
C28   C30   A    
C12   O3    A    
C29   C31   A    
C50   H11   S    
C6    C13   A    
C30   C32   A    
C55   H16   S    
C57   C58   A    
C33   C35   A    
C18   C20   T    
C12   O2    A    
Cu1   Cu2   S    
Cu2   O2    S    
C20   C21   S    
C2    N2    A    
C8    C10   A    
C49   C50   A    
C62   I3    S    
C13   H21   S    
C56   C61   A    
C3    I5    S    
C1    O4    A    
C23   C31   A    
