data_mof_unit_61937.cif
_audit_creation_date              2012-12-10T18:16:44-0500
_audit_creation_method            fapswitch 2.2
_symmetry_space_group_name_H-M    P1
_symmetry_Int_Tables_number       1
_space_group_crystal_system       triclinic
_cell_length_a                    38.702496
_cell_length_b                    32.237623
_cell_length_c                    21.424409
_cell_angle_alpha                 89.998054
_cell_angle_beta                  123.593247
_cell_angle_gamma                 89.961443
_cell_volume                      22266.3293536

loop_
_atom_site_label
_atom_site_type_symbol
_atom_type_description
_atom_site_fract_x
_atom_site_fract_y
_atom_site_fract_z
_atom_type_partial_charge
C1    C     C_R   0.920405 0.000019 0.420397 0.826716
C2    C     C_R   0.079595 0.999989 0.579603 0.828185
C3    C     C_R   0.420405 0.500019 0.420401 0.827398
C4    C     C_R   0.579595 0.499989 0.579600 0.827533
C5    C     C_3   0.000097 0.000093 0.688976 -0.012003
C6    C     C_3   0.000067 0.000087 0.311189 -0.012019
C7    C     C_3   0.500103 0.500090 0.688981 -0.012046
C8    C     C_3   0.499930 0.500105 0.311049 -0.011998
C9    C     C_R   0.728233 0.977187 0.183217 -0.173401
C10   C     C_R   0.271816 0.976281 0.815842 -0.174178
C11   C     C_R   0.228233 0.476701 0.183790 -0.173939
C12   C     C_R   0.771817 0.475789 0.815230 -0.173818
C13   C     C_R   0.706320 0.000012 0.206230 0.151874
C14   C     C_R   0.293680 0.999939 0.793755 0.152403
C15   C     C_R   0.206320 0.500011 0.206234 0.152283
C16   C     C_R   0.793680 0.499940 0.793749 0.152207
C17   C     C_R   0.728152 0.022849 0.272999 -0.173433
C18   C     C_R   0.271801 0.023585 0.727903 -0.174110
C19   C     C_R   0.228151 0.523334 0.272435 -0.173873
C20   C     C_R   0.771798 0.524077 0.728504 -0.173505
C21   C     C_R   0.771596 0.022860 0.316457 -0.174699
C22   C     C_R   0.228357 0.023575 0.684441 -0.175452
C23   C     C_R   0.271594 0.523344 0.315894 -0.175030
C24   C     C_R   0.728355 0.524065 0.685042 -0.174761
C25   C     C_R   0.793507 0.000035 0.293442 0.153548
C26   C     C_R   0.206493 0.999920 0.706531 0.153998
C27   C     C_R   0.293507 0.500034 0.293450 0.153990
C28   C     C_R   0.706493 0.499918 0.706526 0.153776
C29   C     C_R   0.771676 0.977199 0.226672 -0.174596
C30   C     C_R   0.228371 0.976273 0.772381 -0.175787
C31   C     C_R   0.271677 0.476713 0.227248 -0.175414
C32   C     C_R   0.728373 0.475779 0.771768 -0.175248
C33   C     C_1   0.661533 0.999999 0.161437 -0.065693
C34   C     C_1   0.338467 0.999954 0.838558 -0.066326
C35   C     C_1   0.161533 0.499999 0.161439 -0.066168
C36   C     C_1   0.838467 0.499956 0.838553 -0.065838
C37   C     C_1   0.838292 0.000040 0.338248 -0.067485
C38   C     C_1   0.161708 0.999926 0.661739 -0.068743
C39   C     C_1   0.338292 0.500040 0.338256 -0.068219
C40   C     C_1   0.661709 0.499924 0.661734 -0.068027
C41   C     C_1   0.875771 0.000037 0.375745 -0.174813
C42   C     C_1   0.124229 0.999945 0.624250 -0.175369
C43   C     C_1   0.375771 0.500037 0.375751 -0.175263
C44   C     C_1   0.624229 0.499944 0.624246 -0.174965
C45   C     C_R   0.000059 0.000020 0.620657 0.798400
C46   C     C_R   0.000029 0.000020 0.379432 0.798367
C47   C     C_R   0.500062 0.500020 0.620660 0.798407
C48   C     C_R   0.499959 0.500023 0.379361 0.798389
C49   C     C_1   0.624052 0.999994 0.123963 -0.164137
C50   C     C_1   0.375948 0.999972 0.876036 -0.164581
C51   C     C_1   0.124052 0.499994 0.123963 -0.164513
C52   C     C_1   0.875948 0.499974 0.876034 -0.164224
C53   C     C_R   0.000015 0.920450 0.000015 0.841471
C54   C     C_R   0.500015 0.420450 0.000013 0.842746
C55   C     C_R   0.000016 0.000289 0.879390 0.805574
C56   C     C_R   0.000005 0.000281 0.120631 0.804973
C57   C     C_R   0.500017 0.500288 0.879391 0.805351
C58   C     C_R   0.499988 0.500293 0.120614 0.806345
C59   C     C_R   0.999985 0.079660 0.999985 0.821925
C60   C     C_R   0.499985 0.579660 0.999985 0.822050
C61   C     C_R   0.500000 0.920637 0.000000 0.818884
C62   C     C_R   1.000000 0.420637 0.000000 0.818907
C63   C     C_R   0.579413 0.999998 0.079350 0.819167
C64   C     C_R   0.420587 0.999997 0.920651 0.819016
C65   C     C_R   0.079413 0.499998 0.079349 0.819029
C66   C     C_R   0.920587 0.499998 0.920650 0.819139
C67   C     C_R   0.500000 0.079474 0.999999 0.819729
C68   C     C_R   0.000000 0.579473 0.999999 0.819709
C69   C     C_R   0.477855 0.228274 0.023532 -0.173682
C70   C     C_R   0.522224 0.228231 0.976558 -0.173405
C71   C     C_R   0.977907 0.728274 0.023640 -0.174273
C72   C     C_R   0.022181 0.728231 0.976465 -0.173524
C73   C     C_R   0.500034 0.206380 0.000037 0.151995
C74   C     C_R   0.000037 0.706381 0.000044 0.152067
C75   C     C_R   0.022189 0.771675 0.976474 -0.174260
C76   C     C_R   0.977920 0.771718 0.023659 -0.172817
C77   C     C_R   0.522232 0.271675 0.976564 -0.173261
C78   C     C_R   0.477868 0.271718 0.023550 -0.172624
C79   C     C_3   0.963812 0.984451 0.692980 -0.147111
C80   C     C_3   0.030994 0.975477 0.301798 -0.208097
C81   C     C_3   0.463611 0.484932 0.692775 -0.147136
C82   C     C_3   0.535292 0.482438 0.306107 -0.147921
C83   C     C_R   0.000059 0.793566 0.000072 0.152777
C84   C     C_R   0.500055 0.293566 0.000062 0.154031
C85   C     C_1   0.500020 0.161594 0.000020 -0.065610
C86   C     C_1   0.000023 0.661594 0.000024 -0.065758
C87   C     C_1   0.000058 0.838346 0.000065 -0.063571
C88   C     C_1   0.500055 0.338346 0.000057 -0.062854
C89   C     C_1   0.000046 0.875823 0.000049 -0.164632
C90   C     C_1   0.500045 0.375823 0.000044 -0.163619
C91   C     C_1   0.500010 0.124113 0.000008 -0.164492
C92   C     C_1   0.000011 0.624113 0.000009 -0.164568
C93   C     C_R   0.476416 0.771891 0.932343 -0.174123
C94   C     C_R   0.523497 0.771841 0.067594 -0.173919
C95   C     C_R   0.976924 0.271890 0.932247 -0.173983
C96   C     C_R   0.022986 0.271841 0.067690 -0.174049
C97   C     C_R   0.499962 0.793736 0.999973 0.152364
C98   C     C_R   0.999961 0.293736 0.999973 0.152305
C99   C     C_R   0.022975 0.228398 0.067682 -0.175543
C100  C     C_R   0.976915 0.228446 0.932238 -0.175507
C101  C     C_R   0.523486 0.728397 0.067586 -0.175443
C102  C     C_R   0.476407 0.728447 0.932334 -0.175608
C103  C     C_R   0.999940 0.206553 0.999956 0.153898
C104  C     C_R   0.499942 0.706553 0.999956 0.153896
C105  C     C_1   0.499977 0.838521 0.999982 -0.066246
C106  C     C_1   0.999976 0.338521 0.999982 -0.066258
C107  C     C_3   0.995898 0.962378 0.766117 0.208450
C108  C     C_3   0.994197 0.962592 0.223994 0.208249
C109  C     C_3   0.495397 0.462434 0.765614 0.208439
C110  C     C_3   0.502030 0.462214 0.231813 0.208430
C111  C     C_1   0.999942 0.161770 0.999950 -0.069084
C112  C     C_1   0.499942 0.661770 0.999950 -0.069100
C113  C     C_1   0.999954 0.124292 0.999958 -0.173236
C114  C     C_1   0.499954 0.624292 0.999957 -0.173264
C115  C     C_1   0.499988 0.876001 0.999991 -0.164396
C116  C     C_1   0.999988 0.376001 0.999991 -0.164407
C117  C     C_3   0.000076 0.000669 0.811180 0.009498
C118  C     C_3   0.000074 0.000654 0.188972 0.009553
C119  C     C_3   0.500084 0.500665 0.811188 0.009475
C120  C     C_3   0.499956 0.500682 0.188851 0.009552
C121  C     C_3   0.968277 0.023787 0.738708 -0.193203
C122  C     C_3   0.036880 0.014582 0.266403 -0.194740
C123  C     C_3   0.468599 0.524206 0.739029 -0.193037
C124  C     C_3   0.532987 0.521958 0.262544 -0.193796
C125  C     C_3   0.004407 0.039447 0.733375 -0.154791
C126  C     C_3   0.006119 0.039207 0.277141 -0.155112
C127  C     C_3   0.504935 0.539383 0.733903 -0.154691
C128  C     C_3   0.497778 0.539643 0.268805 -0.155098
C129  C     C_3   0.036225 0.016217 0.806674 -0.193075
C130  C     C_3   0.969334 0.025166 0.198922 -0.191017
C131  C     C_3   0.536441 0.515729 0.806890 -0.193100
C132  C     C_3   0.464729 0.518255 0.194288 -0.192680
C133  C     C_3   0.032083 0.976880 0.761257 -0.208569
C134  C     C_3   0.963124 0.986067 0.233995 -0.147155
C135  C     C_3   0.531775 0.476453 0.760951 -0.208599
C136  C     C_3   0.466713 0.478737 0.237559 -0.207237
Cu1   Cu    Cu3+1 0.000000 0.041030 0.500000 0.947682
Cu2   Cu    Cu3+1 0.500000 0.541030 0.500000 0.947593
Cu3   Cu    Cu3+1 0.000000 0.958990 0.500000 0.947247
Cu4   Cu    Cu3+1 0.500000 0.458990 0.500000 0.947405
Cu5   Cu    Cu3+1 0.041030 0.000050 0.040990 0.945137
Cu6   Cu    Cu3+1 0.958970 0.000050 0.959010 0.968171
Cu7   Cu    Cu3+1 0.541030 0.500050 0.040990 0.955852
Cu8   Cu    Cu3+1 0.458970 0.500050 0.959010 0.956541
Cu9   Cu    Cu3+1 0.500010 0.000050 0.062750 0.962733
Cu10  Cu    Cu3+1 0.499990 0.000050 0.937250 0.962709
Cu11  Cu    Cu3+1 0.000010 0.500050 0.062750 0.962660
Cu12  Cu    Cu3+1 0.999990 0.500050 0.937250 0.962719
H1    H     H_    0.788077 0.040640 0.367932 0.136700
H2    H     H_    0.211839 0.041990 0.633685 0.136390
H3    H     H_    0.288075 0.541503 0.366927 0.136503
H4    H     H_    0.711836 0.542862 0.634759 0.136763
H5    H     H_    0.960688 0.788249 0.042033 0.140334
H6    H     H_    0.039426 0.788173 0.958104 0.136091
H7    H     H_    0.460599 0.288250 0.041846 0.136611
H8    H     H_    0.539506 0.288172 0.958272 0.136272
H9    H     H_    0.460574 0.211779 0.041812 0.138169
H10   H     H_    0.539497 0.211701 0.958267 0.138190
H11   H     H_    0.960662 0.711779 0.041996 0.138773
H12   H     H_    0.039415 0.711703 0.958096 0.138001
H13   H     H_    0.958981 0.211952 0.879503 0.136126
H14   H     H_    0.040905 0.211865 0.120411 0.136130
H15   H     H_    0.458075 0.711953 0.879673 0.136022
H16   H     H_    0.541813 0.711865 0.120241 0.136214
H17   H     H_    0.458090 0.788423 0.879688 0.137902
H18   H     H_    0.541832 0.788334 0.120255 0.138129
H19   H     H_    0.958995 0.288422 0.879517 0.138094
H20   H     H_    0.040925 0.288335 0.120425 0.138049
H21   H     H_    0.934489 0.970850 0.645851 0.132183
H22   H     H_    0.055773 0.954638 0.344263 0.137108
H23   H     H_    0.434108 0.471726 0.645463 0.131793
H24   H     H_    0.563825 0.467194 0.352427 0.133015
H25   H     H_    0.942386 0.043129 0.730768 0.144564
H26   H     H_    0.066908 0.026498 0.278519 0.150436
H27   H     H_    0.442969 0.543890 0.731355 0.144205
H28   H     H_    0.559896 0.539814 0.271506 0.145699
H29   H     H_    0.007978 0.071482 0.718720 0.149915
H30   H     H_    0.011111 0.071048 0.300361 0.149384
H31   H     H_    0.508936 0.571366 0.719676 0.149907
H32   H     H_    0.495992 0.571832 0.285237 0.150060
H33   H     H_    0.065689 0.029451 0.854043 0.150564
H34   H     H_    0.944331 0.045631 0.155964 0.144844
H35   H     H_    0.566080 0.528569 0.854430 0.150897
H36   H     H_    0.436042 0.533133 0.147679 0.149692
H37   H     H_    0.057763 0.957161 0.769231 0.134891
H38   H     H_    0.933224 0.973784 0.221934 0.130307
H39   H     H_    0.557190 0.456393 0.768661 0.135351
H40   H     H_    0.439997 0.460503 0.228584 0.133952
H41   H     H_    0.788221 0.959425 0.208234 0.136977
H42   H     H_    0.211864 0.957854 0.790103 0.135831
H43   H     H_    0.288222 0.458561 0.209253 0.135941
H44   H     H_    0.711868 0.456977 0.789018 0.136116
H45   H     H_    0.711752 0.959403 0.131746 0.138511
H46   H     H_    0.288333 0.957867 0.866598 0.137839
H47   H     H_    0.211754 0.458539 0.132762 0.137972
H48   H     H_    0.788336 0.456993 0.865514 0.138008
H49   H     H_    0.711609 0.040624 0.291439 0.138387
H50   H     H_    0.288307 0.042008 0.710184 0.138062
H51   H     H_    0.211607 0.541486 0.290431 0.138075
H52   H     H_    0.788303 0.542884 0.711258 0.138323
O1    O     O_R   0.940150 0.034650 0.440170 -0.579781
O2    O     O_R   0.059850 0.034650 0.559830 -0.580214
O3    O     O_R   0.440150 0.534650 0.440170 -0.579939
O4    O     O_R   0.559850 0.534650 0.559830 -0.580051
O5    O     O_R   0.559860 0.000050 0.112810 -0.578785
O6    O     O_R   0.440140 0.000050 0.887190 -0.578923
O7    O     O_R   0.059860 0.500050 0.112810 -0.578871
O8    O     O_R   0.940140 0.500050 0.887190 -0.578754
O9    O     O_R   0.559850 0.999980 0.006800 -0.578874
O10   O     O_R   0.440150 0.999980 0.993200 -0.578985
O11   O     O_R   0.059850 0.499980 0.006800 -0.579004
O12   O     O_R   0.940150 0.499980 0.993200 -0.578896
O13   O     O_R   0.500000 0.059900 0.052920 -0.578990
O14   O     O_R   0.500000 0.059900 0.947080 -0.579016
O15   O     O_R   1.000000 0.559900 0.052920 -0.579059
O16   O     O_R   0.000000 0.559900 0.947080 -0.578982
O17   O     O_R   0.940170 0.965370 0.440140 -0.580616
O18   O     O_R   0.059830 0.965370 0.559860 -0.581839
O19   O     O_R   0.440170 0.465370 0.440140 -0.581168
O20   O     O_R   0.559830 0.465370 0.559860 -0.581314
O21   O     O_R   0.000010 0.034650 0.591580 -0.590352
O22   O     O_R   0.999990 0.034650 0.408420 -0.590241
O23   O     O_R   0.500010 0.534650 0.591580 -0.590355
O24   O     O_R   0.499990 0.534650 0.408420 -0.590359
O25   O     O_R   0.000020 0.965370 0.591550 -0.590140
O26   O     O_R   0.999980 0.965370 0.408450 -0.590232
O27   O     O_R   0.500020 0.465370 0.591550 -0.590134
O28   O     O_R   0.499980 0.465370 0.408450 -0.590153
O29   O     O_R   0.034640 0.940200 0.034570 -0.585988
O30   O     O_R   0.965360 0.940200 0.965430 -0.569111
O31   O     O_R   0.534640 0.440200 0.034570 -0.578013
O32   O     O_R   0.465360 0.440200 0.965430 -0.577589
O33   O     O_R   0.034640 0.000050 0.943030 -0.596794
O34   O     O_R   0.965360 0.000050 0.056970 -0.580405
O35   O     O_R   0.534640 0.500050 0.943030 -0.597376
O36   O     O_R   0.465360 0.500050 0.056970 -0.596985
O37   O     O_R   0.965370 0.000070 0.873780 -0.581381
O38   O     O_R   0.034630 0.000070 0.126220 -0.597036
O39   O     O_R   0.465370 0.500070 0.873780 -0.580599
O40   O     O_R   0.534630 0.500070 0.126220 -0.582144
O41   O     O_R   0.034650 0.059910 0.034650 -0.582183
O42   O     O_R   0.965350 0.059910 0.965350 -0.584475
O43   O     O_R   0.534650 0.559910 0.034650 -0.583150
O44   O     O_R   0.465350 0.559910 0.965350 -0.583575
O45   O     O_R   0.500030 0.940190 0.053050 -0.578867
O46   O     O_R   0.499970 0.940190 0.946950 -0.578848
O47   O     O_R   0.000030 0.440190 0.053050 -0.578869
O48   O     O_R   0.999970 0.440190 0.946950 -0.578867
N1    N     N_3   0.990974 0.920461 0.785372 -0.595721
H53   H     H_    0.990426 0.900396 0.746529 0.219065
H54   H     H_    0.017680 0.913348 0.837579 0.206133
N2    N     N_3   0.987421 0.920935 0.193054 -0.597136
H55   H     H_    0.985881 0.900932 0.229823 0.218473
H56   H     H_    0.013829 0.912606 0.194065 0.207028
N3    N     N_3   0.489916 0.420586 0.784311 -0.595695
H57   H     H_    0.489156 0.400526 0.745261 0.219011
H58   H     H_    0.516501 0.413139 0.836466 0.205945
N4    N     N_3   0.504646 0.420084 0.210255 -0.597565
H59   H     H_    0.504208 0.400028 0.248129 0.219039
H60   H     H_    0.477538 0.414452 0.157796 0.207467

loop_
_geom_bond_atom_site_label_1
_geom_bond_atom_site_label_2
_ccdc_geom_bond_type
Cu6   O37   S    
C83   C87   S    
C22   H2    S    
Cu5   O38   S    
C49   C63   S    
Cu1   O21   S    
C8    C136  S    
C3    O3    A    
C14   C18   A    
C110  C136  S    
Cu11  Cu12  S    
C2    O2    A    
C109  C119  S    
C80   H22   S    
Cu10  O6    S    
C1    O1    A    
C94   H18   S    
Cu9   O5    S    
Cu9   Cu10  S    
C85   C91   T    
C95   C98   A    
C80   C122  S    
C13   C33   S    
C79   C121  S    
C3    C43   S    
N1    H53   S    
C16   C36   S    
C74   C86   S    
C21   C25   A    
C81   C123  S    
Cu3   O26   S    
C8    C82   S    
C82   C110  S    
C56   O38   A    
C69   C73   A    
C63   O5    A    
C11   H47   S    
C38   C42   T    
C58   O36   A    
C10   H46   S    
C77   H8    S    
C118  C122  S    
C71   C76   A    
C48   O28   A    
C9    H45   S    
C78   H7    S    
Cu6   O30   S    
Cu8   O32   S    
C109  C135  S    
Cu1   O2    S    
C28   C40   S    
C61   O45   A    
Cu7   Cu8   S    
C96   C99   A    
C31   H43   S    
C76   H5    S    
Cu12  O48   S    
C50   C64   S    
C32   H44   S    
C103  C111  S    
C51   C65   S    
C54   O32   A    
C68   O15   A    
C9    C13   A    
C20   H52   S    
C47   O23   A    
C24   H4    S    
C71   C74   A    
C25   C37   S    
C121  C125  S    
C60   C114  S    
C123  C127  S    
C8    C128  S    
C121  H25   S    
C12   C16   A    
C94   C101  A    
C27   C39   S    
C102  H15   S    
C4    O20   A    
C96   C98   A    
C61   C115  S    
C69   H9    S    
C96   H20   S    
C17   H49   S    
C100  H13   S    
C128  H32   S    
C23   C27   A    
C5    C79   S    
C117  C129  S    
C129  H33   S    
C134  H38   S    
C36   C52   T    
C133  H37   S    
C53   O30   A    
C57   C119  S    
C97   C105  S    
N3    H58   S    
C30   H42   S    
Cu9   O13   S    
C11   C31   A    
C14   C34   S    
C120  C132  S    
C136  H40   S    
C70   C77   A    
C82   C124  S    
C12   H48   S    
C56   O34   A    
C69   C78   A    
C130  C134  S    
C108  N2    S    
C11   C15   A    
C124  C128  S    
C55   O33   A    
C72   C75   A    
C58   O40   A    
Cu5   O33   S    
Cu12  O16   S    
C76   C83   A    
C15   C35   S    
C57   O35   A    
Cu4   O20   S    
C25   C29   A    
Cu11  O7    S    
C82   H24   S    
Cu4   O28   S    
C60   O44   A    
C107  N1    S    
C27   C31   A    
C108  C118  S    
C28   C32   A    
C19   H51   S    
C6    C126  S    
C72   C74   A    
C99   C103  A    
C63   O9    A    
Cu12  O11   S    
C110  C120  S    
C104  C112  S    
C95   H19   S    
Cu8   O36   S    
C95   C100  A    
C26   C38   S    
C39   C43   T    
C5    C45   S    
C4    C44   S    
C94   C97   A    
C61   O46   A    
C122  H26   S    
C126  H30   S    
C64   O6    A    
Cu1   O22   S    
C109  N3    S    
C100  C103  A    
Cu5   O41   S    
Cu8   O39   S    
C106  C116  T    
C70   H10   S    
C7    C47   S    
C122  C126  S    
C15   C19   A    
C8    C48   S    
C108  C134  S    
C18   H50   S    
C118  C130  S    
C110  N4    S    
C64   O10   A    
C99   H14   S    
C66   O8    A    
Cu2   O3    S    
Cu3   O17   S    
Cu4   O19   S    
C119  C131  S    
Cu11  O47   S    
Cu2   O24   S    
C62   O48   A    
C16   C20   A    
C130  H34   S    
C70   C73   A    
C67   C91   S    
C5    C133  S    
C79   C107  S    
C111  C113  T    
C45   O25   A    
Cu6   O42   S    
C55   O37   A    
C102  C104  A    
Cu1   Cu3   S    
C73   C85   S    
C57   O39   A    
C22   C26   A    
Cu2   Cu4   S    
Cu2   O4    S    
C129  C133  S    
C112  C114  T    
C1    C41   S    
C7    C81   S    
C81   C109  S    
C26   C30   A    
N1    H54   S    
C21   H1    S    
C60   O43   A    
C87   C89   T    
C10   C14   A    
C6    C80   S    
C29   H41   S    
C10   C30   A    
C67   O13   A    
C58   C120  S    
C125  H29   S    
C66   O12   A    
N3    H57   S    
C93   C97   A    
N4    H60   S    
C131  H35   S    
Cu10  O9    S    
C52   C66   S    
C19   C23   A    
N2    H56   S    
Cu9   O10   S    
C55   C117  S    
C132  C136  S    
C23   H3    S    
C128  C132  S    
Cu4   O27   S    
C6    C46   S    
C98   C106  S    
Cu10  O46   S    
C18   C22   A    
C56   C118  S    
C131  C135  S    
C105  C115  T    
C101  H16   S    
C24   C28   A    
Cu10  O14   S    
C88   C90   T    
C59   C113  S    
C46   O22   A    
C93   C102  A    
C77   C84   A    
C34   C50   T    
C123  H27   S    
C7    C127  S    
C135  H39   S    
C54   C90   S    
Cu7   O40   S    
C119  C123  S    
C101  C104  A    
C71   H11   S    
C54   O31   A    
C80   C108  S    
Cu11  O15   S    
C72   H12   S    
Cu9   O45   S    
C59   O41   A    
C45   O21   A    
C46   O26   A    
Cu3   O25   S    
C127  H31   S    
Cu3   O18   S    
C6    C134  S    
C86   C92   T    
C107  C133  S    
C132  H36   S    
C65   O7    A    
C35   C51   T    
C9    C29   A    
C75   H6    S    
C75   C83   A    
C62   O47   A    
C84   C88   S    
Cu1   O1    S    
Cu2   O23   S    
C2    C42   S    
Cu8   O44   S    
C48   O24   A    
C68   C92   S    
C107  C117  S    
N4    H59   S    
Cu7   O43   S    
C81   H23   S    
C37   C41   T    
C120  C124  S    
C68   O16   A    
C127  C131  S    
C78   C84   A    
C65   O11   A    
C4    O4    A    
C62   C116  S    
Cu12  O8    S    
C93   H17   S    
C13   C17   A    
Cu7   O35   S    
C125  C129  S    
C40   C44   T    
C47   O27   A    
C3    O19   A    
C59   O42   A    
C33   C49   T    
C5    C125  S    
Cu6   O34   S    
C2    O18   A    
C126  C130  S    
C79   H21   S    
C67   O14   A    
C1    O17   A    
C117  C121  S    
C53   C89   S    
Cu7   O31   S    
C124  H28   S    
Cu5   Cu6   S    
Cu5   O29   S    
C20   C24   A    
C12   C32   A    
C7    C135  S    
Cu11  O12   S    
C53   O29   A    
N2    H55   S    
C17   C21   A    
