data_mof_unit_32667.cif
_audit_creation_date              2012-12-10T18:56:26-0500
_audit_creation_method            fapswitch 2.2
_symmetry_space_group_name_H-M    P1
_symmetry_Int_Tables_number       1
_space_group_crystal_system       triclinic
_cell_length_a                    10.724274
_cell_length_b                    9.894732
_cell_length_c                    18.890417
_cell_angle_alpha                 88.261183
_cell_angle_beta                  91.355803
_cell_angle_gamma                 90.109563
_cell_volume                      2003.04886794

loop_
_atom_site_label
_atom_site_type_symbol
_atom_type_description
_atom_site_fract_x
_atom_site_fract_y
_atom_site_fract_z
_atom_type_partial_charge
C1    C     C_R   0.872362 0.500385 0.495063 -0.000863
C2    C     C_R   0.127429 0.500453 0.497196 -0.011482
C3    C     C_R   0.698341 0.537005 0.966815 0.382279
C4    C     C_R   0.574124 0.331104 0.039889 0.369913
C5    C     C_R   0.703901 0.527307 0.040823 0.379163
C6    C     C_R   0.564722 0.338633 0.966110 0.375652
C7    C     C_R   0.614889 0.446235 0.075959 -0.207996
C8    C     C_R   0.617384 0.450552 0.930085 -0.193019
C9    C     C_R   0.260007 0.500056 0.499421 0.862941
C10   C     C_R   0.739923 0.500193 0.498336 0.822823
C11   C     C_R   0.500693 0.501751 0.365240 0.924652
C12   C     C_R   0.503496 0.498009 0.634834 0.901035
C13   C     C_R   0.063713 0.377708 0.502756 -0.187903
C14   C     C_R   0.935930 0.623194 0.487572 -0.197009
C15   C     C_R   0.936204 0.377487 0.500171 -0.191946
C16   C     C_R   0.063821 0.623275 0.488544 -0.156394
C17   C     C_R   0.623452 0.399413 0.735290 -0.221230
C18   C     C_R   0.582671 0.603568 0.255002 -0.283573
C19   C     C_R   0.444541 0.411627 0.248879 -0.209432
C20   C     C_R   0.476098 0.578147 0.756888 -0.196585
C21   C     C_R   0.655828 0.389743 0.806607 0.440818
C22   C     C_R   0.599797 0.599470 0.182398 0.441926
C23   C     C_R   0.461818 0.407647 0.176297 0.423638
C24   C     C_R   0.505482 0.567130 0.829168 0.425900
C25   C     C_R   0.594331 0.471075 0.854155 0.009177
C26   C     C_R   0.560289 0.483631 0.145379 -0.002277
C27   C     C_R   0.559284 0.069510 0.553298 0.392233
C28   C     C_R   0.443028 0.930654 0.445737 0.331448
C29   C     C_R   0.436714 0.075583 0.448114 0.363308
C30   C     C_R   0.556751 0.925352 0.554346 0.364385
C31   C     C_R   0.532604 0.491453 0.710303 -0.171605
C32   C     C_R   0.511056 0.504492 0.288905 -0.176357
H1    H     H_    0.111795 0.282170 0.509769 0.152388
H2    H     H_    0.887467 0.718718 0.481011 0.146721
H3    H     H_    0.888421 0.281338 0.503011 0.144947
H4    H     H_    0.112346 0.719024 0.482921 0.169611
H5    H     H_    0.670943 0.336274 0.699163 0.200831
H6    H     H_    0.622849 0.685681 0.284481 0.181000
H7    H     H_    0.374807 0.347404 0.273464 0.207600
H8    H     H_    0.407398 0.651223 0.737415 0.203394
N1    N     N_R   0.500000 0.857200 0.500000 -0.197838
N2    N     N_R   0.500000 0.142800 0.500000 -0.197606
O1    O     O_R   0.316770 0.614620 0.500000 -0.594254
O2    O     O_R   0.683230 0.385380 0.500000 -0.625624
O3    O     O_R   0.683230 0.614620 0.500000 -0.643325
O4    O     O_R   0.316770 0.385380 0.500000 -0.604028
O5    O     O_R   0.500030 0.614710 0.398180 -0.580902
O6    O     O_R   0.499970 0.385290 0.601820 -0.557777
O7    O     O_R   0.499970 0.614710 0.601820 -0.564498
O8    O     O_R   0.500030 0.385290 0.398180 -0.559863
Zn1   Zn    Zn3+2 0.500000 0.653120 0.500000 1.011089
Zn2   Zn    Zn3+2 0.500000 0.346880 0.500000 1.026407
O9    O     O_3   0.609078 0.136262 0.610527 -0.535096
C33   C     C_3   0.740485 0.142169 0.606774 -0.198283
H9    H     H_    0.781182 0.091819 0.560581 0.078764
H10   H     H_    0.770142 0.249260 0.604969 0.167721
H11   H     H_    0.781927 0.097136 0.656317 0.200158
O10   O     O_3   0.384365 0.861812 0.391709 -0.584254
C34   C     C_3   0.443869 0.892056 0.327199 -0.137051
H12   H     H_    0.547455 0.887874 0.332913 0.132325
H13   H     H_    0.414571 0.991968 0.304465 0.207321
H14   H     H_    0.414444 0.815878 0.288315 0.203177
O11   O     O_3   0.368577 0.150948 0.398006 -0.576767
C35   C     C_3   0.240198 0.121693 0.403934 -0.207356
H15   H     H_    0.212007 0.098585 0.459439 0.119849
H16   H     H_    0.186403 0.211541 0.384460 0.182864
H17   H     H_    0.213307 0.036664 0.369775 0.201750
O12   O     O_3   0.597296 0.855235 0.614967 -0.534851
C36   C     C_3   0.723983 0.818426 0.610063 -0.115530
H18   H     H_    0.733006 0.707871 0.619978 0.180069
H19   H     H_    0.767471 0.845731 0.558547 0.078339
H20   H     H_    0.778596 0.866024 0.653122 0.168292
Cl1   Cl    Cl    0.773202 0.274282 0.834699 -0.454997
Cl2   Cl    Cl    0.634011 0.755914 0.139733 -0.420861
Cl3   Cl    Cl    0.337587 0.338247 0.126129 -0.429084
Cl4   Cl    Cl    0.427325 0.672018 0.887328 -0.413542
Cl5   Cl    Cl    0.793365 0.654199 0.920736 -0.364663
Cl6   Cl    Cl    0.565405 0.171332 0.084283 -0.355642
Cl7   Cl    Cl    0.842072 0.578178 0.085599 -0.368569
Cl8   Cl    Cl    0.485103 0.210331 0.920148 -0.345976

loop_
_geom_bond_atom_site_label_1
_geom_bond_atom_site_label_2
_ccdc_geom_bond_type
C29   O11   S    
O4    Zn2   S    
C29   N2    A    
C11   O5    A    
C12   O6    A    
C12   O7    A    
O9    C33   S    
C4    Cl6   S    
C7    C26   S    
C28   C29   A    
C20   H8    S    
O3    Zn1   S    
C21   Cl1   S    
C28   N1    A    
C23   C26   A    
C36   H19   S    
C2    C13   A    
C20   C24   A    
O12   C36   S    
O7    Zn1   S    
O8    Zn2   S    
C30   N1    A    
C1    C15   A    
C5    Cl7   S    
C2    C16   A    
O2    Zn2   S    
C9    O4    A    
C27   C30   A    
C8    C25   S    
C4    C7    A    
C19   C32   A    
C15   H3    S    
C33   H10   S    
C34   H13   S    
C9    O1    A    
C10   O2    A    
C35   H17   S    
C24   C25   A    
C4    C6    A    
C3    C8    A    
C5    C7    A    
C24   Cl4   S    
C6    C8    A    
O10   C34   S    
C17   C21   A    
C35   H16   S    
C36   H20   S    
C19   C23   A    
C13   H1    S    
C6    Cl8   S    
O6    Zn2   S    
C10   O3    A    
C17   H5    S    
C19   H7    S    
C11   C32   S    
C13   C15   A    
C12   C31   S    
C17   C31   A    
C14   C16   A    
C18   C32   A    
C22   Cl2   S    
C3    Cl5   S    
C21   C25   A    
C33   H9    S    
C34   H14   S    
C18   C22   A    
C1    C10   S    
C23   Cl3   S    
C3    C5    A    
C14   H2    S    
O5    Zn1   S    
C27   O9    S    
C20   C31   A    
C28   O10   S    
C35   H15   S    
C18   H6    S    
C11   O8    A    
C16   H4    S    
C27   N2    A    
O1    Zn1   S    
C36   H18   S    
O11   C35   S    
C34   H12   S    
C22   C26   A    
C1    C14   A    
C2    C9    S    
N1    Zn1   S    
C30   O12   S    
N2    Zn2   S    
C33   H11   S    
