data_mof_unit_29249.cif
_audit_creation_date              2012-12-10T19:04:48-0500
_audit_creation_method            fapswitch 2.2
_symmetry_space_group_name_H-M    P1
_symmetry_Int_Tables_number       1
_space_group_crystal_system       triclinic
_cell_length_a                    15.860276
_cell_length_b                    10.829052
_cell_length_c                    9.575674
_cell_angle_alpha                 89.782941
_cell_angle_beta                  90.592709
_cell_angle_gamma                 90.835105
_cell_volume                      1644.36523823

loop_
_atom_site_label
_atom_site_type_symbol
_atom_type_description
_atom_site_fract_x
_atom_site_fract_y
_atom_site_fract_z
_atom_type_partial_charge
C1    C     C_R   0.501358 0.262687 0.500404 0.814019
C2    C     C_3   0.082985 0.497812 0.501404 0.110913
C3    C     C_3   0.973487 0.589028 0.586444 -0.255937
C4    C     C_3   0.917010 0.498804 0.502516 0.109623
C5    C     C_3   0.028986 0.607933 0.455145 -0.136917
C6    C     C_3   0.970988 0.517805 0.371409 -0.176168
C7    C     C_1   0.174675 0.498229 0.498995 0.051387
C8    C     C_1   0.825340 0.499547 0.502424 0.009558
C9    C     C_R   0.496902 0.062547 0.623809 0.105043
C10   C     C_R   0.510081 0.130283 0.501779 -0.108156
C11   C     C_R   0.537262 0.068579 0.382388 -0.211831
C12   C     C_R   0.339921 0.499561 0.499385 0.817039
C13   C     C_R   0.539487 0.939763 0.379876 0.266119
C14   C     C_R   0.513017 0.871394 0.499032 -0.144927
C15   C     C_R   0.498690 0.935771 0.622476 0.059163
C16   C     C_3   0.429873 0.923531 0.727561 -0.404472
C17   C     C_3   0.427875 0.064483 0.729637 -0.222435
C18   C     C_R   0.556788 0.571179 0.074286 0.330429
C19   C     C_R   0.439462 0.436146 0.071402 0.034728
C20   C     C_R   0.440090 0.437705 0.922904 -0.034523
C21   C     C_R   0.556531 0.571600 0.927119 0.260188
C22   C     C_3   0.650191 0.562762 0.922443 -0.497652
C23   C     C_R   0.503397 0.737723 0.499409 0.834585
C24   C     C_3   0.650531 0.561008 0.080575 -0.476108
C25   C     C_R   0.660087 0.500170 0.500635 0.830087
C26   C     C_3   0.971027 0.389494 0.548558 0.247256
C27   C     C_3   0.026288 0.407578 0.417674 -0.172345
C28   C     C_1   0.250226 0.498804 0.498339 -0.109477
C29   C     C_1   0.749785 0.499945 0.501930 -0.154923
C30   C     C_3   0.028504 0.478993 0.631248 -0.030139
Cu1   Cu    Cu3+1 0.500000 0.499980 0.640670 0.960529
Cu2   Cu    Cu3+1 0.500000 0.500020 0.359330 0.971674
H1    H     H_    0.048776 0.332935 0.348839 0.181733
H2    H     H_    0.453138 0.883273 0.827491 0.205337
H3    H     H_    0.449636 0.104514 0.830787 0.142731
H4    H     H_    0.393920 0.384391 0.863790 0.175890
H5    H     H_    0.671713 0.474482 0.876916 0.226128
H6    H     H_    0.680035 0.647425 0.877824 0.214111
H7    H     H_    0.671605 0.471357 0.124740 0.214166
H8    H     H_    0.681602 0.643878 0.127292 0.237481
H9    H     H_    0.946036 0.534028 0.264262 0.158303
H10   H     H_    0.053942 0.697878 0.416379 0.167865
H11   H     H_    0.950910 0.663189 0.655880 0.166789
H12   H     H_    0.554317 0.119954 0.289295 0.188094
H13   H     H_    0.372257 0.877502 0.683936 0.218983
N1    N     N_R   0.500530 0.500930 0.147930 -0.238539
N2    N     N_R   0.500530 0.500890 0.852020 -0.217991
O1    O     O_R   0.500000 0.319640 0.618810 -0.591200
O2    O     O_R   0.500010 0.319680 0.381230 -0.619854
O3    O     O_R   0.379070 0.499970 0.618770 -0.569396
O4    O     O_R   0.379080 0.500010 0.381190 -0.596120
O5    O     O_R   0.499990 0.680320 0.618770 -0.581171
O6    O     O_R   0.500000 0.680360 0.381190 -0.530716
O7    O     O_R   0.620920 0.499990 0.618810 -0.580535
O8    O     O_R   0.620930 0.500030 0.381230 -0.577678
C31   C     C_2   0.346307 0.118323 0.676648 0.413659
H14   H     H_    0.315396 0.188292 0.737739 0.100206
O9    O     O_2   0.314628 0.084968 0.565963 -0.526418
C32   C     C_2   0.373282 0.358483 0.137881 0.392847
H15   H     H_    0.381235 0.319526 0.240341 0.138774
O10   O     O_2   0.307451 0.334412 0.075741 -0.541430
Br1   Br    Br    0.928198 0.231653 0.615025 -0.495537
C33   C     C_2   0.058228 0.457155 0.778165 0.428622
H16   H     H_    0.012431 0.445911 0.860740 0.078537
O11   O     O_2   0.133353 0.451837 0.805815 -0.506133
Br2   Br    Br    0.577588 0.868176 0.209022 -0.553867

loop_
_geom_bond_atom_site_label_1
_geom_bond_atom_site_label_2
_ccdc_geom_bond_type
C16   H13   S    
C14   C23   S    
C3    C30   S    
C12   O3    A    
C5    H10   S    
C33   O11   D    
C1    O1    A    
C26   C30   S    
C2    C27   S    
C18   C21   A    
C9    C10   A    
Cu2   O8    S    
C4    C26   S    
C19   C20   A    
C2    C30   S    
Cu1   O5    S    
C4    C8    S    
C19   C32   S    
C12   O4    A    
C23   O5    A    
C19   N1    A    
C11   H12   S    
Cu2   O4    S    
Cu1   N2    S    
C13   C14   A    
C31   H14   S    
C25   C29   S    
C11   C13   A    
C17   C31   S    
C3    H11   S    
C26   C27   S    
C5    C6    S    
Cu2   N1    S    
C12   C28   S    
C18   C24   S    
C8    C29   T    
C18   N1    A    
C9    C17   S    
C24   H8    S    
C31   O9    D    
C23   O6    A    
C3    C5    S    
C13   Br2   S    
Cu1   O7    S    
C26   Br1   S    
Cu1   O1    S    
C22   C24   S    
Cu2   O2    S    
C32   O10   D    
C2    C5    S    
C10   C11   A    
C1    C10   S    
Cu1   O3    S    
C15   C16   S    
C20   N2    A    
C25   O8    A    
Cu2   O6    S    
C32   H15   S    
C24   H7    S    
C25   O7    A    
C3    C4    S    
C4    C6    S    
C14   C15   A    
C16   C17   S    
C20   H4    S    
C17   H3    S    
C2    C7    S    
C16   H2    S    
C21   C22   S    
C22   H5    S    
C1    O2    A    
C30   C33   S    
Cu1   Cu2   S    
C27   H1    S    
C7    C28   T    
C6    C27   S    
C9    C15   A    
C33   H16   S    
C21   N2    A    
C6    H9    S    
C22   H6    S    
