data_mof_unit_44478.cif
_audit_creation_date              2012-10-26T18:29:57-0400
_audit_creation_method            fapswitch 2.2
_symmetry_space_group_name_H-M    P1
_symmetry_Int_Tables_number       1
_space_group_crystal_system       triclinic
_cell_length_a                    10.899885
_cell_length_b                    13.039484
_cell_length_c                    11.743934
_cell_angle_alpha                 99.203962
_cell_angle_beta                  93.679149
_cell_angle_gamma                 94.011078
_cell_volume                      1638.80625393

loop_
_atom_site_label
_atom_site_type_symbol
_atom_type_description
_atom_site_fract_x
_atom_site_fract_y
_atom_site_fract_z
_atom_type_partial_charge
C1    C     C_R   0.487329 0.298784 0.478976 0.541387
C2    C     C_R   0.488929 0.028968 0.553589 0.065938
C3    C     C_R   0.475265 0.966693 0.441964 -0.047355
C4    C     C_R   0.259916 0.497461 0.498711 0.525598
C5    C     C_R   0.484565 0.859349 0.433236 -0.167084
C6    C     C_R   0.530224 0.876361 0.639648 -0.138908
C7    C     C_R   0.528314 0.984468 0.650907 0.229859
C8    C     C_R   0.374613 0.403784 0.023273 -0.172368
C9    C     C_R   0.386193 0.414503 0.145257 0.040927
C10   C     C_R   0.555590 0.541294 0.152292 0.182725
C11   C     C_R   0.531441 0.545387 0.032124 0.050829
C12   C     C_3   0.879846 0.502735 0.506704 0.045990
C13   C     C_R   0.449357 0.468227 0.965768 -0.048724
C14   C     C_R   0.446501 0.457068 0.843412 0.014809
C15   C     C_R   0.590485 0.602587 0.853501 0.068601
C16   C     C_R   0.498424 0.700422 0.520791 0.525351
C17   C     C_R   0.593412 0.620143 0.974753 0.181848
C18   C     C_R   0.740652 0.501423 0.501243 0.535919
C19   C     C_3   0.079288 0.461074 0.607713 -0.226458
C20   C     C_3   0.937597 0.465479 0.619372 0.257665
C21   C     C_3   0.086056 0.613553 0.501686 -0.102692
C22   C     C_3   0.052183 0.423780 0.381942 0.062819
C23   C     C_3   0.942358 0.615031 0.494739 -0.089267
C24   C     C_3   0.121923 0.498310 0.493844 0.003720
C25   C     C_3   0.146531 0.684670 0.420795 -0.296651
C26   C     C_3   0.189903 0.794532 0.484001 -0.452829
C27   C     C_3   0.419583 0.949420 0.222088 -0.246153
C28   C     C_3   0.536569 0.934814 0.158755 -0.400490
C29   C     C_3   0.405634 0.183760 0.674517 -0.225243
C30   C     C_3   0.278732 0.221201 0.647538 -0.481098
C31   C     C_3   0.687729 0.577894 0.199176 -0.178450
C32   C     C_3   0.703051 0.684347 0.276715 -0.356509
C33   C     C_3   0.882175 0.354789 0.636352 -0.181072
C34   C     C_3   0.911237 0.421193 0.401473 -0.238282
C35   C     C_3   0.911368 0.331219 0.758558 -0.387641
C36   C     C_3   0.913791 0.719030 0.573662 -0.299968
C37   C     C_3   0.791901 0.725290 0.625895 -0.411378
C38   C     C_3   0.069186 0.468681 0.265103 -0.251334
C39   C     C_3   0.025807 0.395688 0.151548 -0.459915
C40   C     C_3   0.103693 0.312066 0.369331 -0.231745
C41   C     C_3   0.015225 0.216659 0.317188 -0.452022
C42   C     C_R   0.504278 0.813769 0.531748 -0.045310
C43   C     C_R   0.466496 0.183788 0.466556 -0.020114
C44   C     C_R   0.448882 0.012826 0.342690 0.038754
C45   C     C_R   0.450407 0.121620 0.355135 0.210966
C46   C     C_R   0.462199 0.134002 0.565191 0.001840
Cu1   Cu    Cu3+1 0.509350 0.507730 0.615930 0.915669
Cu2   Cu    Cu3+1 0.490650 0.492270 0.384070 0.910868
H1    H     H_    0.130423 0.509080 0.685400 0.130235
H2    H     H_    0.325466 0.366380 0.187639 0.113398
H3    H     H_    0.124578 0.649437 0.590322 0.137424
H4    H     H_    0.871538 0.343305 0.411294 0.110764
H5    H     H_    0.112466 0.838085 0.516403 0.139297
H6    H     H_    0.256770 0.790854 0.558182 0.160603
H7    H     H_    0.234358 0.839336 0.422945 0.147811
H8    H     H_    0.227915 0.652298 0.382162 0.191407
H9    H     H_    0.081678 0.694587 0.347455 0.127989
H10   H     H_    0.578188 0.011339 0.143989 0.185601
H11   H     H_    0.605085 0.898382 0.209982 0.159891
H12   H     H_    0.859290 0.433809 0.322239 0.125443
H13   H     H_    0.513627 0.884160 0.073604 0.159586
H14   H     H_    0.368660 0.873219 0.224042 0.111204
H15   H     H_    0.354949 0.989029 0.169946 0.178941
H16   H     H_    0.596534 0.004130 0.811540 0.316529
H17   H     H_    0.358973 0.206667 0.268441 0.312148
H18   H     H_    0.287073 0.290042 0.603849 0.162352
H19   H     H_    0.218616 0.158099 0.591564 0.143561
H20   H     H_    0.233906 0.243811 0.729143 0.118489
H21   H     H_    0.387029 0.126569 0.732883 0.193251
H22   H     H_    0.469720 0.246721 0.725037 0.189887
H23   H     H_    0.909948 0.624978 0.405969 0.112889
H24   H     H_    0.688542 0.754219 0.983969 0.308130
H25   H     H_    0.628467 0.732906 0.255407 0.185545
H26   H     H_    0.703410 0.676167 0.368089 0.157754
H27   H     H_    0.792871 0.725654 0.265061 0.115326
H28   H     H_    0.733039 0.516508 0.233314 0.132478
H29   H     H_    0.748521 0.582632 0.127564 0.142332
H30   H     H_    0.012230 0.341029 0.782337 0.132372
H31   H     H_    0.864002 0.383258 0.822931 0.196175
H32   H     H_    0.877949 0.249441 0.762126 0.130310
H33   H     H_    0.780586 0.345602 0.619041 0.175289
H34   H     H_    0.471877 0.809194 0.350524 0.139249
H35   H     H_    0.918828 0.292237 0.575465 0.087021
H36   H     H_    0.975304 0.597364 0.730065 0.311409
H37   H     H_    0.720170 0.699961 0.556836 0.172125
H38   H     H_    0.786771 0.678305 0.695533 0.206804
H39   H     H_    0.780390 0.807325 0.664050 0.116843
H40   H     H_    0.984405 0.744997 0.646916 0.136627
H41   H     H_    0.917922 0.781262 0.519176 0.139096
H42   H     H_    0.082281 0.327941 0.137110 0.146925
H43   H     H_    0.926700 0.368969 0.148775 0.145577
H44   H     H_    0.037470 0.438759 0.078103 0.135447
H45   H     H_    0.553833 0.841428 0.715048 0.108849
H46   H     H_    0.015891 0.537507 0.263849 0.122042
H47   H     H_    0.165377 0.495207 0.255433 0.174442
H48   H     H_    0.950692 0.232112 0.246609 0.161691
H49   H     H_    0.069597 0.151410 0.282198 0.130138
H50   H     H_    0.960798 0.189877 0.385180 0.135463
H51   H     H_    0.184742 0.311920 0.316908 0.139589
H52   H     H_    0.141767 0.294960 0.452649 0.112403
H53   H     H_    0.381843 0.399711 0.790884 0.119625
H54   H     H_    0.108334 0.382487 0.613384 0.089540
H55   H     H_    0.637259 0.658371 0.809543 0.105143
H56   H     H_    0.306902 0.345875 0.974379 0.093788
N1    N     N_R   0.523430 0.519360 0.790130 -0.249617
N2    N     N_R   0.476570 0.480640 0.209880 -0.228900
O1    O     O_R   0.506640 0.354460 0.582000 -0.515950
O2    O     O_3   0.431227 0.165128 0.256715 -0.698979
O3    O     O_3   0.651067 0.711445 0.037343 -0.763153
O4    O     O_3   0.914598 0.535868 0.718861 -0.701075
O5    O     O_R   0.490840 0.341410 0.386200 -0.466814
O6    O     O_R   0.325590 0.506510 0.597900 -0.516498
O7    O     O_R   0.309790 0.493450 0.402100 -0.535676
O8    O     O_R   0.509160 0.658590 0.613800 -0.516864
O9    O     O_R   0.493360 0.645540 0.418000 -0.514537
O10   O     O_R   0.690210 0.506550 0.597900 -0.462794
O11   O     O_R   0.674410 0.493490 0.402100 -0.532014
O12   O     O_3   0.571385 0.047866 0.753691 -0.734395

loop_
_geom_bond_atom_site_label_1
_geom_bond_atom_site_label_2
_ccdc_geom_bond_type
C36   H41   S    
Cu1   O8    S    
C5    C42   A    
C16   O9    A    
C8    C13   A    
C2    C7    A    
C25   H8    S    
C26   H7    S    
C40   H51   S    
C36   H40   S    
C12   C23   S    
C37   H37   S    
C36   C37   S    
C32   H26   S    
C38   C39   S    
C4    C24   S    
C19   H54   S    
C41   H48   S    
Cu1   O6    S    
C22   C38   S    
C35   H32   S    
H16   O12   S    
C2    C46   A    
C10   C31   S    
C1    C43   S    
C14   N1    A    
Cu2   N2    S    
Cu1   Cu2   S    
C8    C9    A    
Cu1   N1    S    
C38   H47   S    
C39   H42   S    
C30   H19   S    
C45   O2    S    
C28   H13   S    
C4    O6    A    
C13   C14   A    
C34   H12   S    
C7    O12   S    
C38   H46   S    
C25   H9    S    
C32   H27   S    
C26   H6    S    
C39   H43   S    
C31   H29   S    
C29   H21   S    
Cu1   O10   S    
C22   C34   S    
C3    C44   A    
Cu2   O11   S    
C23   H23   S    
C4    O7    A    
C18   O10   A    
C32   H25   S    
C14   H53   S    
C37   H38   S    
C9    N2    A    
H36   O4    S    
C16   O8    A    
C29   C30   S    
C27   H14   S    
C33   H35   S    
C19   H1    S    
C31   C32   S    
C6    H45   S    
C22   C40   S    
C12   C20   S    
C8    H56   S    
C18   O11   A    
C30   H18   S    
C27   H15   S    
C1    O1    A    
Cu2   O9    S    
C20   O4    S    
C20   C33   S    
C40   C41   S    
Cu1   O1    S    
C21   C23   S    
C41   H49   S    
C10   N2    A    
C12   C34   S    
C26   H5    S    
C16   C42   S    
C39   H44   S    
C21   H3    S    
C44   C45   A    
C29   H22   S    
C28   H11   S    
C15   C17   A    
C21   C25   S    
H24   O3    S    
C11   C17   A    
H17   O2    S    
C37   H39   S    
C9    H2    S    
C3    C5    A    
C17   O3    S    
C40   H52   S    
C6    C7    A    
C28   H10   S    
C35   H30   S    
C34   H4    S    
C29   C46   S    
C15   N1    A    
C19   C20   S    
C2    C3    A    
C25   C26   S    
C43   C45   A    
C1    O5    A    
C5    H34   S    
C11   C13   A    
C31   H28   S    
C35   H31   S    
C33   C35   S    
C19   C24   S    
C22   C24   S    
C43   C46   A    
C10   C11   A    
Cu2   O5    S    
C23   C36   S    
C6    C42   A    
C21   C24   S    
C12   C18   S    
C27   C28   S    
C41   H50   S    
C15   H55   S    
C27   C44   S    
C33   H33   S    
C30   H20   S    
Cu2   O7    S    
