data_mof_unit_43191.cif
_audit_creation_date              2012-12-10T17:28:37-0500
_audit_creation_method            fapswitch 2.2
_symmetry_space_group_name_H-M    P1
_symmetry_Int_Tables_number       1
_space_group_crystal_system       triclinic
_cell_length_a                    10.633849
_cell_length_b                    11.941321
_cell_length_c                    12.89257
_cell_angle_alpha                 92.95796
_cell_angle_beta                  89.852664
_cell_angle_gamma                 87.768274
_cell_volume                      1633.68845109

loop_
_atom_site_label
_atom_site_type_symbol
_atom_type_description
_atom_site_fract_x
_atom_site_fract_y
_atom_site_fract_z
_atom_type_partial_charge
C1    C     C_R   0.498837 0.521797 0.700490 0.893598
C2    C     C_R   0.481667 0.561210 0.132142 -0.252392
C3    C     C_R   0.512589 0.447004 0.974454 0.164926
C4    C     C_R   0.487411 0.552997 0.025546 0.164984
C5    C     C_R   0.408261 0.949664 0.384215 0.389163
C6    C     C_R   0.591767 0.050335 0.615772 0.389160
C7    C     C_R   0.414649 0.834204 0.398657 -0.081220
C8    C     C_R   0.585366 0.165796 0.601336 -0.081213
C9    C     C_R   0.535191 0.859908 0.551710 -0.014490
C10   C     C_R   0.464811 0.140092 0.448290 -0.014452
C11   C     C_R   0.532328 0.977228 0.542719 -0.115850
C12   C     C_R   0.501163 0.478203 0.299509 0.893605
C13   C     C_R   0.467685 0.022770 0.457276 -0.115851
C14   C     C_R   0.739607 0.504078 0.514156 0.889797
C15   C     C_R   0.260394 0.495921 0.485839 0.889787
C16   C     C_R   0.894089 0.325622 0.606797 -0.117343
C17   C     C_R   0.105919 0.674370 0.393184 -0.117366
C18   C     C_R   0.953811 0.219669 0.607048 -0.134054
C19   C     C_R   0.046194 0.780317 0.392923 -0.133959
C20   C     C_R   0.063354 0.197527 0.549342 -0.126348
C21   C     C_R   0.936645 0.802459 0.450619 -0.126362
C22   C     C_R   0.118104 0.283752 0.498395 -0.080522
C23   C     C_R   0.502103 0.465343 0.188307 -0.077140
C24   C     C_R   0.881894 0.716238 0.501570 -0.080515
C25   C     C_R   0.063898 0.394323 0.504966 0.072594
C26   C     C_R   0.936104 0.605670 0.495011 0.072572
C27   C     C_R   0.943735 0.411042 0.548406 0.083013
C28   C     C_R   0.056269 0.588952 0.451576 0.083011
C29   C     C_R   0.125194 0.488635 0.469811 -0.240751
C30   C     C_R   0.874810 0.511361 0.530173 -0.240748
C31   C     C_R   0.497898 0.534658 0.811693 -0.077118
C32   C     C_R   0.468867 0.649259 0.969405 -0.172419
C33   C     C_R   0.531133 0.350742 0.030595 -0.172375
C34   C     C_R   0.474179 0.640105 0.862085 -0.155592
C35   C     C_R   0.525823 0.359896 0.137915 -0.155571
C36   C     C_R   0.518333 0.438791 0.867858 -0.252388
H1    H     H_    0.893118 0.886072 0.454956 0.165155
H2    H     H_    0.537904 0.357207 0.828926 0.181164
H3    H     H_    0.541586 0.285285 0.181198 0.198723
H4    H     H_    0.458418 0.714717 0.818802 0.198656
H5    H     H_    0.449802 0.730847 0.008297 0.182690
H6    H     H_    0.550198 0.269154 0.991703 0.182837
H7    H     H_    0.415484 0.179248 0.385839 0.199108
H8    H     H_    0.584506 0.820754 0.614167 0.199114
H9    H     H_    0.628660 0.223326 0.656476 0.176639
H10   H     H_    0.371360 0.776673 0.343513 0.176641
H11   H     H_    0.230145 0.923248 0.142112 0.397264
H12   H     H_    0.106876 0.113911 0.544995 0.165110
H13   H     H_    0.770938 0.076680 0.857327 0.397191
H14   H     H_    0.808811 0.340685 0.652197 0.147156
H15   H     H_    0.191203 0.659308 0.347792 0.147166
H16   H     H_    0.913237 0.154011 0.649576 0.202518
H17   H     H_    0.086767 0.845973 0.350393 0.202656
H18   H     H_    0.200452 0.261828 0.451367 0.180193
H19   H     H_    0.799545 0.738166 0.548592 0.180256
H20   H     H_    0.462096 0.642794 0.171074 0.181151
N1    N     N_R   0.523130 0.207800 0.519340 -0.142732
N2    N     N_R   0.476870 0.792200 0.480660 -0.142732
O1    O     O_R   0.506170 0.421700 0.658830 -0.633389
O2    O     O_2   0.414960 0.063066 0.210568 -0.306692
O3    O     O_3   0.276026 0.888771 0.199947 -0.600557
O4    O     O_2   0.585162 0.936985 0.789460 -0.306298
O5    O     O_2   0.783069 0.927550 0.690760 -0.348529
O6    O     O_3   0.724176 0.111219 0.799952 -0.600464
O7    O     O_R   0.493830 0.578300 0.341170 -0.633390
O8    O     O_R   0.491330 0.609310 0.646410 -0.621789
O9    O     O_R   0.508670 0.390690 0.353590 -0.621777
O10   O     O_R   0.690650 0.406190 0.506220 -0.607525
O11   O     O_R   0.309350 0.593810 0.493780 -0.607533
O12   O     O_R   0.675800 0.593810 0.493800 -0.623706
O13   O     O_R   0.324200 0.406190 0.506200 -0.623704
O14   O     O_2   0.216960 0.072400 0.309147 -0.348078
S1    S     S_3+6 0.327534 0.997668 0.273928 -0.030907
S2    S     S_3+6 0.672558 0.002328 0.726028 -0.030933
Zn1   Zn    Zn3+2 0.509910 0.374730 0.508290 0.959596
Zn2   Zn    Zn3+2 0.490090 0.625270 0.491710 0.959585

loop_
_geom_bond_atom_site_label_1
_geom_bond_atom_site_label_2
_ccdc_geom_bond_type
C35   H3    S    
C17   H15   S    
C18   H16   S    
C22   H18   S    
C24   H19   S    
C12   C23   S    
O7    Zn2   S    
C34   H4    S    
C33   H6    S    
C28   C29   A    
C19   C21   A    
C16   H14   S    
C1    O1    A    
C3    C33   A    
O2    S1    D    
C1    C31   S    
O11   Zn2   S    
C9    N2    A    
C8    H9    S    
C17   C19   A    
C22   C25   A    
C32   H5    S    
C6    S2    S    
C7    N2    A    
C5    C13   A    
C19   H17   S    
C16   C27   A    
H13   O6    S    
C27   C30   A    
C14   O12   A    
C14   C30   S    
C15   C29   S    
C25   C29   A    
C15   O11   A    
C12   O9    A    
N2    Zn2   S    
C7    H10   S    
C10   N1    A    
C6    C11   A    
C5    C7    A    
C6    C8    A    
O3    S1    S    
O10   Zn1   S    
C32   C34   A    
C2    C4    A    
C8    N1    A    
O8    Zn2   S    
C1    O8    A    
C31   C34   A    
C4    C32   A    
C9    C11   A    
C20   H12   S    
C20   C22   A    
C26   C30   A    
C23   C35   A    
O12   Zn2   S    
O9    Zn1   S    
C3    C4    A    
O1    Zn1   S    
C9    H8    S    
C14   O10   A    
C10   H7    S    
C17   C28   A    
C24   C26   A    
O14   S1    D    
C10   C13   A    
H11   O3    S    
O5    S2    D    
C25   C27   A    
C15   O13   A    
C12   O7    A    
C26   C28   A    
N1    Zn1   S    
C36   H2    S    
C2    H20   S    
O13   Zn1   S    
C11   C13   A    
C3    C36   A    
C33   C35   A    
C18   C20   A    
C5    S1    S    
C21   H1    S    
C16   C18   A    
C21   C24   A    
C2    C23   A    
O6    S2    S    
C31   C36   A    
O4    S2    D    
