data_mof_unit_32841.cif
_audit_creation_date              2012-12-10T20:52:43-0500
_audit_creation_method            fapswitch 2.2
_symmetry_space_group_name_H-M    P1
_symmetry_Int_Tables_number       1
_space_group_crystal_system       triclinic
_cell_length_a                    8.713713
_cell_length_b                    15.890284
_cell_length_c                    15.069124
_cell_angle_alpha                 92.020394
_cell_angle_beta                  99.984592
_cell_angle_gamma                 92.536757
_cell_volume                      2050.95135185

loop_
_atom_site_label
_atom_site_type_symbol
_atom_type_description
_atom_site_fract_x
_atom_site_fract_y
_atom_site_fract_z
_atom_type_partial_charge
C1    C     C_R   0.498780 0.338767 0.497945 0.898230
C2    C     C_R   0.501220 0.661234 0.502054 0.898198
C3    C     C_R   0.504675 0.497206 0.905434 -0.055746
C4    C     C_R   0.495315 0.502784 0.094567 -0.055743
C5    C     C_R   0.603159 0.556084 0.964934 -0.036061
C6    C     C_R   0.396829 0.443906 0.035068 -0.035986
C7    C     C_1   0.503352 0.498129 0.807210 0.069857
C8    C     C_1   0.496643 0.501868 0.192790 0.069806
C9    C     C_R   0.200603 0.500119 0.476387 0.909926
C10   C     C_R   0.799397 0.499886 0.523613 0.909962
C11   C     C_2   0.036234 0.489222 0.464698 -0.259315
C12   C     C_2   0.963767 0.510791 0.535304 -0.259356
C13   C     C_R   0.561509 0.965427 0.583530 -0.054126
C14   C     C_R   0.438623 0.034582 0.416451 -0.054152
C15   C     C_R   0.488975 0.913404 0.509104 0.021978
C16   C     C_R   0.511174 0.086604 0.490871 0.021980
C17   C     C_R   0.424587 0.946944 0.426344 -0.054849
C18   C     C_R   0.575582 0.053063 0.573629 -0.054825
C19   C     C_1   0.495805 0.824299 0.512176 -0.044811
C20   C     C_1   0.504288 0.175706 0.487812 -0.044802
C21   C     C_1   0.500634 0.250406 0.492208 -0.188210
C22   C     C_1   0.499411 0.749596 0.507789 -0.188223
C23   C     C_R   0.405405 0.438854 0.940955 0.047178
C24   C     C_R   0.594599 0.561128 0.059048 0.047179
N1    N     N_1   0.499960 0.500020 0.270540 -0.085241
N2    N     N_1   0.500040 0.499980 0.729460 -0.085232
O1    O     O_R   0.500000 0.378020 0.573650 -0.608779
O2    O     O_R   0.500000 0.621980 0.426350 -0.608765
O3    O     O_R   0.500070 0.378020 0.426320 -0.610599
O4    O     O_R   0.499930 0.621980 0.573680 -0.610614
O5    O     O_R   0.271720 0.500000 0.556430 -0.602599
O6    O     O_R   0.728280 0.500000 0.443570 -0.602591
O7    O     O_R   0.271790 0.500000 0.409110 -0.618712
O8    O     O_R   0.728210 0.500000 0.590890 -0.618724
Zn1   Zn    Zn3+2 0.499950 0.500000 0.598370 0.977509
Zn2   Zn    Zn3+2 0.500050 0.500000 0.401630 0.977518
C25   C     C_R   0.959325 0.441094 0.380788 0.169754
C26   C     C_R   0.942309 0.479828 0.297592 -0.090226
C27   C     C_R   0.856048 0.438349 0.220537 -0.129638
C28   C     C_R   0.785442 0.358446 0.226068 -0.129059
C29   C     C_R   0.805214 0.318581 0.308128 -0.128504
C30   C     C_R   0.892849 0.359416 0.385323 -0.119100
H1    H     H_    0.992233 0.542845 0.292994 0.114084
H2    H     H_    0.842908 0.468402 0.156577 0.127556
H3    H     H_    0.718275 0.326678 0.166181 0.104201
H4    H     H_    0.751739 0.256380 0.312037 0.119895
H5    H     H_    0.904761 0.328815 0.449094 0.099415
C31   C     C_R   0.040683 0.558867 0.619247 0.169732
C32   C     C_R   0.107280 0.640529 0.614781 -0.118918
C33   C     C_R   0.194923 0.681296 0.692016 -0.128577
C34   C     C_R   0.214571 0.641382 0.774046 -0.129048
C35   C     C_R   0.143838 0.561499 0.779508 -0.129620
C36   C     C_R   0.057582 0.520086 0.702414 -0.090305
H6    H     H_    0.095466 0.671166 0.551034 0.099390
H7    H     H_    0.248505 0.743481 0.688164 0.119911
H8    H     H_    0.281739 0.673096 0.833964 0.104212
H9    H     H_    0.156876 0.531411 0.843444 0.127537
H10   H     H_    0.007568 0.457080 0.706957 0.114125
C37   C     C_R   0.660584 0.110206 0.648878 0.138376
C38   C     C_R   0.797211 0.156130 0.637723 -0.159715
C39   C     C_R   0.880306 0.207912 0.708459 -0.142841
C40   C     C_R   0.829537 0.213038 0.791384 -0.123183
C41   C     C_R   0.694626 0.167172 0.803259 -0.130803
C42   C     C_R   0.608305 0.117469 0.731822 -0.110450
H11   H     H_    0.839602 0.151408 0.574363 0.120599
H12   H     H_    0.985014 0.243325 0.699297 0.129506
H13   H     H_    0.895091 0.252194 0.846567 0.121379
H14   H     H_    0.657597 0.169620 0.868108 0.122842
H15   H     H_    0.502843 0.083234 0.741684 0.129916
C43   C     C_R   0.339584 0.889809 0.351089 0.138421
C44   C     C_R   0.202935 0.843900 0.362228 -0.159766
C45   C     C_R   0.119803 0.792159 0.291468 -0.142711
C46   C     C_R   0.170560 0.787057 0.208539 -0.123186
C47   C     C_R   0.305499 0.832905 0.196682 -0.130911
C48   C     C_R   0.391853 0.882568 0.268141 -0.110274
H16   H     H_    0.160555 0.848610 0.425592 0.120594
H17   H     H_    0.015071 0.756761 0.300616 0.129491
H18   H     H_    0.104976 0.747934 0.153338 0.121377
H19   H     H_    0.342521 0.830476 0.131831 0.122798
H20   H     H_    0.497331 0.916795 0.258291 0.129841
C49   C     C_R   0.612184 0.930112 0.673437 0.139622
C50   C     C_R   0.768758 0.940000 0.716794 -0.147853
C51   C     C_R   0.809022 0.925240 0.808661 -0.153808
C52   C     C_R   0.694117 0.898663 0.857270 -0.113530
C53   C     C_R   0.539701 0.884139 0.813404 -0.171059
C54   C     C_R   0.498640 0.899897 0.721845 -0.173013
H21   H     H_    0.857772 0.963544 0.680672 0.127266
H22   H     H_    0.928988 0.935159 0.842373 0.127185
H23   H     H_    0.725383 0.887407 0.928409 0.134878
H24   H     H_    0.451274 0.862314 0.850776 0.121793
H25   H     H_    0.377221 0.892872 0.689874 0.119589
C55   C     C_R   0.387786 0.069899 0.326563 0.139655
C56   C     C_R   0.501206 0.100074 0.278049 -0.173089
C57   C     C_R   0.459953 0.115801 0.186492 -0.171006
C58   C     C_R   0.305466 0.101293 0.142736 -0.113487
C59   C     C_R   0.190689 0.074763 0.191455 -0.153792
C60   C     C_R   0.231148 0.060027 0.283317 -0.147791
H26   H     H_    0.622671 0.107080 0.309932 0.119560
H27   H     H_    0.548281 0.137590 0.149034 0.121809
H28   H     H_    0.274048 0.112527 0.071600 0.134861
H29   H     H_    0.070670 0.064858 0.157830 0.127148
H30   H     H_    0.142229 0.036509 0.319522 0.127229
C61   C     C_R   0.279160 0.390006 0.071109 0.136200
C62   C     C_R   0.325534 0.335582 0.141316 -0.170004
C63   C     C_R   0.214418 0.286828 0.175783 -0.099334
C64   C     C_R   0.057790 0.285874 0.135382 -0.098746
C65   C     C_R   0.009837 0.340041 0.066041 -0.156428
C66   C     C_R   0.119126 0.394493 0.036759 -0.171479
H31   H     H_    0.447273 0.331328 0.170069 0.128630
H32   H     H_    0.250454 0.248433 0.232759 0.161061
H33   H     H_    0.973421 0.244222 0.159038 0.120328
H34   H     H_    0.887626 0.341143 0.036295 0.119717
H35   H     H_    0.079435 0.438585 0.985576 0.113134
C67   C     C_R   0.720838 0.609977 0.928898 0.136287
C68   C     C_R   0.674481 0.664432 0.858719 -0.169906
C69   C     C_R   0.785619 0.713177 0.824258 -0.099369
C70   C     C_R   0.942253 0.714088 0.864641 -0.098748
C71   C     C_R   0.990183 0.659890 0.933955 -0.156408
C72   C     C_R   0.880870 0.605446 0.963224 -0.171530
H36   H     H_    0.552741 0.668714 0.829980 0.128573
H37   H     H_    0.749600 0.751594 0.767298 0.161054
H38   H     H_    0.026644 0.755727 0.840987 0.120318
H39   H     H_    0.112396 0.658753 0.963688 0.119732
H40   H     H_    0.920538 0.561330 0.014385 0.113162
C73   C     C_3   0.317716 0.366938 0.879642 -0.409247
C74   C     C_3   0.391945 0.282765 0.901535 -0.325901
C75   C     C_3   0.302864 0.210087 0.842880 -0.908951
H41   H     H_    0.180450 0.204503 0.854334 0.265042
H42   H     H_    0.303913 0.220272 0.770425 0.266924
H43   H     H_    0.358527 0.150091 0.860992 0.241421
H44   H     H_    0.514303 0.287284 0.889886 0.217253
H45   H     H_    0.393776 0.268706 0.973291 0.223279
H46   H     H_    0.192634 0.362489 0.884504 0.191860
H47   H     H_    0.317207 0.377192 0.807238 0.204432
C76   C     C_3   0.682336 0.633026 0.120366 -0.409286
C77   C     C_3   0.608056 0.717198 0.098547 -0.325855
C78   C     C_3   0.697439 0.789897 0.157026 -0.908843
H48   H     H_    0.696911 0.779734 0.229538 0.266852
H49   H     H_    0.819684 0.795484 0.145277 0.265001
H50   H     H_    0.641657 0.849884 0.139020 0.241404
H51   H     H_    0.605813 0.731205 0.026741 0.223205
H52   H     H_    0.485837 0.712708 0.110439 0.217320
H53   H     H_    0.682954 0.622741 0.192775 0.204330
H54   H     H_    0.807393 0.637491 0.115449 0.191971

loop_
_geom_bond_atom_site_label_1
_geom_bond_atom_site_label_2
_ccdc_geom_bond_type
C73   H47   S    
C63   H32   S    
C29   C30   A    
C1    C21   S    
C56   C57   A    
C5    C67   S    
C65   H34   S    
C3    C23   A    
C58   C59   A    
C4    C8    S    
C6    C61   S    
C67   C68   A    
C76   C77   S    
C72   H40   S    
C15   C19   S    
C78   H49   S    
O3    Zn2   S    
C37   C42   A    
C74   C75   S    
C7    N2    T    
C13   C18   A    
O6    Zn2   S    
C25   C26   A    
O8    Zn1   S    
C3    C7    S    
C54   H25   S    
C76   H54   S    
C62   H31   S    
C4    C24   A    
C64   C65   A    
C50   H21   S    
C13   C49   S    
O7    Zn2   S    
C69   C70   A    
C34   H8    S    
C46   C47   A    
C25   C30   A    
C11   C25   S    
C71   C72   A    
C77   H52   S    
C45   H17   S    
C39   H12   S    
C2    C22   S    
C60   H30   S    
C29   H4    S    
C61   C66   A    
C48   H20   S    
C49   C54   A    
C12   C31   S    
C23   C73   S    
C39   C40   A    
C76   H53   S    
C51   H22   S    
C37   C38   A    
C32   H6    S    
C59   H29   S    
C9    O7    A    
C8    N1    T    
C14   C17   A    
C31   C36   A    
C62   C63   A    
C55   C60   A    
C49   C50   A    
C64   H33   S    
C28   H3    S    
C78   H50   S    
C47   C48   A    
C34   C35   A    
C19   C22   T    
C52   C53   A    
C4    C6    A    
C69   H37   S    
C27   C28   A    
C58   H28   S    
C77   C78   S    
O1    Zn1   S    
C53   C54   A    
C46   H18   S    
C38   C39   A    
C66   H35   S    
C70   H38   S    
C75   H42   S    
C77   H51   S    
C18   C37   S    
C51   C52   A    
C74   H45   S    
C16   C20   S    
C59   C60   A    
C40   C41   A    
C1    O3    A    
C33   C34   A    
C10   O8    A    
C42   H15   S    
C71   H39   S    
C9    C11   S    
C14   C55   S    
C43   C44   A    
C10   C12   S    
C40   H13   S    
C24   C76   S    
C28   C29   A    
C38   H11   S    
C32   C33   A    
C47   H19   S    
C13   C15   A    
C73   C74   S    
C14   C16   A    
C53   H24   S    
C52   H23   S    
C65   C66   A    
C75   H41   S    
C44   H16   S    
C61   C62   A    
C35   C36   A    
C63   C64   A    
C73   H46   S    
C15   C17   A    
C41   H14   S    
C31   C32   A    
C67   C72   A    
C45   C46   A    
C3    C5    A    
C36   H10   S    
C68   H36   S    
C27   H2    S    
O4    Zn1   S    
C78   H48   S    
C33   H7    S    
C2    O4    A    
C57   H27   S    
C75   H43   S    
C26   H1    S    
C70   C71   A    
C26   C27   A    
C5    C24   A    
C74   H44   S    
C6    C23   A    
C55   C56   A    
O5    Zn1   S    
C30   H5    S    
C57   C58   A    
C35   H9    S    
C9    O5    A    
N1    Zn2   S    
C41   C42   A    
C10   O6    A    
N2    Zn1   S    
C17   C43   S    
C44   C45   A    
C20   C21   T    
O2    Zn2   S    
C16   C18   A    
C50   C51   A    
C43   C48   A    
C1    O1    A    
C2    O2    A    
C56   H26   S    
C68   C69   A    
C11   C12   D    
