data_mof_unit_26321.cif
_audit_creation_date              2012-12-10T16:54:03-0500
_audit_creation_method            fapswitch 2.2
_symmetry_space_group_name_H-M    P1
_symmetry_Int_Tables_number       1
_space_group_crystal_system       triclinic
_cell_length_a                    9.672408
_cell_length_b                    10.930069
_cell_length_c                    13.483185
_cell_angle_alpha                 90.149606
_cell_angle_beta                  73.68494
_cell_angle_gamma                 91.189797
_cell_volume                      1367.7403334

loop_
_atom_site_label
_atom_site_type_symbol
_atom_type_description
_atom_site_fract_x
_atom_site_fract_y
_atom_site_fract_z
_atom_type_partial_charge
C1    C     C_R   0.502095 0.734685 0.498910 0.884620
C2    C     C_R   0.441122 0.510819 0.975840 -0.044874
C3    C     C_R   0.489099 0.482912 0.869176 -0.051370
C4    C     C_R   0.547339 0.524956 0.029682 0.088405
C5    C     C_R   0.692183 0.555595 0.974374 0.046752
C6    C     C_R   0.733470 0.543742 0.865802 -0.092897
C7    C     C_R   0.639979 0.475624 0.822706 -0.045918
C8    C     C_R   0.516111 0.498135 0.134979 -0.094580
C9    C     C_R   0.754467 0.565966 0.136626 -0.161867
C10   C     C_R   0.385433 0.463295 0.812925 -0.112709
C11   C     C_2   0.611135 0.068504 0.482061 -0.337961
C12   C     C_R   0.424766 0.485587 0.699171 0.868721
C13   C     C_2   0.506599 0.136998 0.464275 0.255545
C14   C     C_2   0.620845 0.937426 0.461198 0.030225
C15   C     C_2   0.504178 0.866663 0.505270 -0.274686
C16   C     C_2   0.097739 0.581860 0.454013 0.037964
C17   C     C_2   0.939858 0.586507 0.460259 0.008093
C18   C     C_R   0.501329 0.265732 0.492247 0.804967
C19   C     C_R   0.576024 0.503361 0.300647 0.850847
C20   C     C_R   0.791635 0.584475 0.030386 -0.093009
C21   C     C_R   0.617982 0.519670 0.188750 -0.064995
C22   C     C_R   0.241469 0.435178 0.868948 -0.066846
C23   C     C_R   0.194270 0.470350 0.972553 -0.236816
C24   C     C_R   0.290158 0.519679 0.023134 0.373746
Cu1   Cu    Cu3+1 0.361370 0.499980 0.499980 1.071999
Cu2   Cu    Cu3+1 0.638630 0.500020 0.500020 1.013854
H1    H     H_    0.833297 0.585661 0.177919 0.192977
H2    H     H_    0.406594 0.907811 0.552796 0.184576
H3    H     H_    0.168557 0.651402 0.407796 0.213776
H4    H     H_    0.084612 0.441000 0.550834 0.231480
H5    H     H_    0.903966 0.665546 0.426928 0.177375
H6    H     H_    0.883112 0.421771 0.523946 0.230546
H7    H     H_    0.900313 0.615469 0.994419 0.212895
H8    H     H_    0.413282 0.456836 0.175177 0.208318
H9    H     H_    0.080947 0.462506 0.013973 0.182925
H10   H     H_    0.691727 0.109098 0.515013 0.178516
N1    N     N_2   0.152660 0.501340 0.501130 -0.283704
N2    N     N_2   0.846520 0.501370 0.501160 -0.268777
O1    O     O_R   0.382960 0.678040 0.499980 -0.571771
O2    O     O_R   0.617100 0.678080 0.500020 -0.570643
O3    O     O_R   0.325800 0.499940 0.650950 -0.555013
O4    O     O_R   0.559930 0.499980 0.650990 -0.572488
O5    O     O_R   0.382900 0.321920 0.499980 -0.505719
O6    O     O_R   0.617040 0.321960 0.500020 -0.610145
O7    O     O_R   0.440070 0.500020 0.349010 -0.539352
O8    O     O_R   0.674200 0.500060 0.349050 -0.586030
S1    S     S_3+6 0.386161 0.084066 0.393512 0.038998
O9    O     O_2   0.452275 0.984501 0.319180 -0.236857
O10   O     O_2   0.249272 0.036442 0.467967 -0.275110
O11   O     O_3   0.346600 0.201164 0.326110 -0.519477
H11   H     H_    0.272401 0.167774 0.295031 0.390760
C25   C     C_2   0.756193 0.891981 0.389567 0.914365
O12   O     O_2   0.871388 0.941917 0.387282 -0.558092
O13   O     O_R   0.751576 0.797171 0.320682 -0.746552
H12   H     H_    0.850570 0.777260 0.274265 0.353679
C26   C     C_2   0.866711 0.599274 0.794582 0.924163
O14   O     O_2   0.978946 0.610038 0.818616 -0.600671
O15   O     O_R   0.861765 0.640657 0.697748 -0.746093
H13   H     H_    0.955888 0.680949 0.657088 0.334002
C27   C     C_2   0.141776 0.363319 0.823512 0.948453
O16   O     O_2   0.012345 0.360092 0.866671 -0.571558
O17   O     O_R   0.196495 0.292061 0.735411 -0.741559
H14   H     H_    0.118188 0.246256 0.712977 0.358722
S2    S     S_3+6 0.212091 0.604986 0.136522 -0.017459
O18   O     O_2   0.319750 0.690501 0.163378 -0.221005
O19   O     O_2   0.092091 0.679976 0.119772 -0.313550
O20   O     O_3   0.143729 0.507010 0.234715 -0.561997
H15   H     H_    0.058964 0.467789 0.219190 0.343439
C28   C     C_2   0.699811 0.368699 0.755784 0.931855
O21   O     O_2   0.829729 0.360112 0.717315 -0.612654
O22   O     O_R   0.607443 0.274539 0.740937 -0.754319
H16   H     H_    0.660699 0.206601 0.695558 0.331566

loop_
_geom_bond_atom_site_label_1
_geom_bond_atom_site_label_2
_ccdc_geom_bond_type
C7    C28   S    
C2    C4    A    
C23   C24   A    
C19   O7    A    
C6    C7    A    
C1    C15   S    
H6    N2    S    
O13   H12   S    
C9    C20   A    
C3    C7    A    
S1    O9    D    
C16   N1    D    
C4    C8    A    
C9    C21   A    
S2    O18   D    
Cu1   O5    S    
C2    C3    A    
O15   H13   S    
C19   O8    A    
Cu2   O6    S    
O22   H16   S    
S1    O10   D    
C3    C10   A    
C8    H8    S    
C18   O5    A    
Cu1   O1    S    
C2    C24   A    
C11   C13   D    
Cu2   O2    S    
C15   H2    S    
O17   H14   S    
C10   C12   S    
C13   C18   S    
C5    C6    A    
C20   H7    S    
C27   O17   S    
C11   H10   S    
C19   C21   S    
C26   O15   S    
C8    C21   A    
S1    O11   S    
C23   H9    S    
C17   N2    D    
C6    C26   S    
Cu2   O4    S    
C22   C27   S    
C28   O21   D    
C17   H5    S    
C11   C14   S    
C16   H3    S    
C28   O22   S    
C26   O14   D    
C1    O1    A    
O20   H15   S    
S2    O20   S    
Cu1   O7    S    
C18   O6    A    
C4    C5    A    
C16   C17   S    
C25   O12   D    
C9    H1    S    
C12   O3    A    
C24   S2    S    
Cu1   O3    S    
C5    C20   A    
Cu2   O8    S    
C22   C23   A    
Cu2   N2    S    
C12   O4    A    
S2    O19   D    
C1    O2    A    
O11   H11   S    
Cu1   Cu2   S    
C14   C15   D    
C13   S1    S    
C10   C22   A    
C14   C25   S    
H4    N1    S    
C25   O13   S    
C27   O16   D    
Cu1   N1    S    
