data_mof_unit_39188.cif
_audit_creation_date              2012-12-11T17:45:31-0500
_audit_creation_method            fapswitch 2.2
_symmetry_space_group_name_H-M    P1
_symmetry_Int_Tables_number       1
_space_group_crystal_system       triclinic
_cell_length_a                    15.046447
_cell_length_b                    14.913472
_cell_length_c                    15.050979
_cell_angle_alpha                 109.970777
_cell_angle_beta                  109.058233
_cell_angle_gamma                 108.971186
_cell_volume                      2612.89217071

loop_
_atom_site_label
_atom_site_type_symbol
_atom_type_description
_atom_site_fract_x
_atom_site_fract_y
_atom_site_fract_z
_atom_type_partial_charge
C1    C     C_R   0.977930 0.257967 0.069860 -0.116027
C2    C     C_R   0.321350 0.784596 0.324620 0.022199
C3    C     C_R   0.302156 0.498733 0.936935 -0.011392
C4    C     C_R   0.932380 0.501426 0.298923 -0.049125
C5    C     C_R   0.687338 0.407811 0.933855 -0.139665
C6    C     C_R   0.023087 0.592800 0.781234 -0.108221
C7    C     C_R   0.790260 0.197772 0.698603 -0.124724
C8    C     C_R   0.991360 0.798078 0.087540 -0.124944
C9    C     C_R   0.081828 0.800747 0.996279 -0.151961
C10   C     C_R   0.703087 0.197652 0.793475 -0.154587
C11   C     C_R   0.776471 0.591585 0.024780 -0.092063
C12   C     C_R   0.313751 0.756857 0.223520 -0.140980
C13   C     C_R   0.941483 0.409648 0.685838 -0.143132
C14   C     C_R   0.674936 0.499209 0.952007 -0.036083
C15   C     C_R   0.958795 0.503581 0.678364 0.048942
C16   C     C_R   0.699557 0.136872 0.699404 0.055915
C17   C     C_R   0.041567 0.858637 0.050273 0.048197
C18   C     C_R   0.623108 0.239197 0.089095 -0.111795
C19   C     C_R   0.689901 0.331480 0.193045 -0.135951
C20   C     C_R   0.746195 0.322164 0.281527 0.119534
C21   C     C_R   0.725931 0.217254 0.265694 -0.169025
C22   C     C_R   0.655187 0.124656 0.162336 -0.106522
C23   C     C_R   0.209181 0.408048 0.905213 -0.138124
C24   C     C_R   0.605583 0.136035 0.073786 -0.099699
C25   C     C_R   0.847845 0.426629 0.483398 -0.253602
C26   C     C_R   0.940507 0.511267 0.581812 0.074411
C27   C     C_R   0.020017 0.597334 0.585060 -0.012053
C28   C     C_R   0.004813 0.595833 0.490167 -0.176861
C29   C     C_R   0.918107 0.507278 0.390758 0.106590
C30   C     C_R   0.836374 0.421519 0.385778 0.024888
C31   C     C_R   0.156423 0.793687 0.724335 -0.168288
C32   C     C_R   0.257116 0.873748 0.815684 -0.137772
C33   C     C_R   0.329432 0.843309 0.864054 -0.094791
C34   C     C_R   0.988388 0.591413 0.293879 0.406919
C35   C     C_R   0.302684 0.733286 0.819291 -0.119733
C36   C     C_R   0.202780 0.652883 0.727301 -0.127713
C37   C     C_R   0.127684 0.682371 0.681015 0.108637
C38   C     C_R   0.185678 0.008544 0.388719 -0.116952
C39   C     C_R   0.272726 0.989306 0.400925 -0.117293
C40   C     C_R   0.318641 0.968607 0.484005 0.101594
C41   C     C_R   0.277604 0.969512 0.555720 -0.176173
C42   C     C_R   0.190914 0.989228 0.543477 -0.027712
C43   C     C_R   0.144865 0.008555 0.459981 -0.034987
C44   C     C_R   0.508639 0.034852 0.593587 -0.243479
C45   C     C_R   0.299821 0.590482 0.996452 -0.141822
C46   C     C_R   0.605838 0.035708 0.611675 0.062922
C47   C     C_R   0.609874 0.948675 0.540301 0.021014
C48   C     C_R   0.513492 0.864087 0.446525 -0.248394
C49   C     C_R   0.417032 0.867142 0.426365 0.077690
C50   C     C_R   0.414285 0.953127 0.501276 0.021200
C51   C     C_R   0.740808 0.918574 0.481068 -0.190864
C52   C     C_R   0.837107 0.915219 0.502654 -0.093541
C53   C     C_R   0.904978 0.936830 0.605392 -0.081192
C54   C     C_R   0.876466 0.961259 0.686662 -0.128543
C55   C     C_R   0.780058 0.964168 0.665350 -0.135300
C56   C     C_R   0.909087 0.409898 0.210718 -0.229730
C57   C     C_R   0.711622 0.943824 0.562525 0.124173
C58   C     C_3   0.478091 0.379309 0.876894 -0.403675
C59   C     C_3   0.374620 0.379864 0.867468 -0.408607
C60   C     C_3   0.591092 0.558803 0.056119 -0.382022
C61   C     C_3   0.540917 0.556878 0.877937 -0.395960
C62   C     C_3   0.573258 0.498421 0.939589 0.394304
C63   C     C_3   0.398453 0.498705 0.932842 0.405454
C64   C     C_3   0.487010 0.552610 0.051889 -0.404695
C65   C     C_3   0.441585 0.564863 0.881659 -0.410513
C66   C     C_R   0.376381 0.220847 0.005026 -0.119343
C67   C     C_R   0.219142 0.746725 0.312236 -0.098093
C68   C     C_R   0.279336 0.161581 0.998545 -0.189853
C69   C     C_R   0.257347 0.206980 0.081534 0.126186
C70   C     C_R   0.331469 0.313891 0.168895 -0.129733
C71   C     C_R   0.428613 0.373013 0.175094 -0.129709
C72   C     C_R   0.451042 0.326057 0.093609 -0.071564
C73   C     C_R   0.150698 0.037423 0.074306 -0.237697
C74   C     C_R   0.066221 0.971681 0.082203 0.057735
C75   C     C_R   0.009572 0.017717 0.122998 0.005617
C76   C     C_R   0.036476 0.124526 0.148720 -0.226755
C77   C     C_R   0.096042 0.174668 0.108509 0.046450
C78   C     C_R   0.070613 0.255626 0.980143 -0.134061
C79   C     C_R   0.164609 0.138187 0.084778 0.024455
C80   C     C_R   0.810593 0.895567 0.020161 -0.128686
C81   C     C_R   0.711839 0.854566 0.018307 -0.146783
C82   C     C_R   0.709326 0.868880 0.114012 -0.125485
C83   C     C_R   0.805741 0.927927 0.212531 -0.091919
C84   C     C_R   0.904590 0.973181 0.215391 -0.167658
C85   C     C_R   0.907791 0.955303 0.118867 0.104435
C86   C     C_R   0.056973 0.234377 0.060168 0.051680
H1    H     H_    0.944876 0.250240 0.121635 0.097983
H2    H     H_    0.048657 0.677346 0.804472 0.117210
H3    H     H_    0.816446 0.170603 0.640583 0.102386
H4    H     H_    0.971471 0.825944 0.150627 0.131188
H5    H     H_    0.139073 0.831064 0.971094 0.103236
H6    H     H_    0.650743 0.169691 0.824501 0.094153
H7    H     H_    0.795131 0.676153 0.059735 0.113810
H8    H     H_    0.896193 0.325661 0.620350 0.097818
H9    H     H_    0.555076 0.065447 0.992944 0.095182
H10   H     H_    0.586910 0.247998 0.019858 0.090017
H11   H     H_    0.704823 0.411339 0.203076 0.117645
H12   H     H_    0.378815 0.777114 0.205098 0.099121
H13   H     H_    0.768821 0.207450 0.331945 0.109547
H14   H     H_    0.641811 0.044582 0.150261 0.113338
H15   H     H_    0.787378 0.361662 0.482462 0.131864
H16   H     H_    0.070739 0.658341 0.494297 0.159024
H17   H     H_    0.100367 0.818042 0.688190 0.124518
H18   H     H_    0.279081 0.959245 0.849176 0.106075
H19   H     H_    0.359352 0.710519 0.856201 0.095776
H20   H     H_    0.182881 0.567720 0.693615 0.109293
H21   H     H_    0.077811 0.023813 0.451046 0.085004
H22   H     H_    0.178706 0.323293 0.848317 0.089147
H23   H     H_    0.150560 0.024242 0.324515 0.110149
H24   H     H_    0.312855 0.954954 0.620989 0.116674
H25   H     H_    0.159415 0.989483 0.598702 0.092600
H26   H     H_    0.506856 0.103749 0.647677 0.129079
H27   H     H_    0.513189 0.796007 0.388883 0.130458
H28   H     H_    0.689825 0.902859 0.401343 0.105759
H29   H     H_    0.859346 0.896150 0.439813 0.130228
H30   H     H_    0.979544 0.934421 0.621952 0.104606
H31   H     H_    0.928991 0.977782 0.766188 0.114371
H32   H     H_    0.758819 0.982258 0.729045 0.112843
H33   H     H_    0.495258 0.334785 0.920278 0.144831
H34   H     H_    0.466048 0.333820 0.794128 0.154342
H35   H     H_    0.314904 0.342659 0.780509 0.152693
H36   H     H_    0.339926 0.328022 0.898390 0.167193
H37   H     H_    0.460059 0.506031 0.090206 0.173081
H38   H     H_    0.609507 0.639360 0.914838 0.158939
H39   H     H_    0.520842 0.510544 0.792086 0.159904
H40   H     H_    0.377326 0.533344 0.798388 0.152797
H41   H     H_    0.355353 0.674813 0.025964 0.083869
H42   H     H_    0.467178 0.652356 0.932041 0.143966
H43   H     H_    0.652657 0.646809 0.098728 0.167832
H44   H     H_    0.503618 0.637252 0.101180 0.144462
H45   H     H_    0.525967 0.371872 0.098661 0.096036
H46   H     H_    0.393491 0.185006 0.941392 0.095079
H47   H     H_    0.222071 0.079652 0.930211 0.103503
H48   H     H_    0.316072 0.349517 0.234174 0.110544
H49   H     H_    0.486914 0.454753 0.243351 0.113865
H50   H     H_    0.204443 0.009859 0.057179 0.129443
H51   H     H_    0.993293 0.157951 0.181338 0.127168
H52   H     H_    0.860120 0.325385 0.185121 0.147704
H53   H     H_    0.811353 0.885516 0.945692 0.112234
H54   H     H_    0.637125 0.812515 0.942667 0.111017
H55   H     H_    0.803739 0.941424 0.287029 0.099194
H56   H     H_    0.978310 0.024269 0.292690 0.102488
H57   H     H_    0.196911 0.754006 0.374625 0.147669
H58   H     H_    0.124079 0.244161 0.949706 0.111448
H59   H     H_    0.626229 0.322563 0.884141 0.092261
N1    N     N_R   0.947080 0.293830 0.002870 -0.041348
N2    N     N_R   0.054040 0.556820 0.847890 -0.042998
N3    N     N_R   0.848290 0.293830 0.791110 -0.040370
N4    N     N_R   0.995680 0.706170 0.053910 -0.038125
N5    N     N_R   0.052920 0.706170 0.997130 -0.043943
N6    N     N_R   0.791050 0.293830 0.847890 -0.036747
N7    N     N_R   0.846330 0.556820 0.053910 -0.025074
N8    N     N_R   0.997640 0.443180 0.791110 -0.041624
N9    N     N_R   0.208950 0.706170 0.152110 -0.044346
N10   N     N_R   0.153670 0.443180 0.946090 -0.035786
N11   N     N_R   0.002360 0.556820 0.208890 -0.076980
N12   N     N_R   0.210070 0.556820 0.002870 -0.033187
N13   N     N_R   0.945960 0.443180 0.152110 -0.059952
N14   N     N_R   0.151710 0.706170 0.208890 -0.034637
N15   N     N_R   0.004320 0.293830 0.946090 -0.043095
N16   N     N_R   0.789930 0.443180 0.997130 -0.037150
Ni1   Ni    Ni4+2 0.869690 0.369690 0.000000 0.209168
Ni2   Ni    Ni4+2 0.130310 0.630310 0.000000 0.212671
Ni3   Ni    Ni4+2 0.000970 0.369690 0.869780 0.208915
Ni4   Ni    Ni4+2 0.999030 0.630310 0.130220 0.274580
H60   H     H_    0.406280 0.904716 0.936109 0.097296
H61   H     H_    0.304456 0.990690 0.346049 0.115704
Cl1   Cl    Cl    0.991220 0.717753 0.349890 -0.754684
H62   H     H_    0.622579 0.524553 0.105829 0.156384
H63   H     H_    0.632705 0.836015 0.112118 0.094149

loop_
_geom_bond_atom_site_label_1
_geom_bond_atom_site_label_2
_ccdc_geom_bond_type
C59   H35   S    
C81   H54   S    
C66   C68   A    
C63   C65   S    
C58   C62   S    
C23   N10   A    
N10   N12   A    
C18   H10   S    
C41   C42   A    
C3    C23   A    
C33   H60   S    
N3    N6    A    
C42   H25   S    
C2    C12   A    
C9    H5    S    
C82   H63   S    
N16   Ni1   S    
C19   H11   S    
C20   C30   S    
C76   H51   S    
N5    Ni2   S    
N1    Ni1   S    
C26   C27   A    
C80   C85   A    
C61   H38   S    
C18   C24   A    
C60   H62   S    
N15   Ni3   S    
C28   C29   A    
C45   H41   S    
C71   H49   S    
C38   C39   A    
C21   H13   S    
C11   C14   A    
N1    N15   A    
C7    H3    S    
C1    C86   A    
C6    H2    S    
C60   C62   S    
C18   C19   A    
C73   C74   A    
C1    H1    S    
C56   N13   A    
C6    C15   A    
C54   C55   A    
C75   C85   S    
C66   C72   A    
C35   C36   A    
C68   C69   A    
C47   C48   A    
C32   H18   S    
C70   C71   A    
C51   C57   A    
N12   Ni2   S    
C12   H12   S    
N7    N16   A    
C53   H30   S    
C78   C86   A    
C59   H36   S    
C10   H6    S    
C21   C22   A    
C4    C56   A    
C1    N1    A    
C61   C62   S    
C25   H15   S    
C34   Cl1   S    
C44   C46   A    
C81   C82   A    
C66   H46   S    
C77   C79   A    
N7    Ni4   S    
C4    C34   A    
C9    N5    A    
C51   H28   S    
C5    H59   S    
C74   C75   A    
N8    Ni3   S    
C36   H20   S    
C51   C52   A    
N3    Ni3   S    
C65   H42   S    
N9    Ni2   S    
N4    Ni4   S    
C76   C77   A    
C2    C67   A    
C24   H9    S    
C16   C46   S    
C39   C40   A    
C83   H55   S    
C15   C26   S    
C58   C59   S    
C53   C54   A    
C3    C45   A    
C31   C37   A    
C61   H39   S    
C31   H17   S    
C75   C76   A    
C29   C30   A    
C35   H19   S    
C2    C49   S    
C78   H58   S    
C10   N6    A    
C47   C57   S    
C56   H52   S    
C83   C84   A    
C73   H50   S    
C84   H56   S    
N6    Ni1   S    
C58   H34   S    
C73   C79   A    
C45   N12   A    
C43   H21   S    
C84   C85   A    
C38   H23   S    
C13   N8    A    
C5    C14   A    
N2    Ni2   S    
C28   H16   S    
C44   H26   S    
C9    C17   A    
C48   C49   A    
C64   H44   S    
C77   C86   S    
C49   C50   A    
C34   N11   A    
C41   H24   S    
C55   C57   A    
C17   C74   S    
C22   C24   A    
C69   C79   S    
C8    H4    S    
C42   C43   A    
C80   H53   S    
C52   C53   A    
C72   H45   S    
C7    N3    A    
C52   H29   S    
C44   C50   A    
C25   C30   A    
C46   C47   A    
C68   H47   S    
C31   C32   A    
C7    C16   A    
C4    C29   S    
C12   N9    A    
C80   C81   A    
C60   H43   S    
C67   N14   A    
C3    C63   S    
N10   Ni3   S    
C64   H37   S    
C59   C63   S    
C8    C17   A    
C13   H8    S    
C60   C64   S    
C32   C33   A    
C19   C20   A    
C13   C15   A    
C8    N4    A    
C25   C26   A    
C38   C43   A    
C10   C16   A    
N4    N5    A    
C65   H40   S    
C6    N2    A    
C67   H57   S    
C11   H7    S    
N11   Ni4   S    
C27   C37   S    
C40   C50   S    
C23   H22   S    
C78   N15   A    
N11   N13   A    
C58   H33   S    
C33   C35   A    
C39   H61   S    
C69   C70   A    
N2    N8    A    
N14   Ni4   S    
C22   H14   S    
N13   Ni1   S    
C63   C64   S    
C61   C65   S    
C11   N7    A    
N9    N14   A    
C71   C72   A    
C20   C21   A    
C36   C37   A    
C82   C83   A    
C54   H31   S    
C27   C28   A    
C70   H48   S    
C40   C41   A    
C5    N16   A    
C48   H27   S    
C55   H32   S    
C14   C62   S    
