data_mof_unit_54576.cif
_audit_creation_date              2013-03-05T16:10:14-0500
_audit_creation_method            fapswitch 2.2
_symmetry_space_group_name_H-M    P1
_symmetry_Int_Tables_number       1
_space_group_crystal_system       triclinic
_cell_length_a                    9.862837
_cell_length_b                    10.697767
_cell_length_c                    13.091064
_cell_angle_alpha                 90.239722
_cell_angle_beta                  70.891187
_cell_angle_gamma                 89.709493
_cell_volume                      1305.09233697

loop_
_atom_site_label
_atom_site_type_symbol
_atom_site_description
_atom_site_fract_x
_atom_site_fract_y
_atom_site_fract_z
_atom_type_partial_charge
O1    O     O_R   0.385370 0.683250 0.500010 -0.560817
O2    O     O_R   0.614700 0.683220 0.500010 -0.643940
C1    C     C_R   0.499763 0.740023 0.500179 0.885756
O3    O     O_R   0.328400 0.499990 0.653620 -0.568141
O4    O     O_R   0.557730 0.499960 0.653620 -0.624726
C2    C     C_R   0.421569 0.510500 0.703745 0.874832
Zn1   Zn    Zn3+2 0.346870 0.500020 0.500000 1.026296
Zn2   Zn    Zn3+2 0.653130 0.499980 0.500000 0.954088
O5    O     O_R   0.385300 0.316780 0.499990 -0.630190
O6    O     O_R   0.614630 0.316750 0.499990 -0.624146
O7    O     O_R   0.442270 0.500040 0.346380 -0.584172
O8    O     O_R   0.671600 0.500010 0.346380 -0.614123
C3    C     C_R   0.500315 0.259969 0.499720 0.873563
C4    C     C_R   0.577869 0.511554 0.296850 0.899173
C5    C     C_R   0.797474 0.583853 0.008355 -0.174387
H1    H     H_    0.849642 0.523695 0.147745 0.170824
H2    H     H_    0.821663 0.659856 0.806990 0.184573
H3    H     H_    0.908741 0.590630 0.957727 0.166113
C6    C     C_R   0.620469 0.548190 0.183715 -0.118640
C7    C     C_R   0.236061 0.493216 0.882916 -0.159210
C8    C     C_R   0.198361 0.487284 0.994591 -0.165388
C9    C     C_R   0.297595 0.519042 0.044977 -0.127314
C10   C     C_R   0.433516 0.567431 0.984918 0.103528
C11   C     C_R   0.469039 0.580322 0.872073 0.078697
C12   C     C_R   0.541854 0.588485 0.031765 0.027976
C13   C     C_R   0.686100 0.602164 0.965090 0.133160
C14   C     C_R   0.714441 0.634604 0.857361 -0.211624
C15   C     C_R   0.603403 0.633202 0.813728 -0.187144
C16   C     C_R   0.512971 0.588982 0.142789 0.178585
C17   C     C_R   0.764189 0.547594 0.116272 -0.235070
C18   C     C_R   0.373303 0.533227 0.820638 -0.099852
H4    H     H_    0.160877 0.459053 0.844910 0.167953
H5    H     H_    0.268989 0.498738 0.130118 0.173646
H6    H     H_    0.095056 0.450209 0.041702 0.141879
H7    H     H_    0.626247 0.668013 0.732668 0.166871
C19   C     C_R   0.600776 0.935591 0.534624 -0.177128
H8    H     H_    0.677975 0.886260 0.562754 0.165009
C20   C     C_R   0.601440 0.063712 0.534038 -0.174536
H9    H     H_    0.679066 0.112575 0.561712 0.165746
C21   C     C_R   0.500715 0.127488 0.499373 -0.034063
C22   C     C_R   0.399806 0.064301 0.464769 -0.179355
H10   H     H_    0.322528 0.113601 0.436722 0.157398
C23   C     C_R   0.399531 0.936194 0.464955 -0.088071
H11   H     H_    0.322580 0.887338 0.436612 0.210856
C24   C     C_R   0.499734 0.872440 0.500139 -0.030531
C25   C     C_R   0.949011 0.403973 0.453520 -0.082583
H12   H     H_    0.911508 0.327048 0.416259 0.144512
C26   C     C_R   0.092891 0.404280 0.453081 -0.124503
H13   H     H_    0.163923 0.327735 0.415335 0.148232
N1    N     N_R   0.142790 0.500030 0.500030 -0.120863
C27   C     C_R   0.049768 0.596678 0.546656 0.388757
C28   C     C_R   0.907146 0.596680 0.544732 -0.132759
H14   H     H_    0.835898 0.673677 0.580564 0.147587
N2    N     N_R   0.857180 0.499940 0.500010 -0.096662
N3    N     N_R   0.093715 0.698403 0.599427 0.200130
O9    O     O_R   0.131635 0.676896 0.683909 -0.406310
O10   O     O_R   0.060660 0.812274 0.581494 -0.431813
Br1   Br    Br    0.352318 0.690083 0.230719 -0.527679

loop_
_geom_bond_atom_site_label_1
_geom_bond_atom_site_label_2
_geom_bond_distance
_ccdc_geom_bond_type
C5    H3    1.083433 S    
C20   C21   1.396145 A    
C10   C11   1.409745 A    
O6    C3    1.284407 A    
O4    Zn2   1.921133 S    
C22   C23   1.370481 A    
C22   H10   1.083818 S    
Zn2   O8    1.958993 S    
C25   N2    1.367163 A    
N3    O9    1.299238 A    
C19   C20   1.370696 A    
C2    C18   1.464980 S    
O8    C4    1.297014 A    
C11   C18   1.420229 A    
C19   C24   1.397203 A    
C8    C9    1.390167 A    
C16   Br1   1.945104 S    
Zn1   O7    1.921134 S    
C23   C24   1.395652 A    
C13   C14   1.390849 A    
O4    C2    1.291380 A    
O3    Zn1   1.958992 S    
C26   H13   1.081508 S    
C26   N1    1.366402 A    
C19   H8    1.083962 S    
C28   N2    1.358554 A    
N1    C27   1.379037 A    
C27   N3    1.429645 S    
N3    O10   1.301471 A    
C23   H11   1.083339 S    
C12   C16   1.386539 A    
C20   H9    1.083852 S    
O7    C4    1.287942 A    
C25   C26   1.417206 A    
H1    C17   1.082357 S    
C27   C28   1.415102 A    
H2    C14   1.083490 S    
C10   C12   1.413824 A    
C7    C8    1.387325 A    
Zn1   N1    2.012679 S    
C5    C17   1.398692 A    
O3    C2    1.297238 A    
C7    H4    1.083391 S    
Zn2   N2    2.012553 S    
C14   C15   1.391220 A    
Zn1   O5    1.994670 S    
C9    H5    1.079747 S    
O5    C3    1.283180 A    
C25   H12   1.081585 S    
C21   C22   1.397168 A    
C5    C13   1.404226 A    
O2    C1    1.282840 A    
C8    H6    1.081905 S    
O1    C1    1.284668 A    
C12   C13   1.413308 A    
O1    Zn1   1.998488 S    
C6    C17   1.403315 A    
C4    C6    1.456980 S    
C1    C24   1.416566 S    
Zn2   O6    1.998491 S    
O2    Zn2   1.994670 S    
C9    C10   1.415492 A    
C11   C15   1.417076 A    
C15   H7    1.078489 S    
C28   H14   1.080452 S    
C3    C21   1.417225 S    
C7    C18   1.402279 A    
C6    C16   1.403829 A    
