data_mof_unit_62532.cif
_audit_creation_date              2012-10-26T17:49:06-0400
_audit_creation_method            fapswitch 2.2
_symmetry_space_group_name_H-M    P1
_symmetry_Int_Tables_number       1
_space_group_crystal_system       triclinic
_cell_length_a                    18.701406
_cell_length_b                    19.119427
_cell_length_c                    18.773177
_cell_angle_alpha                 109.986163
_cell_angle_beta                  109.085638
_cell_angle_gamma                 109.591668
_cell_volume                      5151.08429024

loop_
_atom_site_label
_atom_site_type_symbol
_atom_type_description
_atom_site_fract_x
_atom_site_fract_y
_atom_site_fract_z
_atom_type_partial_charge
C1    C     C_R   0.993715 0.112235 0.619216 0.565349
C2    C     C_R   0.233104 0.296398 0.653964 0.119922
C3    C     C_R   0.063231 0.146834 0.803965 -0.087102
C4    C     C_R   0.119518 0.118399 0.500548 0.617790
C5    C     C_R   0.120172 0.178462 0.891469 0.247165
C6    C     C_R   0.155841 0.264580 0.953419 0.293879
C7    C     C_R   0.126107 0.315509 0.928699 0.177425
C8    C     C_R   0.056475 0.278141 0.843107 -0.017920
C9    C     C_R   0.036053 0.198663 0.777636 -0.051498
C10   C     C_R   0.989695 0.174568 0.688430 0.016719
C11   C     C_R   0.947488 0.218554 0.666554 -0.132050
C12   C     C_R   0.206957 0.163939 0.433789 -0.005936
C13   C     C_R   0.953316 0.286660 0.731317 -0.144228
C14   C     C_R   0.007875 0.317343 0.819287 0.048785
C15   C     C_R   0.763354 0.714783 0.341271 -0.078620
C16   C     C_R   0.995770 0.877904 0.380437 0.552693
C17   C     C_R   0.701832 0.639637 0.261469 0.241954
C18   C     C_R   0.625524 0.582390 0.252147 -0.067895
C19   C     C_R   0.611645 0.597181 0.323673 0.090273
C20   C     C_R   0.678590 0.669350 0.408715 0.057900
C21   C     C_R   0.751880 0.732132 0.414947 -0.075406
C22   C     C_R   0.812633 0.811082 0.494749 0.023136
C23   C     C_R   0.316650 0.313866 0.502693 -0.017034
C24   C     C_R   0.804908 0.825316 0.569425 0.221792
C25   C     C_R   0.738203 0.761638 0.565700 -0.103377
C26   C     C_R   0.675629 0.683548 0.487500 0.003936
C27   C     C_R   0.977060 0.724611 0.388651 -0.061965
C28   C     C_R   0.880883 0.880857 0.499159 0.555296
C29   C     C_R   0.985465 0.661270 0.404825 0.084250
C30   C     C_R   0.015495 0.613448 0.360537 0.151804
C31   C     C_R   0.030631 0.625872 0.296066 0.289317
C32   C     C_R   0.009038 0.680912 0.269846 0.005756
C33   C     C_R   0.991922 0.737631 0.323975 -0.046993
C34   C     C_R   0.316277 0.329077 0.581952 -0.004270
C35   C     C_R   0.988028 0.805228 0.311266 0.047751
C36   C     C_R   0.981312 0.804711 0.233865 0.141322
C37   C     C_R   0.991004 0.744863 0.177023 -0.036663
C38   C     C_R   0.005913 0.683989 0.193951 0.004560
C39   C     C_R   0.621159 0.502507 0.618995 0.525678
C40   C     C_R   0.179164 0.078492 0.372186 0.230800
C41   C     C_R   0.382010 0.381387 0.501085 0.531659
C42   C     C_R   0.379062 0.497887 0.381518 0.637157
C43   C     C_R   0.613714 0.617974 0.494307 0.596512
C44   C     C_R   0.880921 0.497532 0.879080 0.519046
C45   C     C_R   0.244290 0.269653 0.579308 0.033640
C46   C     C_R   0.003164 0.382105 0.883668 0.555723
C47   C     C_R   0.119517 0.496240 0.114330 0.642710
C48   C     C_R   0.004197 0.618186 0.123454 0.583113
C49   C     C_R   0.777317 0.511335 0.609198 -0.116616
C50   C     C_R   0.844716 0.503406 0.597713 -0.067426
C51   C     C_R   0.899722 0.487320 0.652388 0.117814
C52   C     C_R   0.178011 0.060678 0.292563 0.290868
C53   C     C_R   0.888696 0.482342 0.721229 -0.076853
C54   C     C_R   0.822749 0.493470 0.736029 0.010308
C55   C     C_R   0.763043 0.503069 0.676093 0.023141
C56   C     C_R   0.189793 0.185279 0.504061 0.020838
C57   C     C_R   0.691558 0.505388 0.685620 0.015678
C58   C     C_R   0.683214 0.503545 0.756374 -0.134470
C59   C     C_R   0.744039 0.498223 0.817355 -0.130253
C60   C     C_R   0.814001 0.493965 0.808401 0.009694
C61   C     C_R   0.189160 0.371446 0.292320 0.097801
C62   C     C_R   0.107847 0.294422 0.231811 0.262607
C63   C     C_R   0.062187 0.276260 0.145861 0.130085
C64   C     C_R   0.206783 0.127303 0.276027 -0.066103
C65   C     C_R   0.091248 0.339532 0.124807 -0.030450
C66   C     C_R   0.167860 0.420111 0.187795 -0.026498
C67   C     C_R   0.385904 0.401598 0.663856 -0.093827
C68   C     C_R   0.224277 0.428807 0.265297 -0.003453
C69   C     C_R   0.311404 0.498267 0.315941 0.042177
C70   C     C_R   0.335404 0.567724 0.301505 0.199811
C71   C     C_R   0.273252 0.566936 0.234527 0.137782
C72   C     C_R   0.188611 0.493010 0.177252 0.083657
C73   C     C_R   0.248245 0.212105 0.342677 -0.103842
C74   C     C_R   0.257025 0.231327 0.426077 -0.021472
C75   C     C_R   0.378399 0.421931 0.738463 -0.127792
C76   C     C_R   0.301230 0.371843 0.732933 -0.076133
Cl1   Cl    Cl    0.151237 0.110484 0.920147 -0.455168
Cl2   Cl    Cl    0.061622 0.222041 0.263646 -0.636084
Cl3   Cl    Cl    0.240093 0.309322 0.060825 -0.500400
Cl4   Cl    Cl    0.193917 0.428073 0.994597 -0.567118
Cl5   Cl    Cl    0.877223 0.923270 0.669619 -0.570708
Cl6   Cl    Cl    0.718757 0.619477 0.171603 -0.598154
Cl7   Cl    Cl    0.174889 0.001860 0.404831 -0.538094
Cl8   Cl    Cl    0.095800 0.588177 0.266921 -0.571687
Cl9   Cl    Cl    0.146564 0.956854 0.214507 -0.505572
Cl10  Cl    Cl    0.442060 0.659402 0.371227 -0.582710
Cu1   Cu    Cu3+1 0.061810 0.999990 0.561790 1.099002
Cu2   Cu    Cu3+1 0.938190 0.000010 0.438210 1.022316
Cu3   Cu    Cu3+1 0.499980 0.561850 0.561820 1.035883
Cu4   Cu    Cu3+1 0.500030 0.438250 0.438240 0.994540
Cu5   Cu    Cu3+1 0.061790 0.561800 0.999990 1.082733
Cu6   Cu    Cu3+1 0.938200 0.438200 0.000000 1.042110
H1    H     H_    0.294678 0.391820 0.790727 0.141839
H2    H     H_    0.737582 0.525125 0.565780 0.138489
H3    H     H_    0.853713 0.509080 0.545394 0.131923
H4    H     H_    0.931272 0.468569 0.761956 0.121444
H5    H     H_    0.737244 0.498791 0.872684 0.149952
H6    H     H_    0.053407 0.324839 0.058794 0.165964
H7    H     H_    0.203279 0.114023 0.213717 0.180350
H8    H     H_    0.272731 0.261389 0.327269 0.168912
H9    H     H_    0.447782 0.442319 0.672075 0.142929
H10   H     H_    0.431761 0.478327 0.800353 0.138920
H11   H     H_    0.909731 0.200427 0.599120 0.155124
H12   H     H_    0.039076 0.080788 0.757787 0.224568
H13   H     H_    0.480564 0.546343 0.260254 0.271000
H14   H     H_    0.513523 0.479040 0.277767 0.251969
H15   H     H_    0.006756 0.925542 0.258800 0.293852
H16   H     H_    0.898786 0.848730 0.198934 0.259808
H17   H     H_    0.023244 0.660731 0.518805 0.241636
H18   H     H_    0.917934 0.585332 0.439797 0.232083
H19   H     H_    0.080778 0.586940 0.447939 0.240334
H20   H     H_    0.975880 0.507252 0.372013 0.233107
H21   H     H_    0.000499 0.462034 0.681486 0.230931
H22   H     H_    0.011754 0.534991 0.649379 0.238261
H23   H     H_    0.916349 0.316702 0.712757 0.112255
H24   H     H_    0.223885 0.349253 0.392857 0.255108
H25   H     H_    0.187083 0.418462 0.404735 0.267226
H26   H     H_    0.996998 0.146359 0.073964 0.288888
H27   H     H_    0.937451 0.189011 0.101709 0.279236
H28   H     H_    0.348910 0.654624 0.214950 0.280053
H29   H     H_    0.313781 0.694225 0.283775 0.286661
H30   H     H_    0.156647 0.277034 0.710324 0.229647
H31   H     H_    0.105998 0.260060 0.609115 0.227380
H32   H     H_    0.820456 0.758957 0.344862 0.138257
H33   H     H_    0.575392 0.526605 0.188300 0.163945
H34   H     H_    0.736072 0.773268 0.625485 0.178754
H35   H     H_    0.956387 0.762010 0.425886 0.146571
H36   H     H_    0.984461 0.744552 0.117292 0.175149
H37   H     H_    0.628538 0.504999 0.763771 0.129484
N1    N     N_3   0.526533 0.542587 0.306478 -0.540389
N2    N     N_3   0.961314 0.861826 0.209033 -0.551207
N3    N     N_3   0.966731 0.649266 0.469289 -0.626670
N4    N     N_3   0.033271 0.553671 0.381910 -0.552229
N5    N     N_3   0.966471 0.476086 0.637050 -0.618121
N6    N     N_3   0.226791 0.400484 0.383853 -0.603803
N7    N     N_3   0.983148 0.196093 0.080359 -0.586701
N8    N     N_3   0.295620 0.641818 0.225598 -0.532690
N9    N     N_3   0.151618 0.250728 0.648864 -0.593195
O1    O     O_R   0.052180 0.090150 0.642360 -0.500865
O2    O     O_R   0.857610 0.447810 0.909840 -0.510190
O3    O     O_R   0.052190 0.462030 0.909810 -0.488597
O4    O     O_R   0.947790 0.090180 0.538000 -0.512271
O5    O     O_R   0.947820 0.357640 0.909820 -0.518090
O6    O     O_R   0.142370 0.552190 0.090140 -0.429208
O7    O     O_R   0.038000 0.447800 0.090150 -0.503215
O8    O     O_R   0.052170 0.642360 0.090160 -0.487710
O9    O     O_R   0.947800 0.537970 0.090170 -0.479261
O10   O     O_R   0.142370 0.090170 0.552180 -0.445091
O11   O     O_R   0.037980 0.090190 0.447820 -0.497332
O12   O     O_R   0.590200 0.447870 0.538030 -0.513746
O13   O     O_R   0.052210 0.909820 0.462000 -0.475675
O14   O     O_R   0.947820 0.909850 0.357640 -0.534571
O15   O     O_R   0.962020 0.909810 0.552180 -0.487255
O16   O     O_R   0.857630 0.909830 0.447820 -0.511860
O17   O     O_R   0.590160 0.552240 0.642380 -0.520331
O18   O     O_R   0.409810 0.462060 0.552200 -0.513087
O19   O     O_R   0.409850 0.357690 0.447850 -0.514597
O20   O     O_R   0.409800 0.552230 0.462030 -0.451179
O21   O     O_R   0.409840 0.447860 0.357670 -0.494177
O22   O     O_R   0.590160 0.642410 0.552210 -0.492287
O23   O     O_R   0.590200 0.538040 0.447850 -0.507368
O24   O     O_R   0.961980 0.552200 0.909830 -0.520856

loop_
_geom_bond_atom_site_label_1
_geom_bond_atom_site_label_2
_ccdc_geom_bond_type
C3    H12   S    
C73   H8    S    
C66   C68   A    
Cu1   Cu2   S    
C63   C65   A    
C75   C76   A    
C12   C74   A    
C27   C29   A    
Cu2   O11   S    
C6    C7    A    
C35   C36   A    
H20   N4    S    
Cu4   O12   S    
C47   O7    A    
C6    Cl3   S    
H26   N7    S    
C7    C8    A    
C71   N8    S    
H24   N6    S    
C54   C60   A    
C53   C54   A    
C27   C33   A    
C4    O11   A    
H31   N9    S    
C67   H9    S    
C37   C38   A    
C36   C37   A    
C65   H6    S    
C18   C19   A    
C69   C70   A    
C18   H33   S    
C30   C31   A    
C51   N5    S    
C50   H3    S    
Cu3   O17   S    
C29   N3    S    
C58   H37   S    
C39   C57   S    
C48   O9    A    
H14   N1    S    
C17   Cl6   S    
C73   C74   A    
H29   N8    S    
Cu4   O21   S    
Cu6   O5    S    
H16   N2    S    
C1    O4    A    
C27   H35   S    
C64   H7    S    
C66   C72   A    
C42   O21   A    
C45   C56   A    
C8    C9    A    
C48   O8    A    
C75   H10   S    
C64   C73   A    
Cu1   O15   S    
Cu5   O24   S    
H18   N3    S    
C70   C71   A    
C32   C38   A    
C49   H2    S    
C29   C30   A    
C9    C10   A    
C38   C48   S    
C1    O1    A    
C41   O18   A    
C30   N4    S    
C19   N1    S    
C59   C60   A    
C44   O2    A    
Cu6   O2    S    
Cu1   O13   S    
C13   C14   A    
C4    C56   S    
Cu6   O9    S    
C28   O16   A    
Cu2   O14   S    
C40   Cl7   S    
C42   O20   A    
C44   O24   A    
Cu2   O4    S    
C22   C28   S    
C26   C43   S    
C17   C18   A    
C46   O3    A    
C2    C45   A    
Cu1   O10   S    
Cu4   O23   S    
C2    N9    S    
Cu3   O20   S    
C24   C25   A    
H30   N9    S    
C14   C46   S    
C43   O22   A    
C52   C64   A    
C36   N2    S    
Cu5   Cu6   S    
C68   C69   A    
Cu3   O18   S    
C25   C26   A    
C49   C55   A    
C47   O6    A    
C42   C69   S    
C31   Cl8   S    
C39   O17   A    
C51   C53   A    
Cu2   O16   S    
C12   C40   A    
C25   H34   S    
C62   C63   A    
C3    C9    A    
C76   H1    S    
C31   C32   A    
C39   O12   A    
C24   Cl5   S    
C23   C34   A    
H17   N3    S    
C50   C51   A    
H22   N5    S    
C16   O14   A    
C34   C45   A    
C12   C56   A    
C13   H23   S    
C41   O19   A    
C43   O23   A    
H15   N2    S    
C15   H32   S    
C49   C50   A    
H21   N5    S    
C55   C57   A    
C28   O15   A    
C59   H5    S    
C22   C24   A    
C67   C75   A    
C23   C74   A    
C5    Cl1   S    
C70   Cl10  S    
C2    C76   A    
C61   N6    S    
Cu3   O22   S    
Cu5   O6    S    
C15   C17   A    
C54   C55   A    
C52   Cl9   S    
C8    C14   A    
Cu6   O7    S    
C62   Cl2   S    
H19   N4    S    
C1    C10   S    
Cu1   O1    S    
C3    C5    A    
C34   C67   A    
H25   N6    S    
C46   O5    A    
H27   N7    S    
C23   C41   S    
C32   C33   A    
C37   H36   S    
C19   C20   A    
C58   C59   A    
C71   C72   A    
C16   C35   S    
C40   C52   A    
C63   N7    S    
C11   C13   A    
C61   C68   A    
C57   C58   A    
C5    C6    A    
C20   C26   A    
C44   C60   S    
C33   C35   A    
C16   O13   A    
C61   C62   A    
C47   C72   S    
C10   C11   A    
H13   N1    S    
C15   C21   A    
C20   C21   A    
Cu4   O19   S    
C65   C66   A    
C11   H11   S    
H28   N8    S    
Cu5   O3    S    
Cu3   Cu4   S    
C21   C22   A    
Cu5   O8    S    
C7    Cl4   S    
C53   H4    S    
C4    O10   A    
