data_mof_unit_53284.cif
_audit_creation_date              2012-12-10T21:10:42-0500
_audit_creation_method            fapswitch 2.2
_symmetry_space_group_name_H-M    P1
_symmetry_Int_Tables_number       1
_space_group_crystal_system       triclinic
_cell_length_a                    17.596828
_cell_length_b                    16.728246
_cell_length_c                    10.630848
_cell_angle_alpha                 90.136572
_cell_angle_beta                  90.848667
_cell_angle_gamma                 90.33034
_cell_volume                      3128.93483754

loop_
_atom_site_label
_atom_site_type_symbol
_atom_type_description
_atom_site_fract_x
_atom_site_fract_y
_atom_site_fract_z
_atom_type_partial_charge
C1    C     C_R   0.353227 0.499708 0.497558 0.958840
C2    C     C_R   0.646763 0.500149 0.495664 0.967527
C3    C     C_R   0.729455 0.501120 0.493534 -0.196194
C4    C     C_R   0.270736 0.499775 0.498953 -0.131135
C5    C     C_R   0.772142 0.438333 0.439645 0.398143
C6    C     C_R   0.226112 0.439591 0.438783 0.412211
C7    C     C_R   0.851091 0.441453 0.450165 -0.217492
C8    C     C_R   0.147459 0.443023 0.448700 -0.234118
C9    C     C_R   0.886745 0.506137 0.509538 0.072393
C10   C     C_R   0.113865 0.505323 0.514263 0.078910
C11   C     C_1   0.966639 0.508485 0.516641 0.002202
C12   C     C_1   0.034049 0.508368 0.518299 -0.001106
C13   C     C_R   0.464327 0.831929 0.597576 -0.120274
C14   C     C_R   0.535645 0.831970 0.402095 -0.122283
C15   C     C_R   0.464799 0.747571 0.593585 0.030439
C16   C     C_R   0.535102 0.747626 0.406223 0.016190
C17   C     C_R   0.500053 0.875846 0.499845 0.088206
C18   C     C_1   0.500208 0.963985 0.499868 0.171112
C19   C     C_1   0.500331 0.037070 0.499847 0.079988
C20   C     C_R   0.489729 0.500018 0.260008 0.969297
C21   C     C_R   0.507909 0.500275 0.740933 0.920232
C22   C     C_R   0.469317 0.167424 0.398128 -0.202355
C23   C     C_R   0.531652 0.168167 0.601269 -0.211183
C24   C     C_R   0.469793 0.251586 0.399975 0.133984
C25   C     C_R   0.530989 0.252337 0.599476 0.071467
C26   C     C_R   0.500419 0.124692 0.499772 0.115614
C27   C     C_R   0.444422 0.645143 0.101628 0.409339
C28   C     C_R   0.547999 0.646208 0.903701 0.430613
C29   C     C_R   0.468541 0.717549 0.049496 -0.322509
C30   C     C_R   0.523735 0.718093 0.956968 -0.328647
C31   C     C_R   0.514846 0.573267 0.944159 -0.085530
C32   C     C_R   0.477004 0.572744 0.058554 -0.104301
C33   C     C_R   0.478020 0.499988 0.125742 -0.031421
C34   C     C_R   0.515103 0.500533 0.876037 -0.037420
C35   C     C_R   0.488200 0.427395 0.063152 -0.113845
C36   C     C_R   0.503237 0.427688 0.937204 -0.186607
C37   C     C_R   0.845351 0.569361 0.557386 -0.135359
C38   C     C_R   0.157222 0.565189 0.571456 -0.123529
C39   C     C_R   0.766942 0.567074 0.548801 -0.153280
C40   C     C_R   0.235582 0.562419 0.563890 -0.208764
H1    H     H_    0.485980 0.370533 0.111619 0.180425
H2    H     H_    0.505448 0.370936 0.888083 0.170111
H3    H     H_    0.444825 0.136036 0.317907 0.170970
H4    H     H_    0.556413 0.137348 0.681295 0.166249
H5    H     H_    0.445738 0.283912 0.321145 0.164776
H6    H     H_    0.555543 0.285293 0.677853 0.132500
H7    H     H_    0.445406 0.773642 0.082029 0.216316
H8    H     H_    0.547255 0.774584 0.926115 0.216344
H9    H     H_    0.873606 0.620156 0.601450 0.170215
H10   H     H_    0.130540 0.613732 0.621683 0.158249
H11   H     H_    0.735652 0.616692 0.587158 0.246270
H12   H     H_    0.268884 0.608875 0.610273 0.169681
H13   H     H_    0.885243 0.394083 0.411005 0.173917
H14   H     H_    0.111903 0.397621 0.404352 0.187529
H15   H     H_    0.437371 0.713521 0.666742 0.103384
H16   H     H_    0.562447 0.713628 0.333054 0.112008
N1    N     N_R   0.500000 0.707230 0.500000 -0.051342
N2    N     N_R   0.500000 0.292770 0.500000 -0.097968
O1    O     O_R   0.389110 0.566570 0.499990 -0.590425
O2    O     O_R   0.610890 0.566570 0.500010 -0.599641
O3    O     O_R   0.389090 0.433480 0.499980 -0.577317
O4    O     O_R   0.610910 0.433480 0.500020 -0.558782
O5    O     O_R   0.500000 0.566560 0.316760 -0.626644
O6    O     O_R   0.500000 0.566560 0.683240 -0.613106
O7    O     O_R   0.499970 0.433470 0.316760 -0.612535
O8    O     O_R   0.500030 0.433470 0.683240 -0.656640
Zn1   Zn    Zn3+2 0.500000 0.588860 0.500000 1.051606
Zn2   Zn    Zn3+2 0.500000 0.411140 0.500000 1.058535
S1    S     S_3+6 0.360563 0.646985 0.191557 0.038370
O9    O     O_2   0.330953 0.564287 0.216884 -0.308978
O10   O     O_2   0.375757 0.689532 0.313831 -0.264002
O11   O     O_3   0.293783 0.698225 0.111443 -0.507427
H17   H     H_    0.287172 0.668977 0.030846 0.348281
S2    S     S_3+6 0.633295 0.649015 0.817844 0.014684
O12   O     O_2   0.663377 0.566470 0.794614 -0.340121
O13   O     O_2   0.619731 0.690615 0.694745 -0.290589
O14   O     O_3   0.698682 0.701747 0.900372 -0.513598
H18   H     H_    0.703997 0.673168 0.981510 0.356507
S3    S     S_3+6 0.730723 0.358312 0.352124 0.050419
O15   O     O_2   0.695575 0.299131 0.440559 -0.296109
O16   O     O_2   0.670083 0.389664 0.264577 -0.269457
O17   O     O_3   0.796718 0.311679 0.266044 -0.512127
H19   H     H_    0.819479 0.271272 0.322969 0.366820
S4    S     S_3+6 0.264497 0.360924 0.347781 0.045351
O18   O     O_2   0.327007 0.391490 0.265625 -0.314973
O19   O     O_2   0.296035 0.298416 0.434986 -0.263662
O20   O     O_3   0.196682 0.318429 0.256207 -0.511857
H20   H     H_    0.183439 0.359706 0.193037 0.362569
C41   C     C_2   0.425965 0.869832 0.706161 0.415841
H21   H     H_    0.400384 0.832313 0.777424 0.071101
O21   O     O_2   0.422238 0.942222 0.718638 -0.546527
C42   C     C_2   0.573931 0.869898 0.293334 0.415303
H22   H     H_    0.599515 0.832401 0.222167 0.074658
O22   O     O_2   0.577557 0.942281 0.280569 -0.544518

loop_
_geom_bond_atom_site_label_1
_geom_bond_atom_site_label_2
_ccdc_geom_bond_type
C39   H11   S    
O20   H20   S    
C21   O8    A    
C27   C29   A    
O8    Zn2   S    
C35   C36   A    
S4    O20   S    
C28   S2    S    
O14   H18   S    
S2    O13   D    
C29   H7    S    
C24   H5    S    
C22   C24   A    
C30   H8    S    
S4    O19   D    
C1    O1    A    
C8    C10   A    
C2    O2    A    
C18   C19   T    
C23   C26   A    
S1    O10   D    
C19   C26   S    
C21   O6    A    
O1    Zn1   S    
C36   H2    S    
C4    C40   A    
O2    Zn1   S    
S2    O14   S    
C41   O21   D    
C27   S1    S    
C3    C39   A    
C15   N1    A    
C14   C17   A    
N1    Zn1   S    
C9    C37   A    
O5    Zn1   S    
C6    S4    S    
S2    O12   D    
O6    Zn1   S    
C20   O7    A    
S4    O18   D    
C4    C6    A    
C8    H14   S    
S3    O16   D    
C6    C8    A    
C21   C34   S    
C40   H12   S    
C23   H4    S    
C15   H15   S    
S1    O11   S    
C16   H16   S    
C29   C30   A    
C37   H9    S    
C31   C32   A    
O7    Zn2   S    
C42   O22   D    
C17   C18   S    
C31   C34   A    
C9    C11   S    
C14   C42   S    
C10   C12   S    
C20   C33   S    
N2    Zn2   S    
C13   C15   A    
C14   C16   A    
C5    S3    S    
C25   N2    A    
C7    H13   S    
C5    C7    A    
C7    C9    A    
C13   C41   S    
C27   C32   A    
C28   C31   A    
O11   H17   S    
C3    C5    A    
C1    O3    A    
S3    O17   S    
C11   C12   T    
C38   H10   S    
C13   C17   A    
O4    Zn2   S    
C10   C38   A    
C1    C4    S    
C32   C33   A    
C20   O5    A    
C28   C30   A    
C2    C3    S    
C37   C39   A    
C38   C40   A    
O3    Zn2   S    
C42   H22   S    
C33   C35   A    
C34   C36   A    
C16   N1    A    
C23   C25   A    
S1    O9    D    
C35   H1    S    
S3    O15   D    
C24   N2    A    
O17   H19   S    
C22   C26   A    
C41   H21   S    
C25   H6    S    
C22   H3    S    
C2    O4    A    
