data_mof_unit_15242.cif
_audit_creation_date              2012-12-10T18:09:49-0500
_audit_creation_method            fapswitch 2.2
_symmetry_space_group_name_H-M    P1
_symmetry_Int_Tables_number       1
_space_group_crystal_system       triclinic
_cell_length_a                    10.832245
_cell_length_b                    12.678413
_cell_length_c                    13.417894
_cell_angle_alpha                 82.351142
_cell_angle_beta                  92.962567
_cell_angle_gamma                 103.554371
_cell_volume                      1775.09010952

loop_
_atom_site_label
_atom_site_type_symbol
_atom_type_description
_atom_site_fract_x
_atom_site_fract_y
_atom_site_fract_z
_atom_type_partial_charge
C1    C     C_R   0.477960 0.438740 0.689955 0.916583
C2    C     C_3   0.121372 0.496929 0.498460 0.034785
C3    C     C_3   0.064583 0.482920 0.391264 -0.336384
C4    C     C_3   0.105316 0.606532 0.528698 -0.423183
C5    C     C_R   0.653070 0.685347 0.059636 -0.168352
C6    C     C_R   0.527384 0.589908 0.200412 -0.041457
C7    C     C_R   0.327264 0.315177 0.810427 -0.265075
C8    C     C_R   0.275994 0.287456 0.905585 -0.141053
C9    C     C_R   0.327167 0.345813 0.986159 0.448643
C10   C     C_R   0.428667 0.441727 0.968332 -0.056330
C11   C     C_R   0.487388 0.458147 0.872725 -0.172066
C12   C     C_R   0.742911 0.502828 0.495622 0.871015
C13   C     C_R   0.483708 0.522066 0.036194 0.069557
C14   C     C_R   0.581587 0.612909 0.998496 -0.008444
C15   C     C_R   0.611469 0.627848 0.898383 0.127147
C16   C     C_R   0.604215 0.531394 0.859661 0.475208
C17   C     C_R   0.448604 0.522283 0.135714 -0.159158
C18   C     C_R   0.634157 0.667005 0.162038 0.143790
C19   C     C_R   0.434829 0.399689 0.793634 -0.116391
C20   C     C_R   0.289966 0.077330 0.369906 -0.228838
C21   C     C_R   0.656794 0.815305 0.629599 0.426445
C22   C     C_R   0.665430 0.919983 0.662169 0.359744
C23   C     C_R   0.512780 0.559560 0.309127 0.875025
C24   C     C_R   0.577668 0.978030 0.626786 -0.321284
C25   C     C_R   0.510088 0.955314 0.539842 -0.070981
C26   C     C_R   0.501758 0.852711 0.504251 -0.009456
C27   C     C_R   0.455091 0.035983 0.484409 0.048480
C28   C     C_R   0.360272 0.002530 0.412435 0.086081
C29   C     C_R   0.346623 0.898228 0.380069 0.018088
C30   C     C_R   0.444912 0.843653 0.407507 0.446916
C31   C     C_R   0.495683 0.149311 0.494485 -0.053490
C32   C     C_R   0.323785 0.185636 0.391456 0.340591
C33   C     C_R   0.257875 0.498051 0.500575 0.827949
C34   C     C_3   0.909051 0.414394 0.577560 -0.361518
C35   C     C_3   0.047751 0.403604 0.573932 -0.395743
C36   C     C_3   0.918476 0.473879 0.389426 -0.039017
C37   C     C_3   0.967969 0.615950 0.514290 0.300342
C38   C     C_3   0.880904 0.503301 0.492369 -0.065755
H1    H     H_    0.844225 0.333186 0.571314 0.246537
H2    H     H_    0.169376 0.676405 0.484023 0.241033
H3    H     H_    0.893731 0.532256 0.326805 0.188845
H4    H     H_    0.111509 0.553558 0.337425 0.213291
H5    H     H_    0.733113 0.748263 0.029408 0.183011
H6    H     H_    0.364854 0.469272 0.167263 0.242563
H7    H     H_    0.282296 0.270467 0.749734 0.186163
H8    H     H_    0.195834 0.217952 0.916350 0.209024
H9    H     H_    0.892848 0.437502 0.652043 0.237844
H10   H     H_    0.208336 0.053339 0.321280 0.175838
H11   H     H_    0.576423 0.180759 0.541403 0.158199
H12   H     H_    0.573151 0.049446 0.661079 0.205864
H13   H     H_    0.092752 0.406929 0.650301 0.183061
H14   H     H_    0.049434 0.322958 0.550561 0.217029
H15   H     H_    0.086860 0.409634 0.365902 0.186066
H16   H     H_    0.939645 0.632963 0.587102 0.181765
H17   H     H_    0.135430 0.612116 0.608948 0.167362
N1    N     N_R   0.433240 0.222190 0.444680 -0.116578
N2    N     N_R   0.566070 0.776970 0.554790 -0.174840
O1    O     O_R   0.468120 0.366740 0.627160 -0.622142
O2    O     O_R   0.510770 0.544830 0.662520 -0.593483
O3    O     O_R   0.663880 0.410950 0.482330 -0.632772
O4    O     O_R   0.706530 0.589040 0.517700 -0.506638
O5    O     O_R   0.489230 0.455170 0.337480 -0.589359
O6    O     O_R   0.531880 0.633260 0.372840 -0.542400
O7    O     O_R   0.293470 0.410960 0.482300 -0.626753
O8    O     O_R   0.336120 0.589050 0.517670 -0.654672
Zn1   Zn    Zn3+2 0.471520 0.381090 0.476390 0.992716
Zn2   Zn    Zn3+2 0.528480 0.618910 0.523610 1.080807
N3    N     N_3   0.732479 0.715462 0.227205 -0.336237
H18   H     H_    0.805692 0.676043 0.221700 0.187874
H19   H     H_    0.765869 0.797660 0.198764 0.242440
N4    N     N_3   0.563823 0.711123 0.835950 -0.422097
H20   H     H_    0.585094 0.782860 0.870032 0.251943
H21   H     H_    0.464736 0.686283 0.831073 0.166139
S1    S     S_3+6 0.272233 0.281039 0.105203 -0.032778
O9    O     O_2   0.177910 0.338170 0.139260 -0.320195
O10   O     O_2   0.206984 0.163128 0.100649 -0.320159
O11   O     O_3   0.396288 0.285345 0.186469 -0.568664
H22   H     H_    0.451303 0.244699 0.158424 0.377655
S2    S     S_3+6 0.735804 0.470190 0.882219 0.071608
O12   O     O_2   0.858377 0.555512 0.873770 -0.233517
O13   O     O_2   0.728821 0.409116 0.986600 -0.299272
O14   O     O_3   0.733118 0.381980 0.798548 -0.549593
H23   H     H_    0.669966 0.314949 0.823981 0.371427
N5    N     N_3   0.237336 0.254856 0.365276 -0.346079
H24   H     H_    0.174078 0.238925 0.424601 0.161687
H25   H     H_    0.180386 0.228573 0.304261 0.251569
N6    N     N_3   0.271227 0.870906 0.292034 -0.379026
H26   H     H_    0.309848 0.926512 0.230625 0.253719
H27   H     H_    0.181195 0.882863 0.301030 0.237508
S3    S     S_3+6 0.779581 0.749636 0.679874 0.090060
O15   O     O_2   0.746869 0.628302 0.685767 -0.292064
O16   O     O_2   0.892017 0.797274 0.614742 -0.243164
O17   O     O_3   0.824999 0.776315 0.797363 -0.497455
H28   H     H_    0.914546 0.770030 0.804772 0.403449
S4    S     S_3+6 0.791298 0.994647 0.735512 0.069919
O18   O     O_2   0.918855 0.982769 0.706051 -0.224193
O19   O     O_2   0.791674 0.114461 0.719013 -0.314739
O20   O     O_3   0.769170 0.951029 0.858630 -0.539639
H29   H     H_    0.844819 0.992009 0.893144 0.391848
S5    S     S_3+6 0.553228 0.879756 0.308069 0.029930
O21   O     O_2   0.681404 0.865461 0.344646 -0.236278
O22   O     O_2   0.503645 0.812635 0.224539 -0.326894
O23   O     O_3   0.567586 0.012430 0.262979 -0.566755
H30   H     H_    0.625224 0.025613 0.205405 0.392490
N7    N     N_3   0.850087 0.363383 0.370138 -0.416394
H31   H     H_    0.759198 0.366913 0.341972 0.223105
H32   H     H_    0.892096 0.340703 0.310344 0.218177
S6    S     S_3+6 0.964795 0.733350 0.422188 0.008845
O24   O     O_2   0.834353 0.753148 0.411951 -0.202951
O25   O     O_2   0.052358 0.832278 0.458071 -0.280110
O26   O     O_3   0.013727 0.716826 0.309734 -0.641795
H33   H     H_    0.995298 0.778709 0.262839 0.368860

loop_
_geom_bond_atom_site_label_1
_geom_bond_atom_site_label_2
_ccdc_geom_bond_type
C2    C35   S    
N6    H26   S    
C3    H4    S    
O17   H28   S    
C3    H15   S    
C22   S4    S    
S4    O18   D    
S4    O20   S    
C33   O8    A    
C7    C8    A    
O11   H22   S    
N7    H32   S    
C11   C19   A    
C37   C38   S    
S1    O10   D    
C7    H7    S    
C28   C29   A    
N5    H25   S    
C1    O2    A    
C18   N3    S    
C15   C16   A    
O20   H29   S    
C30   S5    S    
S6    O24   D    
C34   C35   S    
O2    Zn2   S    
O1    Zn1   S    
C23   O5    A    
O26   H33   S    
C8    C9    A    
O8    Zn2   S    
S1    O11   S    
C31   N1    A    
C9    C10   A    
C23   O6    A    
C5    H5    S    
O3    Zn1   S    
C21   C22   A    
C36   H3    S    
C31   H11   S    
C32   N5    S    
C21   S3    S    
C24   H12   S    
C6    C18   A    
O6    Zn2   S    
C1    C19   S    
S1    O9    D    
O5    Zn1   S    
C27   C31   A    
C34   H1    S    
C4    H2    S    
N5    H24   S    
C37   S6    S    
N4    H21   S    
N3    H18   S    
C5    C18   A    
C20   C28   A    
C25   C26   A    
S5    O23   S    
O7    Zn1   S    
C2    C4    S    
C21   N2    A    
C29   C30   A    
C11   C16   A    
O4    Zn2   S    
S3    O16   D    
S5    O22   D    
C24   C25   A    
C5    C14   A    
C20   H10   S    
C37   H16   S    
C2    C33   S    
C26   C30   A    
C7    C19   A    
N6    H27   S    
C4    H17   S    
C35   H13   S    
C22   C24   A    
C9    S1    S    
C35   H14   S    
S3    O17   S    
S2    O13   D    
C20   C32   A    
C6    C17   A    
C36   N7    S    
C34   C38   S    
C10   C13   A    
S2    O14   S    
S4    O19   D    
C25   C27   A    
C15   N4    S    
N7    H31   S    
S6    O26   S    
C13   C17   A    
C16   S2    S    
C36   C38   S    
C2    C3    S    
C17   H6    S    
N4    H20   S    
C1    O1    A    
C12   O4    A    
N2    Zn2   S    
S3    O15   D    
C3    C36   S    
C33   O7    A    
N1    Zn1   S    
C6    C23   S    
S5    O21   D    
S6    O25   D    
C12   C38   S    
C26   N2    A    
C8    H8    S    
C29   N6    S    
C10   C11   A    
S2    O12   D    
C12   O3    A    
C4    C37   S    
N3    H19   S    
O14   H23   S    
O23   H30   S    
C14   C15   A    
C34   H9    S    
C13   C14   A    
C32   N1    A    
C27   C28   A    
