data_mof_unit_43466.cif
_audit_creation_date              2012-12-10T18:57:51-0500
_audit_creation_method            fapswitch 2.2
_symmetry_space_group_name_H-M    P1
_symmetry_Int_Tables_number       1
_space_group_crystal_system       triclinic
_cell_length_a                    10.619894
_cell_length_b                    10.040653
_cell_length_c                    8.899932
_cell_angle_alpha                 89.997874
_cell_angle_beta                  93.654785
_cell_angle_gamma                 90.030874
_cell_volume                      947.07552324

loop_
_atom_site_label
_atom_site_type_symbol
_atom_type_description
_atom_site_fract_x
_atom_site_fract_y
_atom_site_fract_z
_atom_type_partial_charge
C1    C     C_R   0.260851 0.500072 0.498208 1.057049
C2    C     C_R   0.073302 0.550593 0.625670 0.279975
C3    C     C_R   0.871940 0.499188 0.501606 -0.205161
C4    C     C_R   0.128061 0.500811 0.498381 -0.205147
C5    C     C_R   0.581142 0.071662 0.596966 0.206288
C6    C     C_R   0.418858 0.928338 0.403034 0.206271
C7    C     C_R   0.418928 0.071419 0.403007 0.182527
C8    C     C_R   0.581073 0.928581 0.596992 0.182438
C9    C     C_3   0.673183 0.142157 0.706783 -0.789449
C10   C     C_3   0.326816 0.857843 0.293218 -0.789376
C11   C     C_3   0.327167 0.141706 0.293081 -0.760308
C12   C     C_R   0.739149 0.499928 0.501788 1.057081
C13   C     C_3   0.672838 0.858295 0.706913 -0.760108
C14   C     C_R   0.499438 0.499999 0.219251 0.950272
C15   C     C_R   0.500562 0.500001 0.780749 0.950247
C16   C     C_1   0.499789 0.500000 0.065530 -0.142298
C17   C     C_1   0.500211 0.500000 0.934469 -0.142321
C18   C     C_R   0.058199 0.447246 0.374231 0.246191
C19   C     C_R   0.941803 0.552734 0.625767 0.246300
C20   C     C_R   0.926698 0.449387 0.374322 0.280141
H1    H     H_    0.069062 0.322883 0.208232 0.349453
H2    H     H_    0.345828 0.885069 0.175971 0.219112
H3    H     H_    0.331700 0.249349 0.298114 0.309370
H4    H     H_    0.346127 0.114393 0.175861 0.213966
H5    H     H_    0.228831 0.114640 0.315612 0.220771
H6    H     H_    0.668297 0.750651 0.701888 0.309376
H7    H     H_    0.771174 0.885356 0.684367 0.220848
H8    H     H_    0.653890 0.885616 0.824136 0.213935
H9    H     H_    0.931048 0.676878 0.792006 0.349666
H10   H     H_    0.893939 0.422756 0.158666 0.351683
H11   H     H_    0.106151 0.576887 0.841337 0.351607
H12   H     H_    0.669414 0.249967 0.701980 0.285287
H13   H     H_    0.654167 0.114935 0.824029 0.219113
H14   H     H_    0.771419 0.114729 0.684324 0.217210
H15   H     H_    0.330587 0.750033 0.298019 0.285283
H16   H     H_    0.228579 0.885270 0.315681 0.217218
N1    N     N_R   0.500000 0.857200 0.500000 -0.115032
N2    N     N_R   0.500000 0.142800 0.500000 -0.115027
O1    O     O_R   0.316770 0.614620 0.499990 -0.614940
O2    O     O_3   0.878863 0.605256 0.743420 -0.795204
O3    O     O_3   0.849145 0.409432 0.251738 -0.761141
O4    O     O_3   0.150846 0.590545 0.748258 -0.761151
O5    O     O_R   0.683230 0.385380 0.500010 -0.614984
O6    O     O_R   0.683230 0.614620 0.500010 -0.622606
O7    O     O_R   0.316770 0.385380 0.499990 -0.622663
O8    O     O_R   0.500010 0.614640 0.285340 -0.636985
O9    O     O_R   0.499990 0.385360 0.714660 -0.636985
O10   O     O_R   0.499990 0.614640 0.714660 -0.613937
O11   O     O_R   0.500010 0.385360 0.285340 -0.613938
O12   O     O_3   0.121134 0.394747 0.256569 -0.795152
Zn1   Zn    Zn3+2 0.500000 0.653120 0.500000 0.967637
Zn2   Zn    Zn3+2 0.500000 0.346880 0.500000 0.967597

loop_
_geom_bond_atom_site_label_1
_geom_bond_atom_site_label_2
_ccdc_geom_bond_type
C6    C10   S    
C5    C8    A    
O1    Zn1   S    
H10   O3    S    
C3    C19   A    
C6    C7    A    
H11   O4    S    
C2    C4    A    
O7    Zn2   S    
C15   O9    A    
O11   Zn2   S    
C4    C18   A    
C1    C4    S    
C20   O3    S    
C6    N1    A    
C3    C20   A    
C13   H8    S    
C5    N2    A    
C10   H2    S    
C9    H13   S    
C1    O7    A    
C5    C9    S    
C8    C13   S    
C15   O10   A    
C2    O4    S    
C13   H6    S    
O6    Zn1   S    
C11   H3    S    
H1    O12   S    
C7    N2    A    
C7    C11   S    
C12   O5    A    
C18   C20   A    
C9    H14   S    
N1    Zn1   S    
C10   H15   S    
C14   C16   S    
O5    Zn2   S    
C14   O11   A    
N2    Zn2   S    
C8    N1    A    
C1    O1    A    
C11   H4    S    
C18   O12   S    
C14   O8    A    
C19   O2    S    
O9    Zn2   S    
C15   C17   S    
C11   H5    S    
C12   O6    A    
C10   H16   S    
C3    C12   S    
C9    H12   S    
H9    O2    S    
C2    C19   A    
O8    Zn1   S    
O10   Zn1   S    
C13   H7    S    
C16   C17   T    
