data_mof_unit_28789.cif
_audit_creation_date              2012-12-10T17:17:26-0500
_audit_creation_method            fapswitch 2.2
_symmetry_space_group_name_H-M    P1
_symmetry_Int_Tables_number       1
_space_group_crystal_system       triclinic
_cell_length_a                    10.20284
_cell_length_b                    10.890197
_cell_length_c                    12.269893
_cell_angle_alpha                 90.105178
_cell_angle_beta                  109.311763
_cell_angle_gamma                 96.043408
_cell_volume                      1278.48291196

loop_
_atom_site_label
_atom_site_type_symbol
_atom_type_description
_atom_site_fract_x
_atom_site_fract_y
_atom_site_fract_z
_atom_type_partial_charge
C1    C     C_R   0.049309 0.731436 0.487918 0.922379
C2    C     C_R   0.415133 0.488639 0.999362 0.014388
C3    C     C_R   0.322218 0.451984 0.887963 0.018020
C4    C     C_R   0.549571 0.447524 0.032065 0.113767
C5    C     C_R   0.575752 0.349433 0.968507 0.075442
C6    C     C_R   0.471812 0.299036 0.869181 -0.182276
C7    C     C_R   0.347658 0.351502 0.828117 -0.132241
C8    C     C_R   0.661308 0.506273 0.121477 -0.266648
C9    C     C_R   0.809671 0.351955 0.105768 0.386072
C10   C     C_R   0.205261 0.516214 0.839016 -0.096105
C11   C     C_2   0.080317 0.862810 0.483971 -0.430971
C12   C     C_R   0.133622 0.509635 0.714351 0.853005
C13   C     C_2   0.978629 0.935778 0.473234 0.468726
C14   C     C_2   0.914958 0.136149 0.505948 -0.387531
C15   C     C_2   0.016050 0.061910 0.521519 0.318460
C16   C     C_2   0.431510 0.511065 0.509864 -0.048372
C17   C     C_2   0.567864 0.486334 0.494591 0.142821
C18   C     C_R   0.949891 0.268106 0.510635 0.956838
C19   C     C_R   0.865071 0.485018 0.286026 0.892789
C20   C     C_R   0.706004 0.303599 0.004907 -0.248252
C21   C     C_R   0.784945 0.452806 0.165716 -0.163294
C22   C     C_R   0.165708 0.597375 0.907965 -0.259582
C23   C     C_R   0.243106 0.616296 0.024289 -0.131627
C24   C     C_R   0.367344 0.563170 0.071329 0.366492
H1    H     H_    0.804954 0.101369 0.469999 0.176250
H2    H     H_    0.189366 0.899070 0.505443 0.194892
H3    H     H_    0.567480 0.407112 0.440667 0.105610
H4    H     H_    0.431040 0.584501 0.569526 0.199323
H5    H     H_    0.316778 0.376902 0.399076 0.214810
H6    H     H_    0.488453 0.222320 0.820730 0.184375
H7    H     H_    0.725205 0.227234 0.957546 0.177119
H8    H     H_    0.652992 0.592435 0.160978 0.201394
H9    H     H_    0.074772 0.646157 0.871999 0.151893
H10   H     H_    0.206518 0.673436 0.078118 0.181784
H11   H     H_    0.270199 0.311469 0.750018 0.217061
N1    N     N_2   0.313640 0.446500 0.454900 -0.179725
N2    N     N_2   0.686360 0.553430 0.545150 0.085650
O1    O     O_R   0.936910 0.692950 0.509080 -0.540467
O2    O     O_R   0.138320 0.658600 0.480130 -0.610186
O3    O     O_R   0.002900 0.525670 0.675280 -0.646595
O4    O     O_R   0.204310 0.491320 0.646330 -0.617060
O5    O     O_R   0.861680 0.341400 0.519870 -0.641914
O6    O     O_R   0.063090 0.307050 0.490920 -0.534558
O7    O     O_R   0.795690 0.508680 0.353670 -0.590452
O8    O     O_R   0.997100 0.474330 0.324720 -0.555485
Zn1   Zn    Zn3+2 0.865520 0.522940 0.519330 1.010696
Zn2   Zn    Zn3+2 0.134480 0.477060 0.480670 1.028271
Cl1   Cl    Cl    0.963347 0.278485 0.156271 -0.603413
O9    O     O_3   0.837976 0.889505 0.430795 -0.575442
C25   C     C_3   0.795705 0.879093 0.309146 -0.223685
H12   H     H_    0.812203 0.970074 0.271571 0.159286
H13   H     H_    0.682238 0.847078 0.275285 0.216945
H14   H     H_    0.850696 0.809514 0.279999 0.137959
O10   O     O_3   0.675490 0.657449 0.600081 -0.529040
C26   C     C_3   0.788852 0.674142 0.703642 -0.082630
H15   H     H_    0.883985 0.717042 0.688087 0.188996
H16   H     H_    0.807328 0.586403 0.749978 0.129239
H17   H     H_    0.763815 0.739364 0.761510 0.132881
Cl2   Cl    Cl    0.439695 0.574932 0.223293 -0.662111
Cl3   Cl    Cl    0.193677 0.111529 0.603925 -0.683975

loop_
_geom_bond_atom_site_label_1
_geom_bond_atom_site_label_2
_ccdc_geom_bond_type
C16   H4    S    
C25   H13   S    
C23   C24   A    
C19   O8    A    
C26   H16   S    
C6    C7    A    
C11   H2    S    
C15   Cl3   S    
C14   C18   S    
C9    C20   A    
C2    C4    A    
C1    C11   S    
C4    C8    A    
C23   H10   S    
C26   H15   S    
C13   C15   S    
C8    C21   A    
O4    Zn2   S    
C3    C10   A    
C17   N2    D    
C18   O6    A    
C10   C22   A    
O3    Zn1   S    
C11   C13   D    
H5    N1    S    
C9    C21   A    
C12   O4    A    
C10   C12   S    
C1    O1    A    
N1    Zn2   S    
C24   Cl2   S    
C13   O9    S    
N2    O10   S    
C7    H11   S    
C19   C21   S    
O7    Zn1   S    
C2    C3    A    
C3    C7    A    
O8    Zn2   S    
C14   H1    S    
C2    C24   A    
C5    C6    A    
O1    Zn1   S    
C25   H14   S    
C1    O2    A    
C8    H8    S    
C19   O7    A    
C9    Cl1   S    
O2    Zn2   S    
O9    C25   S    
O5    Zn1   S    
C26   H17   S    
C5    C20   A    
C22   H9    S    
O10   C26   S    
C16   C17   S    
C12   O3    A    
C18   O5    A    
C25   H12   S    
N2    Zn1   S    
C14   C15   D    
O6    Zn2   S    
C6    H6    S    
C22   C23   A    
C16   N1    D    
C4    C5    A    
C20   H7    S    
C17   H3    S    
