data_mof_unit_16335.cif
_audit_creation_date              2012-12-10T17:18:56-0500
_audit_creation_method            fapswitch 2.2
_symmetry_space_group_name_H-M    P1
_symmetry_Int_Tables_number       1
_space_group_crystal_system       triclinic
_cell_length_a                    9.591377
_cell_length_b                    10.857893
_cell_length_c                    13.553685
_cell_angle_alpha                 94.036209
_cell_angle_beta                  73.197698
_cell_angle_gamma                 89.271551
_cell_volume                      1347.09005489

loop_
_atom_site_label
_atom_site_type_symbol
_atom_type_description
_atom_site_fract_x
_atom_site_fract_y
_atom_site_fract_z
_atom_type_partial_charge
C1    C     C_R   0.498789 0.737991 0.497312 0.799623
C2    C     C_R   0.453736 0.532023 0.973610 0.000925
C3    C     C_R   0.488476 0.490036 0.867598 0.029401
C4    C     C_R   0.558094 0.510244 0.026875 -0.013966
C5    C     C_R   0.705262 0.484117 0.970986 0.094258
C6    C     C_R   0.739669 0.445036 0.866684 -0.214960
C7    C     C_R   0.629231 0.435154 0.819263 -0.178064
C8    C     C_R   0.516512 0.490065 0.132504 0.458538
C9    C     C_R   0.770298 0.497134 0.130699 -0.200290
C10   C     C_R   0.382850 0.506451 0.813426 -0.092870
C11   C     C_R   0.224337 0.893216 0.509620 -0.159122
C12   C     C_R   0.423394 0.496923 0.699490 0.783190
C13   C     C_R   0.092456 0.959963 0.549886 -0.162775
C14   C     C_R   0.090172 0.077990 0.596843 -0.122040
C15   C     C_R   0.220870 0.133791 0.594157 -0.149534
C16   C     C_R   0.356233 0.070823 0.545305 0.085440
C17   C     C_R   0.357519 0.943200 0.517080 0.103526
C18   C     C_R   0.491757 0.873300 0.497653 -0.106372
C19   C     C_R   0.621318 0.935001 0.490313 -0.207202
C20   C     C_R   0.621163 0.062361 0.499050 -0.174090
C21   C     C_R   0.490335 0.131403 0.522524 -0.121951
C22   C     C_R   0.911247 0.291631 0.394381 0.364363
C23   C     C_R   0.496422 0.263967 0.509675 0.823639
C24   C     C_R   0.002685 0.185875 0.372474 -0.236004
C25   C     C_R   0.147922 0.197216 0.363879 -0.266222
C26   C     C_R   0.196817 0.310866 0.388322 -0.092761
C27   C     C_R   0.099743 0.405793 0.444973 0.186632
C28   C     C_R   0.949881 0.402142 0.445765 0.115117
C29   C     C_R   0.903141 0.590122 0.552832 -0.050503
C30   C     C_R   0.050568 0.589221 0.553766 -0.074167
C31   C     C_R   0.577476 0.498622 0.300277 0.892133
C32   C     C_R   0.811866 0.483013 0.023011 -0.208394
C33   C     C_R   0.621926 0.496356 0.186740 -0.150347
C34   C     C_R   0.243145 0.554464 0.867577 -0.285765
C35   C     C_R   0.212411 0.600863 0.969856 -0.225928
C36   C     C_R   0.318070 0.596166 0.021689 0.444146
Cu1   Cu    Cu3+1 0.359340 0.500010 0.500010 0.960835
Cu2   Cu    Cu3+1 0.640660 0.499990 0.499990 0.978736
H1    H     H_    0.854210 0.499555 0.169724 0.212034
H2    H     H_    0.218470 0.806087 0.468381 0.189696
H3    H     H_    0.991708 0.919454 0.545293 0.130963
H4    H     H_    0.987491 0.128303 0.631611 0.129076
H5    H     H_    0.214530 0.225870 0.631521 0.151471
H6    H     H_    0.724351 0.106647 0.486626 0.171359
H7    H     H_    0.829184 0.663803 0.596513 0.136519
H8    H     H_    0.969829 0.100125 0.341063 0.200010
H9    H     H_    0.224507 0.121153 0.329205 0.188172
H10   H     H_    0.311354 0.321491 0.360756 0.215432
H11   H     H_    0.849093 0.411525 0.824388 0.139810
H12   H     H_    0.086248 0.661748 0.598757 0.133219
H13   H     H_    0.926121 0.468466 0.980795 0.152646
H14   H     H_    0.160918 0.566887 0.828295 0.177212
H15   H     H_    0.107985 0.647421 0.007228 0.183799
H16   H     H_    0.657578 0.383418 0.744958 0.170727
H17   H     H_    0.724628 0.884811 0.475258 0.164292
N1    N     N_R   0.852480 0.498790 0.499000 -0.189320
N2    N     N_R   0.148360 0.498710 0.498970 -0.190529
O1    O     O_R   0.381190 0.680360 0.500010 -0.596236
O2    O     O_R   0.618760 0.680340 0.500000 -0.585385
O3    O     O_R   0.323240 0.499990 0.650990 -0.592524
O4    O     O_R   0.560820 0.499960 0.650980 -0.593828
O5    O     O_R   0.381240 0.319660 0.500000 -0.620913
O6    O     O_R   0.618810 0.319640 0.499990 -0.556885
O7    O     O_R   0.439180 0.500040 0.349020 -0.548820
O8    O     O_R   0.676760 0.500010 0.349010 -0.530548
Cl1   Cl    Cl    0.807918 0.281481 0.306523 -0.663363
O9    O     O_3   0.377345 0.451091 0.179546 -0.542709
C37   C     C_3   0.358483 0.330850 0.137419 0.033054
H18   H     H_    0.431574 0.304914 0.058099 0.130487
H19   H     H_    0.381799 0.261369 0.187150 0.148504
C38   C     C_3   0.202051 0.319931 0.133094 -0.693275
H20   H     H_    0.187182 0.367048 0.066683 0.224860
H21   H     H_    0.176696 0.221116 0.123401 0.217729
H22   H     H_    0.124653 0.363191 0.204946 0.282260
Cl2   Cl    Cl    0.281607 0.688481 0.139600 -0.606171

loop_
_geom_bond_atom_site_label_1
_geom_bond_atom_site_label_2
_ccdc_geom_bond_type
C16   C21   A    
C35   H15   S    
C19   C20   A    
C4    C8    A    
C13   H3    S    
Cu1   O5    S    
C28   N1    A    
C26   C27   A    
Cu1   Cu2   S    
C18   C19   A    
C3    C7    A    
C1    O2    A    
C5    C6    A    
C19   H17   S    
C15   C16   A    
C30   N2    A    
C9    H1    S    
C34   C35   A    
C22   Cl1   S    
C9    C32   A    
C23   O5    A    
C35   C36   A    
C37   H18   S    
C31   C33   S    
C25   H9    S    
Cu1   O1    S    
C26   H10   S    
C14   H4    S    
C5    C32   A    
C23   O6    A    
C30   H12   S    
C22   C28   A    
C13   C14   A    
C9    C33   A    
C20   H6    S    
O9    C37   S    
C24   C25   A    
C27   N2    A    
C38   H21   S    
C16   C17   A    
C25   C26   A    
C29   H7    S    
C2    C4    A    
C32   H13   S    
C29   C30   A    
C36   Cl2   S    
Cu2   O8    S    
C17   C18   A    
C1    C18   S    
C10   C34   A    
C10   C12   S    
C21   C23   S    
C22   C24   A    
Cu1   O7    S    
Cu2   O6    S    
C2    C36   A    
C31   O8    A    
C11   C17   A    
C31   O7    A    
C4    C5    A    
C38   H22   S    
C6    C7    A    
C29   N1    A    
C34   H14   S    
C24   H8    S    
Cu2   O4    S    
C2    C3    A    
C15   H5    S    
C38   H20   S    
C3    C10   A    
C1    O1    A    
C12   O4    A    
C11   C13   A    
C37   C38   S    
C8    C33   A    
C6    H11   S    
C11   H2    S    
Cu1   O3    S    
Cu2   O2    S    
C12   O3    A    
Cu2   N1    S    
C20   C21   A    
C8    O9    S    
C37   H19   S    
C27   C28   A    
C14   C15   A    
C7    H16   S    
Cu1   N2    S    
