data_mof_unit_28963.cif
_audit_creation_date              2012-10-26T21:21:54-0400
_audit_creation_method            fapswitch 2.2
_symmetry_space_group_name_H-M    P1
_symmetry_Int_Tables_number       1
_space_group_crystal_system       triclinic
_cell_length_a                    18.126516
_cell_length_b                    18.59264
_cell_length_c                    11.77864
_cell_angle_alpha                 89.999238
_cell_angle_beta                  74.371718
_cell_angle_gamma                 90.000045
_cell_volume                      3822.87617714

loop_
_atom_site_label
_atom_site_type_symbol
_atom_type_description
_atom_site_fract_x
_atom_site_fract_y
_atom_site_fract_z
_atom_type_partial_charge
C1    C     C_R   0.399163 0.100094 0.522391 0.620714
C2    C     C_R   0.463896 0.003896 0.040725 -0.136411
C3    C     C_R   0.036104 0.503896 0.959275 -0.136408
C4    C     C_R   0.963856 0.503454 0.040773 -0.140177
C5    C     C_R   0.407750 0.997767 0.873738 0.323503
C6    C     C_R   0.592232 0.997309 0.126256 0.317368
C7    C     C_R   0.907768 0.497308 0.873744 0.317369
C8    C     C_R   0.092250 0.497769 0.126261 0.323523
C9    C     C_R   0.400189 0.001284 0.996649 0.435116
C10   C     C_R   0.599812 0.000073 0.003301 0.438133
C11   C     C_R   0.900188 0.500074 0.996699 0.438138
C12   C     C_R   0.600541 0.899700 0.477784 0.623520
C13   C     C_R   0.099810 0.501285 0.003351 0.435130
C14   C     C_R   0.543408 0.003018 0.835028 0.574986
C15   C     C_R   0.456619 0.003413 0.164948 0.574619
C16   C     C_R   0.043380 0.503413 0.835051 0.574609
C17   C     C_R   0.956591 0.503017 0.164972 0.574983
C18   C     C_R   0.656762 0.158057 0.463882 0.008395
C19   C     C_R   0.344965 0.840703 0.534760 0.004603
C20   C     C_R   0.343471 0.158235 0.536004 -0.001246
C21   C     C_R   0.655094 0.840736 0.465171 0.005705
C22   C     C_R   0.156532 0.658232 0.463992 -0.001242
C23   C     C_R   0.600885 0.100061 0.477588 0.620141
C24   C     C_R   0.844906 0.340736 0.534830 0.005701
C25   C     C_R   0.843240 0.658058 0.536116 0.008393
C26   C     C_R   0.155037 0.340705 0.465239 0.004610
C27   C     C_R   0.291166 0.729422 0.628409 0.220772
C28   C     C_R   0.714272 0.267067 0.366117 0.223114
C29   C     C_R   0.709811 0.730071 0.370237 0.215821
C30   C     C_R   0.287183 0.268066 0.632361 0.278927
C31   C     C_R   0.790195 0.230065 0.629758 0.215819
C32   C     C_R   0.212830 0.768060 0.367627 0.278916
C33   C     C_R   0.208839 0.229427 0.371588 0.220807
C34   C     C_R   0.399464 0.899701 0.522207 0.624229
C35   C     C_R   0.785730 0.767066 0.633882 0.223065
C36   C     C_R   0.342768 0.786483 0.617406 0.340680
C37   C     C_R   0.662445 0.210225 0.376740 0.316795
C38   C     C_R   0.658080 0.787038 0.381373 0.340318
C39   C     C_R   0.338750 0.210993 0.621927 0.327661
C40   C     C_R   0.841924 0.287033 0.618624 0.340313
C41   C     C_R   0.161260 0.710989 0.378062 0.327657
C42   C     C_R   0.157237 0.286488 0.382591 0.340666
C43   C     C_R   0.837557 0.710224 0.623258 0.316790
C44   C     C_R   0.297402 0.837940 0.459600 0.373465
C45   C     C_R   0.899116 0.600061 0.522411 0.620139
C46   C     C_R   0.703447 0.161118 0.540391 0.364559
C47   C     C_R   0.701979 0.837492 0.541314 0.367556
C48   C     C_R   0.296177 0.160923 0.460409 0.363660
C49   C     C_R   0.798020 0.337493 0.458688 0.367566
C50   C     C_R   0.203825 0.660920 0.539589 0.363626
C51   C     C_R   0.202603 0.337944 0.540395 0.373465
C52   C     C_R   0.796555 0.661120 0.459606 0.364559
C53   C     C_R   0.253306 0.776477 0.455362 -0.123431
C54   C     C_R   0.748957 0.221835 0.542921 -0.134660
C55   C     C_R   0.746089 0.776033 0.545259 -0.121026
C56   C     C_R   0.100536 0.399702 0.477793 0.624233
C57   C     C_R   0.250784 0.221697 0.457609 -0.140408
C58   C     C_R   0.753912 0.276033 0.454741 -0.121020
C59   C     C_R   0.249221 0.721692 0.542388 -0.140429
C60   C     C_R   0.246702 0.276482 0.544631 -0.123435
C61   C     C_R   0.751047 0.721838 0.457077 -0.134659
C62   C     C_R   0.100837 0.600094 0.477608 0.620712
C63   C     C_R   0.899459 0.399699 0.522217 0.623525
C64   C     C_R   0.536144 0.003454 0.959226 -0.140176
Cu1   Cu    Cu3+1 0.507800 0.000000 0.383250 1.271974
Cu2   Cu    Cu3+1 0.492200 0.000000 0.616750 1.273992
Cu3   Cu    Cu3+1 0.007800 0.500000 0.383250 1.273986
Cu4   Cu    Cu3+1 0.992200 0.500000 0.616750 1.271967
F1    F     F_    0.386450 0.004309 0.243193 -0.408409
F2    F     F_    0.793197 0.396863 0.394141 -0.471809
F3    F     F_    0.793054 0.602020 0.393893 -0.466826
F4    F     F_    0.208011 0.397748 0.603633 -0.472450
F5    F     F_    0.616593 0.205768 0.302774 -0.570233
F6    F     F_    0.392110 0.788990 0.686097 -0.536566
F7    F     F_    0.385408 0.206906 0.694716 -0.558086
F8    F     F_    0.609395 0.789948 0.311650 -0.536837
F9    F     F_    0.114605 0.706902 0.305268 -0.558091
F10   F     F_    0.890611 0.289942 0.688342 -0.536838
F11   F     F_    0.883410 0.705766 0.697223 -0.570230
F12   F     F_    0.613581 0.003608 0.756795 -0.400739
F13   F     F_    0.107896 0.288997 0.313897 -0.536574
F14   F     F_    0.330062 0.996574 0.074945 -0.460830
F15   F     F_    0.669884 0.993878 0.925106 -0.419677
F16   F     F_    0.830116 0.493882 0.074895 -0.419659
F17   F     F_    0.169939 0.496578 0.925056 -0.460901
F18   F     F_    0.886419 0.503608 0.243205 -0.400740
F19   F     F_    0.113550 0.504308 0.756807 -0.408449
F20   F     F_    0.706947 0.102016 0.606106 -0.466829
F21   F     F_    0.291993 0.897745 0.396361 -0.472391
F22   F     F_    0.292049 0.101445 0.395860 -0.466497
F23   F     F_    0.706800 0.896860 0.605866 -0.471828
F24   F     F_    0.207949 0.601442 0.604144 -0.466524
H1    H     H_    0.801094 0.986541 0.060994 0.384496
H2    H     H_    0.632324 0.389292 0.304320 0.349382
H3    H     H_    0.841543 0.707454 0.168129 0.336967
H4    H     H_    0.305312 0.431259 0.795777 0.420339
H5    H     H_    0.199017 0.982438 0.939552 0.377328
H6    H     H_    0.300995 0.482531 0.060496 0.377362
H7    H     H_    0.698896 0.486555 0.938936 0.384470
H8    H     H_    0.658472 0.207442 0.831881 0.336969
H9    H     H_    0.194597 0.931191 0.204120 0.420184
H10   H     H_    0.339434 0.205692 0.168133 0.336632
H11   H     H_    0.867647 0.889299 0.695582 0.349407
H12   H     H_    0.160559 0.705688 0.831758 0.336587
N1    N     N_R   0.519530 0.000000 0.207810 -0.314265
N2    N     N_R   0.480470 0.000000 0.792190 -0.314665
N3    N     N_R   0.019530 0.500000 0.207810 -0.314671
N4    N     N_R   0.980470 0.500000 0.792190 -0.314259
O1    O     O_R   0.430030 0.075530 0.417420 -0.435231
O2    O     O_R   0.583140 0.924490 0.385390 -0.445002
O3    O     O_R   0.583140 0.075510 0.385390 -0.450054
O4    O     O_R   0.416860 0.924490 0.614610 -0.443738
O5    O     O_R   0.916860 0.575510 0.614610 -0.450050
O6    O     O_R   0.083140 0.424490 0.385390 -0.443743
O7    O     O_R   0.083140 0.575510 0.385390 -0.451316
O8    O     O_R   0.916860 0.424490 0.614610 -0.444997
O9    O     O_2   0.691193 0.005312 0.273944 -0.258149
O10   O     O_2   0.691380 0.897621 0.156203 -0.200765
O11   O     O_3   0.755127 0.013417 0.054891 -0.371751
O12   O     O_R   0.569970 0.924470 0.582580 -0.428433
O13   O     O_2   0.308628 0.005619 0.726748 -0.252351
O14   O     O_2   0.310671 0.896824 0.841086 -0.209607
O15   O     O_3   0.244162 0.010564 0.945865 -0.394398
O16   O     O_2   0.191370 0.505618 0.273258 -0.252389
O17   O     O_2   0.189354 0.396840 0.158877 -0.209557
O18   O     O_3   0.255829 0.510605 0.054146 -0.394401
O19   O     O_2   0.808806 0.505312 0.726059 -0.258185
O20   O     O_2   0.808632 0.397613 0.843781 -0.200743
O21   O     O_3   0.744869 0.513395 0.945114 -0.371739
O22   O     O_2   0.815970 0.103633 0.722624 -0.072415
O23   O     O_R   0.569970 0.075530 0.582580 -0.435824
O24   O     O_2   0.807222 0.208571 0.850096 -0.126752
O25   O     O_3   0.681767 0.159011 0.816310 -0.387014
O26   O     O_2   0.312679 0.837200 0.189709 -0.152699
O27   O     O_2   0.198188 0.788979 0.146117 -0.160952
O28   O     O_3   0.182815 0.902646 0.277827 -0.378981
O29   O     O_2   0.182039 0.102449 0.281380 -0.092121
O30   O     O_2   0.190169 0.206654 0.152534 -0.128479
O31   O     O_3   0.316099 0.157346 0.184951 -0.383901
O32   O     O_2   0.684053 0.834123 0.811966 -0.119345
O33   O     O_2   0.797805 0.786382 0.857591 -0.152694
O34   O     O_R   0.430030 0.924470 0.417420 -0.429748
O35   O     O_3   0.812899 0.901408 0.729259 -0.328850
O36   O     O_2   0.317964 0.602442 0.718618 -0.092186
O37   O     O_2   0.309839 0.706646 0.847462 -0.128431
O38   O     O_3   0.183906 0.657340 0.815052 -0.383860
O39   O     O_2   0.815949 0.334132 0.188039 -0.119350
O40   O     O_2   0.702203 0.286386 0.142405 -0.152734
O41   O     O_3   0.687098 0.401409 0.270742 -0.328782
O42   O     O_2   0.684039 0.603645 0.277353 -0.072398
O43   O     O_2   0.692798 0.708591 0.149889 -0.126757
O44   O     O_3   0.818246 0.659024 0.183690 -0.387033
O45   O     O_R   0.930030 0.575530 0.417420 -0.435825
O46   O     O_2   0.187348 0.337212 0.810281 -0.152759
O47   O     O_2   0.301846 0.288997 0.853858 -0.160854
O48   O     O_3   0.317212 0.402655 0.722126 -0.379079
O49   O     O_R   0.069970 0.424470 0.582580 -0.429744
O50   O     O_R   0.069970 0.575530 0.582580 -0.435235
O51   O     O_R   0.930030 0.424470 0.417420 -0.428438
O52   O     O_R   0.416860 0.075510 0.614610 -0.451321
S1    S     S_3+6 0.681766 0.977931 0.159405 0.162234
S2    S     S_3+6 0.731344 0.321676 0.236746 0.229231
S3    S     S_3+6 0.724179 0.674238 0.242666 0.238490
S4    S     S_3+6 0.271703 0.323840 0.760171 0.215586
S5    S     S_3+6 0.318477 0.977288 0.840493 0.152279
S6    S     S_3+6 0.181526 0.477301 0.159504 0.152296
S7    S     S_3+6 0.818236 0.477924 0.840594 0.162228
S8    S     S_3+6 0.775833 0.174226 0.757323 0.238494
S9    S     S_3+6 0.228322 0.823829 0.239807 0.215576
S10   S     S_3+6 0.222207 0.172853 0.245047 0.232703
S11   S     S_3+6 0.768658 0.821672 0.763254 0.229221
S12   S     S_3+6 0.277798 0.672846 0.754951 0.232702

loop_
_geom_bond_atom_site_label_1
_geom_bond_atom_site_label_2
_ccdc_geom_bond_type
C32   S9    S    
O10   S1    D    
C8    C13   A    
O38   S12   S    
O30   S10   D    
C34   O4    A    
C29   S3    S    
C63   O51   A    
C25   C43   A    
Cu2   O52   S    
C53   C59   A    
C28   S2    S    
C48   C57   A    
C38   F8    S    
C19   C44   A    
H2    O41   S    
C7    C11   A    
O42   S3    D    
C50   C59   A    
O46   S4    D    
C18   C37   A    
C63   O8    A    
C52   C61   A    
C17   N3    A    
C41   F9    S    
C22   C41   A    
C43   F11   S    
C30   S4    S    
C10   F15   S    
O33   S11   D    
C35   S11   S    
C31   C40   A    
O31   S10   S    
C55   C61   A    
Cu3   O7    S    
Cu1   O3    S    
C37   F5    S    
C1    O1    A    
O36   S12   D    
C12   O12   A    
C44   C53   A    
C3    C16   A    
C21   C38   A    
O26   S9    D    
C30   C60   A    
C29   C38   A    
O20   S7    D    
C32   C41   A    
C62   O50   A    
C14   F12   S    
C35   C43   A    
C3    C13   A    
Cu4   O5    S    
C22   C50   A    
O37   S12   D    
O14   S5    D    
Cu2   O12   S    
H1    O11   S    
O11   S1    S    
C42   F13   S    
Cu2   N2    S    
Cu4   O50   S    
C33   S10   S    
C18   C46   A    
Cu1   N1    S    
C2    C64   A    
C46   F20   S    
C5    N2    A    
C15   F1    S    
C29   C61   A    
H7    O21   S    
C35   C55   A    
Cu3   Cu4   S    
H12   O38   S    
O25   S8    S    
C20   C39   A    
O21   S7    S    
C57   C60   A    
O9    S1    D    
C12   C21   S    
C19   C34   S    
C49   C58   A    
C17   F18   S    
C26   C56   S    
C5    C9    A    
C56   O49   A    
C45   O5    A    
C22   C62   S    
C18   C23   S    
C6    S1    S    
H6    O18   S    
C14   C64   A    
C46   C54   A    
C23   O23   A    
C31   S8    S    
C4    C11   A    
C2    C15   A    
Cu1   O1    S    
O29   S10   D    
C20   C48   A    
C36   F6    S    
Cu4   O8    S    
O16   S6    D    
C4    C17   A    
C50   F24   S    
C24   C63   S    
C5    S5    S    
C49   F2    S    
C11   F16   S    
C40   F10   S    
C51   C60   A    
C45   O45   A    
C51   F4    S    
C33   C42   A    
Cu4   O49   S    
C8    N3    A    
C25   C45   S    
C32   C53   A    
C23   O3    A    
H8    O25   S    
C26   C42   A    
C47   C55   A    
Cu2   O23   S    
C54   C58   A    
H9    O28   S    
C24   C49   A    
C7    S7    S    
C34   O34   A    
C1    C20   S    
C33   C57   A    
C47   F23   S    
Cu3   O6    S    
C1    O52   A    
C10   C64   A    
O24   S8    D    
O18   S6    S    
O39   S2    D    
H11   O35   S    
C6    C10   A    
Cu3   O51   S    
H3    O44   S    
C28   C58   A    
O47   S4    D    
O32   S11   D    
O13   S5    D    
C9    F14   S    
O43   S3    D    
Cu3   O45   S    
C19   C36   A    
C27   C36   A    
O40   S2    D    
C15   N1    A    
O17   S6    D    
C25   C52   A    
O35   S11   S    
C62   O7    A    
H5    O15   S    
C52   F3    S    
C27   C59   A    
C26   C51   A    
Cu1   O34   S    
Cu3   N3    S    
H4    O48   S    
C28   C37   A    
C12   O2    A    
C8    S6    S    
C24   C40   A    
C6    N1    A    
C30   C39   A    
H10   O31   S    
O27   S9    D    
C31   C54   A    
Cu1   O2    S    
O44   S3    S    
C16   N4    A    
O15   S5    S    
O22   S8    D    
C14   N2    A    
C16   F19   S    
O28   S9    S    
O48   S4    S    
O19   S7    D    
Cu1   Cu2   S    
C13   F17   S    
C56   O6    A    
C7    N4    A    
C48   F22   S    
O41   S2    S    
Cu4   N4    S    
Cu2   O4    S    
C2    C9    A    
C27   S12   S    
C39   F7    S    
C44   F21   S    
C3    C4    A    
C21   C47   A    
