data_mof_unit_45429.cif
_audit_creation_date              2012-12-10T17:59:19-0500
_audit_creation_method            fapswitch 2.2
_symmetry_space_group_name_H-M    P1
_symmetry_Int_Tables_number       1
_space_group_crystal_system       triclinic
_cell_length_a                    10.833981
_cell_length_b                    9.507879
_cell_length_c                    10.733886
_cell_angle_alpha                 90.15081
_cell_angle_beta                  90.283212
_cell_angle_gamma                 90.052922
_cell_volume                      1105.66024322

loop_
_atom_site_label
_atom_site_type_symbol
_atom_type_description
_atom_site_fract_x
_atom_site_fract_y
_atom_site_fract_z
_atom_type_partial_charge
C1    C     C_R   0.261897 0.499804 0.499222 0.847335
C2    C     C_3   0.621457 0.428259 0.926274 -0.487090
C3    C     C_R   0.062725 0.378794 0.538500 0.431355
C4    C     C_R   0.062508 0.616483 0.450369 0.443085
C5    C     C_R   0.934479 0.381495 0.540217 -0.289803
C6    C     C_R   0.934398 0.616836 0.453733 -0.258571
C7    C     C_R   0.870825 0.499624 0.497844 -0.153420
C8    C     C_R   0.127482 0.498796 0.496799 -0.242035
C9    C     C_R   0.432460 0.074128 0.414111 -0.005201
C10   C     C_R   0.432493 0.925253 0.414118 -0.006500
C11   C     C_R   0.567875 0.925873 0.585745 -0.030061
C12   C     C_R   0.567918 0.074779 0.585714 -0.021132
C13   C     C_R   0.500706 0.499885 0.259694 0.823572
C14   C     C_R   0.737628 0.500024 0.499595 0.872586
C15   C     C_R   0.500474 0.500354 0.740243 0.782551
C16   C     C_3   0.502802 0.652869 0.071588 -0.449577
C17   C     C_3   0.387830 0.423059 0.070795 -0.468523
C18   C     C_3   0.500617 0.653699 0.929200 -0.394952
C19   C     C_3   0.388276 0.421161 0.927596 -0.370128
C20   C     C_3   0.625118 0.423156 0.073978 0.947055
C21   C     C_3   0.504856 0.499118 0.121379 0.074942
C22   C     C_3   0.502473 0.500961 0.878154 0.077095
Cu1   Cu    Cu3+1 0.500020 0.640660 0.500000 0.954844
Cu2   Cu    Cu3+1 0.500020 0.359340 0.500000 0.970558
H1    H     H_    0.585098 0.712097 0.105489 0.206532
H2    H     H_    0.382696 0.313327 0.106180 0.203803
H3    H     H_    0.622410 0.869973 0.654219 0.114700
H4    H     H_    0.622531 0.131194 0.654139 0.110733
H5    H     H_    0.419588 0.709088 0.106413 0.175860
H6    H     H_    0.303482 0.478106 0.103945 0.150670
H7    H     H_    0.416154 0.709239 0.896191 0.187326
H8    H     H_    0.302139 0.470713 0.891690 0.167020
H9    H     H_    0.582057 0.713310 0.894653 0.171869
H10   H     H_    0.389150 0.310190 0.894273 0.193805
H11   H     H_    0.700649 0.482373 0.882810 0.124504
H12   H     H_    0.623663 0.319188 0.888600 0.165586
H13   H     H_    0.884782 0.292336 0.577793 0.164895
H14   H     H_    0.884938 0.708515 0.420502 0.176656
H15   H     H_    0.378138 0.130003 0.345457 0.111690
H16   H     H_    0.378524 0.868854 0.345326 0.131861
N1    N     N_R   0.500030 0.852070 0.500030 -0.159320
N2    N     N_R   0.500030 0.147930 0.500030 -0.152953
O1    O     O_R   0.319660 0.618740 0.499990 -0.539005
O2    O     O_R   0.319660 0.381260 0.499990 -0.553365
O3    O     O_R   0.499990 0.618790 0.317690 -0.600533
O4    O     O_R   0.499990 0.381210 0.317690 -0.558270
O5    O     O_R   0.680370 0.618830 0.500010 -0.590127
O6    O     O_R   0.680370 0.381170 0.500010 -0.584814
O7    O     O_R   0.500030 0.618780 0.682310 -0.598647
O8    O     O_R   0.500030 0.381220 0.682310 -0.590235
O9    O     O_3   0.726144 0.492629 0.136612 -0.613191
C23   C     C_3   0.833121 0.518449 0.065780 -0.433976
H17   H     H_    0.820300 0.613853 0.007670 0.174911
H18   H     H_    0.861640 0.426710 0.008817 0.163872
H19   H     H_    0.910290 0.540817 0.131133 0.195766
O10   O     O_3   0.616452 0.280195 0.113681 -0.602253
C24   C     C_3   0.729830 0.207470 0.108439 -0.293513
H20   H     H_    0.796209 0.248651 0.178863 0.204896
H21   H     H_    0.769988 0.208804 0.013526 0.129117
H22   H     H_    0.712442 0.095715 0.132068 0.172420
O11   O     O_3   0.124769 0.265214 0.589633 -0.568276
C25   C     C_3   0.111207 0.147624 0.510119 -0.244110
H23   H     H_    0.173173 0.062847 0.543755 0.201741
H24   H     H_    0.138579 0.172559 0.412712 0.136900
H25   H     H_    0.015346 0.105986 0.512160 0.150292
O12   O     O_3   0.123753 0.734248 0.407101 -0.563220
C26   C     C_3   0.124047 0.730020 0.275771 -0.363351
H26   H     H_    0.169645 0.632938 0.240559 0.141427
H27   H     H_    0.177422 0.821302 0.241026 0.172047
H28   H     H_    0.028914 0.738947 0.237170 0.160272

loop_
_geom_bond_atom_site_label_1
_geom_bond_atom_site_label_2
_ccdc_geom_bond_type
C2    H11   S    
C2    C22   S    
C12   N2    A    
C11   C12   A    
C6    H14   S    
C16   C21   S    
Cu1   O3    S    
C5    H13   S    
C7    C14   S    
C1    C8    S    
Cu2   N2    S    
C9    C10   A    
C6    C7    A    
C1    O2    A    
C25   H24   S    
Cu1   N1    S    
C23   H19   S    
C4    C8    A    
C20   O10   S    
C26   H28   S    
Cu2   O4    S    
C3    O11   S    
O12   C26   S    
C24   H20   S    
C13   C21   S    
C23   H17   S    
O10   C24   S    
C10   N1    A    
C4    O12   S    
C17   H6    S    
C9    N2    A    
C25   H23   S    
C12   H4    S    
C17   H2    S    
C16   C18   S    
C17   C19   S    
C23   H18   S    
C11   H3    S    
C11   N1    A    
C20   O9    S    
C15   O7    A    
Cu2   O8    S    
O11   C25   S    
Cu2   O2    S    
C18   H9    S    
C24   H21   S    
Cu1   O5    S    
C19   H8    S    
Cu1   Cu2   S    
C2    C20   S    
O9    C23   S    
Cu2   O6    S    
C9    H15   S    
C19   C22   S    
Cu1   O7    S    
C20   C21   S    
C13   O3    A    
C4    C6    A    
C3    C8    A    
C15   O8    A    
C2    H12   S    
C16   H1    S    
C5    C7    A    
C10   H16   S    
C13   O4    A    
C24   H22   S    
C14   O6    A    
C18   H7    S    
C25   H25   S    
C26   H27   S    
C16   H5    S    
C18   C22   S    
C14   O5    A    
C1    O1    A    
C15   C22   S    
C17   C21   S    
C26   H26   S    
C3    C5    A    
C19   H10   S    
Cu1   O1    S    
