data_mof_unit_59922.cif
_audit_creation_date              2013-03-05T15:44:35-0500
_audit_creation_method            fapswitch 2.2
_symmetry_space_group_name_H-M    P1
_symmetry_Int_Tables_number       1
_space_group_crystal_system       triclinic
_cell_length_a                    27.808234
_cell_length_b                    10.915652
_cell_length_c                    9.686811
_cell_angle_alpha                 89.938041
_cell_angle_beta                  89.808105
_cell_angle_gamma                 90.165734
_cell_volume                      2940.35255141

loop_
_atom_site_label
_atom_site_type_symbol
_atom_site_description
_atom_site_fract_x
_atom_site_fract_y
_atom_site_fract_z
_atom_type_partial_charge
O1    O     O_R   0.500010 0.321960 0.617040 -0.572823
O2    O     O_R   0.499990 0.321920 0.382900 -0.584044
C1    C     C_R   0.499451 0.265293 0.500140 0.896923
O3    O     O_R   0.430270 0.500040 0.617060 -0.540897
O4    O     O_R   0.430260 0.500000 0.382910 -0.540848
C2    C     C_R   0.407697 0.500143 0.500132 0.986290
Cu1   Cu    Cu3+1 0.500010 0.500020 0.638630 1.016675
Cu2   Cu    Cu3+1 0.499990 0.499980 0.361370 1.013537
O5    O     O_R   0.500010 0.678080 0.617100 -0.574491
O6    O     O_R   0.499990 0.678040 0.382960 -0.566399
O7    O     O_R   0.569740 0.500000 0.617090 -0.587581
O8    O     O_R   0.569730 0.499960 0.382940 -0.590688
C3    C     C_R   0.500824 0.734668 0.499994 0.912148
C4    C     C_R   0.592523 0.500569 0.499748 0.803344
C5    C     C_R   0.177271 0.423038 0.426421 0.564524
O9    O     O_2   0.201349 0.343364 0.345355 -0.509214
N1    N     N_R   0.202057 0.505642 0.505208 -0.452736
C6    C     C_R   0.178448 0.589778 0.585364 0.587754
C7    C     C_R   0.279677 0.609365 0.466124 -0.132887
C8    C     C_R   0.329942 0.609872 0.466241 0.346856
C9    C     C_R   0.328928 0.393783 0.534663 0.346467
C10   C     C_R   0.278708 0.397263 0.538659 -0.128768
C11   C     C_R   0.253882 0.504136 0.503612 0.173006
C12   C     C_R   0.101723 0.509263 0.506099 -0.095273
C13   C     C_R   0.126899 0.421224 0.428186 -0.021082
C14   C     C_R   0.101397 0.333957 0.352086 -0.124427
C15   C     C_R   0.127633 0.595901 0.585021 -0.031573
C16   C     C_R   0.354956 0.501262 0.500389 -0.304564
H1    H     H_    0.258468 0.316305 0.567463 0.218404
H2    H     H_    0.119945 0.266470 0.289796 0.193693
C17   C     C_R   0.645456 0.503443 0.498776 -0.093368
C18   C     C_R   0.974140 0.413268 0.442277 0.049952
C19   C     C_R   0.974630 0.612559 0.559585 -0.009387
C20   C     C_R   0.948990 0.514042 0.500346 0.081586
C21   C     C_R   0.947416 0.311347 0.395849 -0.183837
C22   C     C_R   0.897596 0.311003 0.400573 -0.080636
C23   C     C_R   0.872491 0.412694 0.450171 -0.001197
C24   C     C_R   0.897889 0.515827 0.499530 -0.086210
C25   C     C_R   0.872249 0.619787 0.548014 -0.152087
C26   C     C_R   0.821253 0.613113 0.549998 0.647646
N2    N     N_R   0.797917 0.512614 0.498875 -0.463444
C27   C     C_R   0.822248 0.412846 0.451767 0.624866
C28   C     C_R   0.721385 0.478298 0.617417 -0.123001
C29   C     C_R   0.671316 0.475273 0.618721 -0.180967
C30   C     C_R   0.670478 0.536030 0.377897 -0.274135
C31   C     C_R   0.720787 0.541404 0.376311 0.391817
C32   C     C_R   0.746336 0.510878 0.497031 0.230838
O10   O     O_2   0.797678 0.313744 0.407077 -0.503625
C33   C     C_R   0.025100 0.416991 0.433766 0.052184
C34   C     C_R   0.050623 0.510396 0.504471 0.077817
C35   C     C_R   0.025417 0.604982 0.573014 0.043927
C36   C     C_R   0.051505 0.331057 0.355560 -0.198017
H3    H     H_    0.652881 0.449832 0.713198 0.177599
H4    H     H_    0.740986 0.455335 0.710293 0.179789
H5    H     H_    0.878772 0.230211 0.364334 0.202729
H6    H     H_    0.964121 0.228414 0.359332 0.151759
H7    H     H_    0.034495 0.262690 0.291861 0.148125
O11   O     O_2   0.204247 0.666214 0.665782 -0.468220
C37   C     C_R   0.101940 0.684392 0.661660 0.177075
H8    H     H_    0.260163 0.691278 0.438053 0.217703
C38   C     C_R   0.948946 0.717811 0.599278 -0.253815
C39   C     C_R   0.898830 0.724720 0.591023 0.368580
O12   O     O_2   0.794691 0.703992 0.604368 -0.407606
C40   C     C_R   0.051797 0.688276 0.654481 -0.251884
H9    H     H_    0.967859 0.799241 0.630742 0.188298
H10   H     H_    0.650733 0.559024 0.285341 0.197302
H11   H     H_    0.034211 0.755614 0.718460 0.152300
C41   C     C_2   0.497103 0.933010 0.386863 -0.096085
C42   C     C_2   0.503309 0.866724 0.501831 -0.250848
H12   H     H_    0.490964 0.888193 0.288372 0.187711
H13   H     H_    0.511227 0.907892 0.600742 0.139923
C43   C     C_2   0.499401 0.067025 0.386498 -0.138810
C44   C     C_2   0.496683 0.133232 0.502588 -0.224432
H14   H     H_    0.502727 0.111868 0.286728 0.171360
H15   H     H_    0.490993 0.092017 0.602967 0.159284
C45   C     C_2   0.473874 0.425447 0.922531 -0.031575
N3    N     N_2   0.499480 0.498660 0.846910 -0.287359
H16   H     H_    0.451523 0.357887 0.871641 0.200545
H17   H     H_    0.519566 0.565612 0.893675 0.199916
C46   C     C_2   0.472542 0.428507 0.078215 -0.029178
N4    N     N_2   0.499460 0.498630 0.153040 -0.281935
H18   H     H_    0.447685 0.366804 0.129942 0.176414
H19   H     H_    0.524296 0.554284 0.105678 0.196476
S1    S     S_3+6 0.357882 0.252102 0.565313 0.011275
O13   O     O_2   0.387836 0.219759 0.441290 -0.313963
O14   O     O_2   0.389811 0.263184 0.689446 -0.311542
O15   O     O_3   0.317244 0.140268 0.593261 -0.497037
H20   H     H_    0.336567 0.065985 0.611890 0.403016
N5    N     N_3   0.126219 0.772188 0.746789 -0.488128
H21   H     H_    0.113580 0.762201 0.847984 0.229140
H22   H     H_    0.117033 0.859931 0.712594 0.230127
S2    S     S_3+6 0.872706 0.870151 0.627607 0.080685
O16   O     O_2   0.845751 0.863066 0.762134 -0.160575
O17   O     O_2   0.910591 0.968142 0.639398 -0.305959
O18   O     O_3   0.834501 0.909982 0.501063 -0.420195
H23   H     H_    0.853848 0.905887 0.415150 0.349978
S3    S     S_3+6 0.750969 0.588158 0.223768 0.051533
O19   O     O_2   0.715856 0.634380 0.118291 -0.272641
O20   O     O_2   0.785989 0.688811 0.257312 -0.218828
O21   O     O_3   0.781481 0.469416 0.156864 -0.482052
H24   H     H_    0.756784 0.405778 0.139439 0.358204
S4    S     S_3+6 0.360311 0.748894 0.428504 0.019918
O22   O     O_2   0.390831 0.783830 0.550036 -0.306406
O23   O     O_2   0.391877 0.731965 0.303792 -0.278872
O24   O     O_3   0.320790 0.861846 0.397105 -0.501883
H25   H     H_    0.340845 0.934780 0.376330 0.401017

loop_
_geom_bond_atom_site_label_1
_geom_bond_atom_site_label_2
_geom_bond_distance
_ccdc_geom_bond_type
O15   H20   0.990765 S    
C10   H1    1.082174 S    
N2    C27   1.362089 A    
O18   H23   0.990580 S    
C12   C15   1.413961 A    
C4    C17   1.472229 S    
S3    O19   1.503443 D    
Cu1   Cu2   2.685768 S    
C30   C31   1.400091 A    
Cu1   O7    1.949565 S    
C37   C40   1.397126 A    
N1    C11   1.441332 S    
C26   O12   1.345278 S    
C22   C23   1.397771 A    
C45   H16   1.083210 S    
O4    C2    1.295480 A    
O7    C4    1.299452 A    
C5    C13   1.400905 A    
C8    S4    1.771717 S    
C5    O9    1.350056 S    
S4    O24   1.682193 S    
C5    N1    1.368195 A    
C37   N5    1.433864 S    
C23   C27   1.397203 A    
C42   H13   1.081763 S    
O5    C3    1.291167 A    
S2    O16   1.502969 D    
S3    O20   1.502595 D    
S1    O13   1.502573 D    
C6    O11   1.348847 S    
C2    C16   1.466720 S    
C21   C22   1.385989 A    
C41   C42   1.339350 D    
C39   S2    1.783125 S    
S1    O15   1.682206 S    
N5    H22   1.045755 S    
C41   C43   1.464062 S    
Cu1   N3    2.017611 S    
O1    Cu1   1.955085 S    
C9    C10   1.397578 A    
C44   H15   1.081900 S    
C38   C39   1.398443 A    
O3    Cu1   1.951269 S    
C29   H3    1.083034 S    
N4    H19   1.025363 S    
N1    C6    1.370769 A    
N3    H17   1.025356 S    
C12   C34   1.421214 A    
C17   C29   1.402767 A    
C6    C15   1.414857 A    
Cu2   N4    2.018226 S    
C18   C21   1.410969 A    
C12   C13   1.408980 A    
C43   H14   1.086425 S    
C25   C26   1.419836 A    
C43   C44   1.339441 D    
C8    C16   1.415725 A    
C13   C14   1.398158 A    
S2    O18   1.682445 S    
O1    C1    1.291021 A    
C18   C20   1.420826 A    
C7    C11   1.399424 A    
C28   C29   1.392636 A    
C40   H11   1.079138 S    
C23   C24   1.411950 A    
C14   C36   1.387961 A    
C28   H4    1.083018 S    
C9    S1    1.770885 S    
Cu2   O8    1.951263 S    
C33   C36   1.412364 A    
S2    O17   1.503879 D    
C34   C35   1.414466 A    
N2    C32   1.434638 S    
C27   O10   1.350244 S    
C45   N3    1.293930 D    
S4    O23   1.502799 D    
O3    C2    1.296802 A    
C26   N2    1.367103 A    
C31   S3    1.770864 S    
O8    C4    1.298797 A    
C14   H2    1.083455 S    
S3    O21   1.680595 S    
Cu1   O5    1.954575 S    
C25   C39   1.424825 A    
C31   C32   1.410443 A    
C21   H6    1.078166 S    
C20   C24   1.421264 A    
C9    C16   1.415325 A    
Cu2   O6    1.955085 S    
O2    Cu2   1.954575 S    
C35   C40   1.410376 A    
C45   C46   1.508824 S    
S1    O14   1.501910 D    
C46   N4    1.293479 D    
O6    C3    1.292086 A    
O4    Cu2   1.949568 S    
C7    H8    1.082189 S    
C19   C35   1.421333 A    
O24   H25   0.990797 S    
C7    C8    1.397786 A    
O2    C1    1.292428 A    
C22   H5    1.083605 S    
C15   C37   1.413017 A    
C24   C25   1.421365 A    
C3    C42   1.443062 S    
O21   H24   0.990436 S    
C46   H18   1.084787 S    
C19   C20   1.412006 A    
S4    O22   1.502469 D    
C1    C44   1.443529 S    
C18   C33   1.419673 A    
C36   H7    1.078103 S    
C38   H9    1.076365 S    
C19   C38   1.407767 A    
C33   C34   1.418795 A    
C17   C30   1.404981 A    
C30   H10   1.082567 S    
C41   H12   1.086430 S    
C10   C11   1.399335 A    
N5    H21   1.045723 S    
C28   C32   1.400025 A    
