data_mof_unit_47286.cif
_audit_creation_date              2012-12-11T15:39:27-0500
_audit_creation_method            fapswitch 2.2
_symmetry_space_group_name_H-M    P1
_symmetry_Int_Tables_number       1
_space_group_crystal_system       triclinic
_cell_length_a                    14.304788
_cell_length_b                    14.831093
_cell_length_c                    33.230134
_cell_angle_alpha                 98.042224
_cell_angle_beta                  90.366851
_cell_angle_gamma                 118.724269
_cell_volume                      6099.5549252

loop_
_atom_site_label
_atom_site_type_symbol
_atom_type_description
_atom_site_fract_x
_atom_site_fract_y
_atom_site_fract_z
_atom_type_partial_charge
C1    C     C_R   0.617085 0.909877 0.437105 0.547383
C2    C     C_R   0.711899 0.436759 0.949409 0.544548
C3    C     C_R   0.562758 0.825369 0.776365 -0.120103
C4    C     C_R   0.571409 0.843153 0.736156 -0.116802
C5    C     C_R   0.604127 0.787307 0.707567 0.024503
C6    C     C_R   0.623343 0.710039 0.719053 -0.117250
C7    C     C_R   0.616436 0.693329 0.759478 -0.108626
C8    C     C_R   0.588586 0.752686 0.788769 0.031112
C9    C     C_R   0.562734 0.736973 0.632298 -0.119634
C10   C     C_R   0.566820 0.765702 0.593831 -0.123347
C11   C     C_R   0.696044 0.943993 0.622346 -0.124127
C12   C     C_3   0.283968 0.708105 0.287760 -0.014756
C13   C     C_R   0.709530 0.740130 0.950697 0.585676
C14   C     C_3   0.270384 0.628536 0.250740 -0.366782
C15   C     C_3   0.128082 0.561052 0.894296 -0.005892
C16   C     C_3   0.084883 0.453471 0.906113 -0.361506
C17   C     C_3   0.542385 0.496016 0.194290 -0.022821
C18   C     C_3   0.427774 0.452915 0.176591 -0.374621
C19   C     C_R   0.830298 0.444279 0.166174 -0.165164
C20   C     C_R   0.828096 0.456001 0.125322 -0.139547
C21   C     C_R   0.767166 0.347413 0.244616 -0.105580
C22   C     C_R   0.758827 0.330848 0.284989 -0.102934
C23   C     C_R   0.733335 0.392427 0.314008 0.026462
C24   C     C_R   0.722515 0.474692 0.302608 -0.103595
C25   C     C_R   0.731995 0.491890 0.262292 -0.058136
C26   C     C_R   0.750290 0.425808 0.232787 0.061496
C27   C     C_R   0.745148 0.434337 0.189322 0.037928
C28   C     C_R   0.611689 0.351133 0.370052 -0.115508
C29   C     C_R   0.594032 0.205188 0.456534 0.543861
C30   C     C_R   0.576885 0.304721 0.404709 -0.126662
C31   C     C_R   0.737699 0.289778 0.410794 -0.120274
C32   C     C_R   0.772014 0.335498 0.376089 -0.113043
C33   C     C_R   0.707661 0.363348 0.354711 0.028538
C34   C     C_R   0.637919 0.270355 0.424545 0.017742
C35   C     C_R   0.242946 0.876739 0.393575 -0.024422
C36   C     C_R   0.227870 0.956368 0.381424 -0.133839
C37   C     C_R   0.201851 0.953104 0.340504 -0.136982
C38   C     C_R   0.690316 0.915620 0.660844 -0.121530
C39   C     C_R   0.190817 0.870538 0.311170 0.055383
C40   C     C_R   0.200222 0.787726 0.323010 0.276968
C41   C     C_R   0.295233 0.892487 0.434445 0.546561
C42   C     C_R   0.223939 0.790170 0.364376 -0.114183
C43   C     C_R   0.192819 0.807358 0.163948 -0.107731
C44   C     C_R   0.166370 0.786324 0.121950 -0.121006
C45   C     C_R   0.087775 0.900058 0.129980 -0.126155
C46   C     C_R   0.113640 0.920384 0.172103 -0.107387
C47   C     C_R   0.162706 0.871017 0.189212 0.037537
C48   C     C_1   0.172412 0.876108 0.232590 0.000450
C49   C     C_R   0.621088 0.812792 0.666199 0.026975
C50   C     C_1   0.179499 0.875076 0.268605 0.038150
C51   C     C_R   0.109333 0.828807 0.104769 0.023685
C52   C     C_R   0.639001 0.875914 0.396069 -0.030968
C53   C     C_R   0.613923 0.905964 0.551775 0.542374
C54   C     C_R   0.554275 0.800160 0.368249 -0.149324
C55   C     C_R   0.569581 0.785828 0.326973 -0.182970
C56   C     C_R   0.669498 0.846212 0.313029 0.022937
C57   C     C_R   0.757625 0.915581 0.341038 0.288880
C58   C     C_R   0.741462 0.930287 0.382434 -0.102232
C59   C     C_R   0.784476 0.914007 0.176224 -0.098198
C60   C     C_R   0.630785 0.870194 0.588857 0.025266
C61   C     C_R   0.797822 0.903415 0.134548 -0.128526
C62   C     C_R   0.620316 0.752701 0.122068 -0.122714
C63   C     C_R   0.606919 0.763967 0.163647 -0.134066
C64   C     C_R   0.690500 0.842063 0.190854 0.033198
C65   C     C_R   0.589312 0.198607 0.571157 0.541017
C66   C     C_1   0.682918 0.843165 0.233830 0.006707
C67   C     C_1   0.677070 0.843345 0.269879 0.041837
C68   C     C_R   0.717645 0.819730 0.107333 0.029505
C69   C     C_R   0.620599 0.244965 0.614683 0.020286
C70   C     C_R   0.553097 0.271884 0.637876 -0.129066
C71   C     C_R   0.051974 0.781279 0.063871 0.534979
C72   C     C_R   0.567490 0.290782 0.680410 -0.117082
C73   C     C_R   0.649509 0.283331 0.700191 0.039578
C74   C     C_R   0.721272 0.263323 0.677439 -0.117304
C75   C     C_R   0.707266 0.244647 0.634892 -0.131108
C76   C     C_R   0.757382 0.330884 0.846399 -0.092302
C77   C     C_R   0.289842 0.887521 0.548775 0.545923
C78   C     C_R   0.768905 0.362275 0.888577 -0.098083
C79   C     C_R   0.589975 0.341368 0.885976 -0.127959
C80   C     C_R   0.578591 0.309814 0.843828 -0.116154
C81   C     C_R   0.663832 0.308642 0.823853 0.036543
C82   C     C_R   0.744440 0.487927 0.066481 0.549538
C83   C     C_1   0.659731 0.296807 0.780208 -0.031341
C84   C     C_1   0.656084 0.290602 0.743704 -0.031933
C85   C     C_R   0.687337 0.372961 0.908483 0.018653
C86   C     C_R   0.077053 0.758870 0.910363 0.029214
C87   C     C_R   0.114406 0.859913 0.901527 -0.164742
C88   C     C_R   0.148016 0.882592 0.863321 -0.132840
C89   C     C_R   0.739533 0.455704 0.106752 -0.020355
C90   C     C_R   0.144371 0.804463 0.833333 -0.012111
C91   C     C_R   0.115056 0.705757 0.842939 -0.103127
C92   C     C_R   0.083106 0.682605 0.881564 0.258232
C93   C     C_R   0.743310 0.789213 0.066534 0.558128
C94   C     C_R   0.216611 0.783908 0.766946 -0.116011
C95   C     C_R   0.219465 0.789328 0.725546 -0.113652
C96   C     C_R   0.163966 0.831999 0.707541 0.030107
C97   C     C_R   0.107936 0.871787 0.731593 -0.116370
C98   C     C_R   0.104834 0.866122 0.773039 -0.108630
C99   C     C_R   0.158276 0.821171 0.790850 0.034801
C100  C     C_R   0.199425 0.934499 0.651094 -0.119471
C101  C     C_R   0.651663 0.439530 0.129325 -0.106321
C102  C     C_R   0.229020 0.947832 0.611647 -0.125995
C103  C     C_R   0.188420 0.767208 0.596607 -0.123380
C104  C     C_R   0.021871 0.731915 0.947522 0.561472
C105  C     C_R   0.158905 0.754005 0.635995 -0.121459
C106  C     C_R   0.169813 0.839065 0.664026 0.030761
C107  C     C_R   0.229564 0.865825 0.584949 0.022845
C108  C     C_R   0.657077 0.743386 0.913071 0.006003
C109  C     C_R   0.600862 0.650300 0.885217 -0.177554
C110  C     C_R   0.571864 0.652121 0.845386 -0.142070
C111  C     C_R   0.598730 0.747141 0.832585 -0.022418
C112  C     C_R   0.646112 0.839181 0.861352 -0.088831
C113  C     C_R   0.654995 0.432176 0.170863 0.280064
C114  C     C_R   0.674161 0.838244 0.901624 0.261162
Cr1   Cr    Cr6+3 0.424820 0.846020 0.489780 1.015787
Cr2   Cr    Cr6+3 0.657880 0.078580 0.505700 1.019142
Cr3   Cr    Cr6+3 0.417280 0.075360 0.504550 1.016381
Cr4   Cr    Cr6+3 0.903360 0.812540 0.006510 1.075119
Cr5   Cr    Cr6+3 0.914630 0.587050 0.006280 1.025379
Cr6   Cr    Cr6+3 0.673560 0.582680 0.008540 1.017438
H1    H     H_    0.581648 0.436532 0.115188 0.135513
H2    H     H_    0.043125 0.933295 0.117721 0.125544
H3    H     H_    0.897176 0.468785 0.108722 0.141780
H4    H     H_    0.194986 0.017292 0.331511 0.133118
H5    H     H_    0.873807 0.955834 0.124169 0.125019
H6    H     H_    0.849402 0.975025 0.197193 0.150263
H7    H     H_    0.807620 0.987976 0.403726 0.180994
H8    H     H_    0.474483 0.757027 0.377831 0.135585
H9    H     H_    0.533581 0.708591 0.174779 0.095566
H10   H     H_    0.557117 0.687585 0.101836 0.123091
H11   H     H_    0.502082 0.731244 0.305569 0.102708
H12   H     H_    0.499902 0.291072 0.414688 0.129742
H13   H     H_    0.844661 0.385703 0.905033 0.152007
H14   H     H_    0.846842 0.345315 0.364976 0.127226
H15   H     H_    0.823747 0.329975 0.831164 0.118175
H16   H     H_    0.785348 0.257949 0.692551 0.105730
H17   H     H_    0.760411 0.223732 0.617995 0.123319
H18   H     H_    0.485526 0.272511 0.623301 0.124666
H19   H     H_    0.505758 0.292469 0.826560 0.107184
H20   H     H_    0.525613 0.348596 0.900330 0.128380
H21   H     H_    0.511965 0.306926 0.697861 0.104563
H22   H     H_    0.112804 0.920273 0.923538 0.143866
H23   H     H_    0.900069 0.446329 0.180153 0.125034
H24   H     H_    0.133768 0.679103 0.645342 0.107487
H25   H     H_    0.766530 0.266280 0.293036 0.131535
H26   H     H_    0.265700 0.760876 0.707604 0.109702
H27   H     H_    0.259087 0.749856 0.780255 0.103524
H28   H     H_    0.172047 0.959749 0.856536 0.123898
H29   H     H_    0.065034 0.905244 0.718158 0.105950
H30   H     H_    0.057784 0.893668 0.790886 0.113850
H31   H     H_    0.207977 0.000943 0.672355 0.105213
H32   H     H_    0.259760 0.024548 0.603319 0.128254
H33   H     H_    0.109622 0.644157 0.819624 0.112636
H34   H     H_    0.787163 0.265124 0.425655 0.138842
H35   H     H_    0.186314 0.702237 0.576340 0.130104
H36   H     H_    0.585758 0.576491 0.893361 0.137832
H37   H     H_    0.781697 0.295956 0.222254 0.116800
H38   H     H_    0.736642 0.974752 0.686788 0.109747
H39   H     H_    0.554193 0.901709 0.727425 0.115661
H40   H     H_    0.538792 0.870562 0.797995 0.113951
H41   H     H_    0.532999 0.579675 0.824078 0.115674
H42   H     H_    0.648319 0.666135 0.697201 0.109981
H43   H     H_    0.638206 0.637737 0.768159 0.109786
H44   H     H_    0.509226 0.657179 0.636034 0.106908
H45   H     H_    0.183989 0.731204 0.103326 0.125808
H46   H     H_    0.515662 0.707508 0.568446 0.119144
H47   H     H_    0.666875 0.913122 0.851976 0.159372
H48   H     H_    0.745291 0.025206 0.619483 0.123488
H49   H     H_    0.704260 0.523876 0.324661 0.112186
H50   H     H_    0.722260 0.554991 0.253866 0.120655
H51   H     H_    0.560398 0.371438 0.353808 0.113106
H52   H     H_    0.312968 0.688608 0.314656 0.122084
H53   H     H_    0.345323 0.786540 0.281911 0.128136
H54   H     H_    0.241540 0.645952 0.223280 0.151944
H55   H     H_    0.348271 0.631396 0.245405 0.082822
H56   H     H_    0.231238 0.769155 0.176936 0.107769
H57   H     H_    0.211601 0.548942 0.255862 0.167169
H58   H     H_    0.047972 0.083836 0.353156 0.361512
H59   H     H_    0.187974 0.619157 0.919217 0.140730
H60   H     H_    0.168172 0.562092 0.865620 0.118142
H61   H     H_    0.025983 0.393396 0.881599 0.148716
H62   H     H_    0.151553 0.436590 0.910644 0.102119
H63   H     H_    0.045272 0.450159 0.934933 0.163605
H64   H     H_    0.731468 0.104151 0.939910 0.367017
H65   H     H_    0.597163 0.561491 0.178540 0.117614
H66   H     H_    0.548245 0.530238 0.226759 0.141980
H67   H     H_    0.233108 0.727069 0.373177 0.131976
H68   H     H_    0.371911 0.391082 0.193341 0.171525
H69   H     H_    0.406566 0.516261 0.179510 0.086525
H70   H     H_    0.418934 0.419616 0.143851 0.148566
H71   H     H_    0.241617 0.023995 0.403176 0.144498
H72   H     H_    0.090014 0.969809 0.191457 0.128257
O1    O     O_R   0.318160 0.824460 0.443680 -0.520513
O2    O     O_R   0.668160 0.499860 0.053480 -0.520501
O3    O     O_R   0.689170 0.693840 0.050110 -0.505786
O4    O     O_R   0.525040 0.857250 0.449830 -0.500011
O5    O     O_R   0.803860 0.812940 0.962540 -0.433234
O6    O     O_R   0.982950 0.787950 0.964120 -0.510430
O7    O     O_R   0.007050 0.649970 0.960540 -0.471017
O8    O     O_R   0.807910 0.482370 0.965590 -0.494715
O9    O     O_R   0.643310 0.460980 0.963840 -0.519339
O10   O     O_R   0.666140 0.657800 0.967020 -0.514377
O11   O     O_3   0.830520 0.660760 0.007110 -0.254676
O12   O     O_R   0.645130 0.163230 0.552140 -0.503257
O13   O     O_R   0.684760 0.998800 0.456360 -0.512969
O14   O     O_R   0.647540 0.166310 0.470260 -0.501011
O15   O     O_R   0.500960 0.181750 0.467450 -0.518102
O16   O     O_R   0.331100 0.981120 0.457080 -0.497059
O17   O     O_R   0.315560 0.821140 0.532010 -0.515870
O18   O     O_R   0.522630 0.854180 0.531710 -0.498466
O19   O     O_R   0.682160 0.995480 0.544690 -0.518956
O20   O     O_3   0.184494 0.703974 0.293989 -0.549946
O21   O     O_2   0.914250 0.917857 0.296868 -0.295324
O22   O     O_2   0.886702 0.069736 0.302023 -0.298569
O23   O     O_R   0.498360 0.178430 0.555780 -0.519403
O24   O     O_3   0.978534 0.048396 0.365076 -0.543959
O25   O     O_3   0.042442 0.581355 0.888753 -0.549176
O26   O     O_2   0.696705 0.938116 0.978097 -0.274306
O27   O     O_2   0.851265 0.007321 0.937288 -0.279239
O28   O     O_3   0.692388 0.038148 0.920446 -0.545009
O29   O     O_3   0.567117 0.413791 0.192866 -0.554864
O30   O     O_R   0.328690 0.978040 0.538950 -0.502450
O31   O     O_3   0.499990 0.999990 0.500010 -0.238059
O32   O     O_R   0.828710 0.851830 0.052170 -0.496962
O33   O     O_R   0.005980 0.823990 0.047210 -0.506213
O34   O     O_R   0.031900 0.688850 0.050170 -0.522369
O35   O     O_R   0.830940 0.518420 0.048680 -0.498338
S1    S     S_3+6 0.886685 0.989009 0.324787 -0.014527
S2    S     S_3+6 0.731432 0.957389 0.936096 0.008531

loop_
_geom_bond_atom_site_label_1
_geom_bond_atom_site_label_2
_ccdc_geom_bond_type
C25   H50   S    
C42   H67   S    
C87   C88   A    
C18   H69   S    
C15   H59   S    
C9    H44   S    
C36   H71   S    
C101  C113  A    
C73   C74   A    
C62   H10   S    
C19   C20   A    
C79   C85   A    
Cr1   O4    S    
Cr3   O16   S    
C86   C104  S    
C18   H68   S    
C105  H24   S    
C112  C114  A    
C97   C98   A    
C90   C91   A    
C16   H63   S    
Cr5   O35   S    
C7    C8    A    
C12   H52   S    
C38   C49   A    
C45   C46   A    
C108  C109  A    
C59   H6    S    
C2    O9    A    
C26   C27   S    
O24   S1    S    
C82   C89   S    
C13   O5    A    
O28   S2    S    
C83   C84   T    
Cr5   O7    S    
Cr1   O31   S    
C36   C37   A    
C76   C78   A    
C65   O23   A    
Cr2   O19   S    
C1    C52   S    
C5    C6    A    
C16   H62   S    
C55   C56   A    
C4    H39   S    
C45   C51   A    
C15   C16   S    
C98   C99   A    
Cr6   O10   S    
C13   O10   A    
C2    C85   S    
C108  C114  A    
Cr3   O23   S    
C35   C42   A    
C110  C111  A    
C20   H3    S    
C41   O1    A    
C81   C83   S    
C54   C55   A    
C57   S1    S    
C110  H41   S    
C6    H42   S    
C17   H65   S    
C53   O18   A    
C23   C33   S    
C74   H16   S    
C23   C24   A    
C69   C75   A    
C15   O25   S    
C1    O13   A    
C9    C10   A    
C73   C84   S    
Cr2   O13   S    
C77   O17   A    
C48   C50   T    
C79   H20   S    
Cr1   O1    S    
C58   H7    S    
Cr4   O33   S    
C15   H60   S    
Cr6   O9    S    
C71   O33   A    
C5    C49   S    
Cr3   O30   S    
C93   O3    A    
C95   H26   S    
C51   C71   S    
O27   S2    D    
C13   C108  S    
C100  C102  A    
Cr2   O12   S    
C76   H15   S    
C52   C54   A    
C20   C89   A    
C100  H31   S    
C72   H21   S    
C59   C61   A    
Cr6   O3    S    
C74   C75   A    
Cr1   O17   S    
C82   O35   A    
Cr4   O32   S    
Cr5   O8    S    
C77   C107  S    
C1    O4    A    
C9    C49   A    
C24   C25   A    
C12   O20   S    
C3    C8    A    
C75   H17   S    
C8    C111  S    
C46   H72   S    
C39   C40   A    
C30   C34   A    
C86   C87   A    
C80   C81   A    
C114  S2    S    
C25   C26   A    
C112  H47   S    
C54   H8    S    
C29   C34   S    
Cr6   O2    S    
C29   O14   A    
C79   C80   A    
C35   C36   A    
C64   C66   S    
C11   C38   A    
C10   C60   A    
C43   C44   A    
O26   S2    D    
C14   H55   S    
C37   H4    S    
C43   H56   S    
C28   H51   S    
C47   C48   S    
C22   H25   S    
H64   O28   S    
C17   H66   S    
C10   H46   S    
C113  O29   S    
C96   C97   A    
C62   C63   A    
C53   C60   S    
C17   C18   S    
C88   H28   S    
C31   C34   A    
Cr5   O11   S    
C102  C107  A    
C103  C105  A    
C24   H49   S    
C38   H38   S    
C52   C58   A    
C80   H19   S    
C27   C113  A    
C44   C51   A    
C103  H35   S    
C12   C14   S    
C28   C33   A    
C70   H18   S    
C94   C95   A    
C55   H11   S    
C11   H48   S    
C104  O7    A    
C2    O8    A    
Cr3   O31   S    
Cr4   O11   S    
C56   C57   A    
C11   C60   A    
Cr4   O6    S    
C109  H36   S    
C90   C99   S    
C91   C92   A    
C31   H34   S    
C19   C27   A    
C78   C85   A    
C103  C107  A    
C98   H30   S    
C94   H27   S    
C96   C106  S    
C46   C47   A    
C18   H70   S    
C19   H23   S    
C53   O19   A    
Cr1   O18   S    
C89   C101  A    
C16   H61   S    
C104  O6    A    
C31   C32   A    
C21   H37   S    
C72   C73   A    
Cr3   O15   S    
C76   C81   A    
C61   H5    S    
C92   O25   S    
C91   H33   S    
C6    C7    A    
C62   C68   A    
C45   H2    S    
C56   C67   S    
C105  C106  A    
C40   O20   S    
C100  C106  A    
C68   C93   S    
C29   O15   A    
H58   O24   S    
C32   C33   A    
Cr2   O31   S    
C28   C30   A    
C88   C90   A    
C14   H54   S    
O21   S1    D    
C86   C92   A    
C109  C110  A    
C32   H14   S    
C61   C68   A    
C57   C58   A    
C3    H40   S    
C65   O12   A    
C7    H43   S    
C94   C99   A    
C41   O16   A    
C65   C69   S    
C21   C26   A    
O22   S1    D    
C40   C42   A    
C71   O34   A    
C66   C67   T    
C93   O32   A    
C44   H45   S    
C63   H9    S    
C87   H22   S    
C69   C70   A    
C35   C41   S    
C78   H13   S    
C101  H1    S    
C82   O2    A    
C14   H57   S    
C17   O29   S    
C63   C64   A    
C30   H12   S    
C59   C64   A    
C77   O30   A    
C4    C5    A    
C39   C50   S    
C37   C39   A    
C111  C112  A    
C95   C96   A    
Cr6   O11   S    
C97   H29   S    
C22   C23   A    
C70   C72   A    
C21   C22   A    
Cr4   O5    S    
C43   C47   A    
Cr2   O14   S    
C3    C4    A    
Cr5   O34   S    
C102  H32   S    
C12   H53   S    
