data_mof_unit_68013.cif
_audit_creation_date              2012-12-11T14:03:17-0500
_audit_creation_method            fapswitch 2.2
_symmetry_space_group_name_H-M    P1
_symmetry_Int_Tables_number       1
_space_group_crystal_system       monoclinic
_cell_length_a                    7.011453
_cell_length_b                    11.616813
_cell_length_c                    18.788872
_cell_angle_alpha                 90.0
_cell_angle_beta                  93.576503
_cell_angle_gamma                 90.0
_cell_volume                      1527.38694579

loop_
_atom_site_label
_atom_site_type_symbol
_atom_type_description
_atom_site_fract_x
_atom_site_fract_y
_atom_site_fract_z
_atom_type_partial_charge
O1    O     O_R   0.330540 0.606360 0.598870 -0.549017
O2    O     O_R   0.669460 0.106360 0.401130 -0.549017
O3    O     O_R   0.026770 0.620470 0.750430 -0.568154
O4    O     O_R   0.973230 0.120470 0.249570 -0.568154
O5    O     O_R   0.856460 0.393640 0.750930 -0.553564
O6    O     O_R   0.143540 0.893640 0.249070 -0.553564
C1    C     C_R   0.199789 0.643271 0.776417 0.719942
C2    C     C_R   0.800211 0.143272 0.223583 0.719941
O7    O     O_R   0.000920 0.620350 0.599420 -0.547642
O8    O     O_R   0.999080 0.120350 0.400580 -0.547643
O9    O     O_R   0.830430 0.393520 0.598850 -0.529489
O10   O     O_R   0.169570 0.893520 0.401150 -0.529489
C3    C     C_R   0.166498 0.644823 0.573200 0.711558
C4    C     C_R   0.833502 0.144823 0.426800 0.711558
O11   O     O_R   0.356570 0.606480 0.750960 -0.545702
O12   O     O_R   0.643430 0.106480 0.249040 -0.545703
O13   O     O_3   0.176990 0.425580 0.674890 -0.360015
O14   O     O_3   0.823010 0.925580 0.325110 -0.360015
V1    V     V_3+5 0.902170 0.513810 0.674910 1.387000
V2    V     V_3+5 0.097830 0.013810 0.325090 1.387000
O15   O     O_R   0.500800 0.379530 0.599380 -0.522280
O16   O     O_R   0.499200 0.879530 0.400620 -0.522280
C5    C     C_R   0.666614 0.352756 0.574646 0.808481
C6    C     C_R   0.333386 0.852756 0.425354 0.808481
O17   O     O_R   0.526650 0.379650 0.750390 -0.532529
O18   O     O_R   0.473350 0.879650 0.249610 -0.532529
C7    C     C_R   0.698587 0.355941 0.775726 0.767717
C8    C     C_R   0.301413 0.855941 0.224274 0.767717
V3    V     V_3+5 0.402160 0.486190 0.674900 1.438652
V4    V     V_3+5 0.597840 0.986190 0.325100 1.438651
O19   O     O_3   0.677210 0.574420 0.674910 -0.394688
O20   O     O_3   0.322790 0.074420 0.325090 -0.394688
C9    C     C_R   0.654025 0.076412 0.872122 0.403862
C10   C     C_R   0.345975 0.576412 0.127878 0.403863
C11   C     C_R   0.711050 0.270077 0.832543 -0.094170
C12   C     C_R   0.288949 0.770077 0.167457 -0.094170
C13   C     C_R   0.788788 0.340778 0.178006 0.438196
C14   C     C_R   0.211212 0.840777 0.821994 0.438196
C15   C     C_R   0.799042 0.419148 0.122625 0.241897
C16   C     C_R   0.200958 0.919148 0.877375 0.241895
C17   C     C_R   0.794556 0.381404 0.051961 -0.200524
C18   C     C_R   0.205444 0.881403 0.948039 -0.200524
C19   C     C_R   0.766761 0.263744 0.033514 0.087222
C20   C     C_R   0.233239 0.763744 0.966486 0.087222
C21   C     C_R   0.753249 0.182400 0.089913 -0.098196
C22   C     C_R   0.246751 0.682400 0.910087 -0.098197
C23   C     C_R   0.742936 0.226471 0.960656 0.003758
C24   C     C_R   0.257064 0.726471 0.039344 0.003758
C25   C     C_R   0.698713 0.108895 0.944531 -0.177005
C26   C     C_R   0.301287 0.608895 0.055469 -0.177006
C27   C     C_R   0.689447 0.027665 0.000466 0.438000
C28   C     C_R   0.310553 0.527665 0.999534 0.438000
C29   C     C_R   0.700307 0.066629 0.071696 0.031907
C30   C     C_R   0.299694 0.566629 0.928304 0.031907
C31   C     C_R   0.756102 0.303945 0.902712 -0.246474
C32   C     C_R   0.243897 0.803945 0.097288 -0.246474
C33   C     C_R   0.649103 0.158771 0.817575 0.091039
C34   C     C_R   0.350897 0.658771 0.182424 0.091038
C35   C     C_R   0.780459 0.222072 0.162528 -0.245443
C36   C     C_R   0.219541 0.722072 0.837472 -0.245442
H1    H     H_    0.793083 0.393243 0.909769 0.114230
H2    H     H_    0.206917 0.893243 0.090231 0.114230
H3    H     H_    0.804334 0.448286 0.012907 0.121779
H4    H     H_    0.195666 0.948286 0.987092 0.121779
C37   C     C_2   0.831415 0.221870 0.490895 -0.034581
C38   C     C_2   0.168585 0.721870 0.509105 -0.034582
C39   C     C_2   0.666881 0.274459 0.511976 -0.009235
C40   C     C_2   0.333119 0.774459 0.488024 -0.009235
N1    N     N_3   0.570824 0.131558 0.746992 -0.661849
H5    H     H_    0.655107 0.069984 0.723624 0.226784
H6    H     H_    0.433392 0.098263 0.750681 0.302772
N2    N     N_3   0.429177 0.631558 0.253008 -0.661849
H7    H     H_    0.344901 0.569980 0.276375 0.226788
H8    H     H_    0.566613 0.598269 0.249319 0.302770
N3    N     N_3   0.485328 0.262130 0.472752 -0.669649
H9    H     H_    0.438475 0.177069 0.476211 0.246360
H10   H     H_    0.497383 0.286893 0.419708 0.241523
N4    N     N_3   0.514672 0.762130 0.527248 -0.669648
H11   H     H_    0.561524 0.677069 0.523789 0.246360
H12   H     H_    0.502617 0.786893 0.580292 0.241522
O21   O     O_3   0.638904 0.913243 0.984307 -0.519097
C41   C     C_3   0.753631 0.832177 0.024297 0.174722
H13   H     H_    0.683599 0.807625 0.073339 0.167244
H14   H     H_    0.898564 0.865882 0.038800 0.089845
C42   C     C_3   0.772544 0.719915 0.983369 -0.772204
H15   H     H_    0.848978 0.731002 0.934592 0.210760
H16   H     H_    0.858975 0.658093 0.016184 0.168552
H17   H     H_    0.630558 0.681953 0.969931 0.234829
O22   O     O_3   0.361097 0.413242 0.015693 -0.519097
C43   C     C_3   0.246369 0.332177 0.975703 0.174721
H18   H     H_    0.316401 0.307625 0.926660 0.167244
H19   H     H_    0.101436 0.365882 0.961200 0.089845
C44   C     C_3   0.227455 0.219915 0.016631 -0.772204
H20   H     H_    0.151022 0.231002 0.065408 0.210760
H21   H     H_    0.141025 0.158093 0.983816 0.168552
H22   H     H_    0.369442 0.181953 0.030069 0.234829
O23   O     O_3   0.589202 0.967617 0.854510 -0.509319
C45   C     C_3   0.743881 0.903104 0.832771 0.133640
H23   H     H_    0.846423 0.890573 0.878634 0.124508
H24   H     H_    0.818296 0.946395 0.790154 0.089787
C46   C     C_3   0.674167 0.786834 0.806097 -0.624814
H25   H     H_    0.596151 0.794928 0.753154 0.235574
H26   H     H_    0.796296 0.729077 0.801924 0.159345
H27   H     H_    0.583470 0.747417 0.845207 0.235401
O24   O     O_3   0.410798 0.467617 0.145490 -0.509319
C47   C     C_3   0.256119 0.403104 0.167229 0.133640
H28   H     H_    0.153577 0.390573 0.121366 0.124508
H29   H     H_    0.181703 0.446396 0.209846 0.089786
C48   C     C_3   0.325833 0.286834 0.193903 -0.624816
H30   H     H_    0.403850 0.294928 0.246846 0.235573
H31   H     H_    0.203704 0.229078 0.198076 0.159345
H32   H     H_    0.416530 0.247416 0.154793 0.235401
O25   O     O_3   0.738446 0.382789 0.243527 -0.545503
C49   C     C_3   0.889291 0.375998 0.296682 0.111749
H33   H     H_    0.020873 0.333933 0.279820 0.096657
H34   H     H_    0.838713 0.324486 0.341196 0.127147
C50   C     C_3   0.936483 0.495821 0.325383 -0.750850
H35   H     H_    0.975441 0.553801 0.281662 0.234296
H36   H     H_    0.810789 0.532338 0.350625 0.223299
H37   H     H_    0.058263 0.490834 0.365997 0.179946
O26   O     O_3   0.261554 0.882788 0.756473 -0.545504
C51   C     C_3   0.110709 0.875999 0.703318 0.111749
H38   H     H_    0.979127 0.833934 0.720180 0.096657
H39   H     H_    0.161285 0.824488 0.658804 0.127148
C52   C     C_3   0.063517 0.995822 0.674617 -0.750852
H40   H     H_    0.024562 0.053802 0.718339 0.234297
H41   H     H_    0.189211 0.032339 0.649376 0.223299
H42   H     H_    0.941736 0.990837 0.634004 0.179945
N5    N     N_3   0.819059 0.538967 0.139392 -0.648863
H43   H     H_    0.712425 0.584514 0.110439 0.251235
H44   H     H_    0.950102 0.567025 0.122597 0.182767
N6    N     N_3   0.180941 0.038966 0.860608 -0.648863
H45   H     H_    0.287576 0.084514 0.889561 0.251235
H46   H     H_    0.049898 0.067025 0.877402 0.182767
N7    N     N_3   0.617854 0.991866 0.121606 -0.673207
H47   H     H_    0.499681 0.031306 0.142426 0.245383
H48   H     H_    0.721411 0.961146 0.159191 0.237396
N8    N     N_3   0.382147 0.491866 0.878394 -0.673207
H49   H     H_    0.278590 0.461146 0.840809 0.237395
H50   H     H_    0.500320 0.531306 0.857574 0.245383
N9    N     N_3   0.007769 0.235898 0.533926 -0.620443
H51   H     H_    0.120441 0.192871 0.511914 0.241900
H52   H     H_    0.990421 0.195632 0.582846 0.225852
N10   N     N_3   0.992232 0.735898 0.466074 -0.620443
H53   H     H_    0.879559 0.692871 0.488086 0.241900
H54   H     H_    0.009579 0.695632 0.417154 0.225852

loop_
_geom_bond_atom_site_label_1
_geom_bond_atom_site_label_2
_ccdc_geom_bond_type
C38   C40   D    
C44   H20   S    
N2    H8    S    
O13   V3    S    
C29   N7    S    
O4    C2    A    
V1    O19   S    
C50   H36   S    
C49   H33   S    
N7    H47   S    
C23   C25   A    
C42   H15   S    
O9    V1    S    
C46   H25   S    
O16   C6    A    
O25   C49   S    
C12   C34   A    
C48   H31   S    
C2    C35   S    
N4    H12   S    
C38   N10   S    
C47   H28   S    
C9    C25   A    
O23   C45   S    
N7    H48   S    
C5    C39   S    
N1    H6    S    
O7    C3    A    
C41   H14   S    
O5    C7    A    
N9    H51   S    
O7    V1    S    
O6    C8    A    
O8    V2    S    
N6    H45   S    
C25   C27   A    
C52   H42   S    
C26   C28   A    
O3    V1    S    
O14   V4    S    
V4    O20   S    
C19   C23   A    
C27   O21   S    
C9    O23   S    
C16   C18   A    
C16   N6    S    
C21   C29   A    
C2    O12   A    
O17   V3    S    
C17   C19   A    
O10   V2    S    
C28   O22   S    
C18   C20   A    
C28   C30   A    
O11   V3    S    
C3    C38   S    
C42   H16   S    
C40   N4    S    
C13   C15   A    
C10   C26   A    
C11   C31   A    
C14   O26   S    
N10   H54   S    
O8    C4    A    
C50   H37   S    
N4    H11   S    
N10   H53   S    
C1    O11   A    
C15   N5    S    
C37   C39   D    
O15   V3    S    
C41   H13   S    
O21   C41   S    
C27   C29   A    
N3    H9    S    
C12   C32   A    
C37   N9    S    
C43   H19   S    
C22   C30   A    
O1    V3    S    
C52   H41   S    
C24   C26   A    
C19   C21   A    
C8    C12   S    
O26   C51   S    
C13   C35   A    
N8    H50   S    
C14   C36   A    
N6    H46   S    
O18   V4    S    
C44   H22   S    
C45   H24   S    
O15   C5    A    
C52   H40   S    
C32   H2    S    
C48   H32   S    
C39   N3    S    
C17   H3    S    
C51   H39   S    
C45   C46   S    
C18   H4    S    
C1    C36   S    
C43   C44   S    
C23   C31   A    
N5    H43   S    
V2    O20   S    
C42   H17   S    
C24   C32   A    
C21   C35   A    
C9    C33   A    
O16   V4    S    
C22   C36   A    
C10   O24   S    
O18   C8    A    
N2    H7    S    
C49   H34   S    
O5    V1    S    
C46   H27   S    
C41   C42   S    
O6    V2    S    
O24   C47   S    
O10   C6    A    
O3    C1    A    
C46   H26   S    
O2    V4    S    
C11   C33   A    
C7    C11   S    
C51   C52   S    
N9    H52   S    
C51   H38   S    
V3    O19   S    
C50   H35   S    
C14   C16   A    
C34   N2    S    
C43   H18   S    
C30   N8    S    
C47   H29   S    
C31   H1    S    
O9    C5    A    
O13   V1    S    
C4    C37   S    
O14   V2    S    
N1    H5    S    
O2    C4    A    
C49   C50   S    
N8    H49   S    
C6    C40   S    
O4    V2    S    
O1    C3    A    
C15   C17   A    
C44   H21   S    
C45   H23   S    
N3    H10   S    
C10   C34   A    
C13   O25   S    
C33   N1    S    
O22   C43   S    
C48   H30   S    
O12   V4    S    
C47   C48   S    
C20   C22   A    
C20   C24   A    
N5    H44   S    
O17   C7    A    
