data_mof_unit_33766.cif
_audit_creation_date              2012-12-11T15:52:29-0500
_audit_creation_method            fapswitch 2.2
_symmetry_space_group_name_H-M    P1
_symmetry_Int_Tables_number       1
_space_group_crystal_system       triclinic
_cell_length_a                    8.248622
_cell_length_b                    19.110111
_cell_length_c                    18.979857
_cell_angle_alpha                 98.559186
_cell_angle_beta                  94.506909
_cell_angle_gamma                 91.875624
_cell_volume                      2946.36880046

loop_
_atom_site_label
_atom_site_type_symbol
_atom_type_description
_atom_site_fract_x
_atom_site_fract_y
_atom_site_fract_z
_atom_type_partial_charge
Ba1   Ba    Ba6+2 0.152000 0.534910 0.469330 1.634823
Ba2   Ba    Ba6+2 0.658180 0.465080 0.530610 1.633441
C1    C     C_3   0.335651 0.712575 0.206696 -0.353371
C2    C     C_R   0.985890 0.273690 0.474631 0.057616
C3    C     C_R   0.139204 0.187529 0.562393 -0.157981
C4    C     C_3   0.907813 0.728563 0.320458 0.369176
C5    C     C_R   0.207015 0.254783 0.558321 0.004307
C6    C     C_R   0.668130 0.812561 0.439126 -0.167494
C7    C     C_R   0.599049 0.746011 0.444996 0.009448
C8    C     C_R   0.858055 0.801106 0.539504 -0.150697
C9    C     C_R   0.823286 0.726946 0.526809 0.054330
C10   C     C_R   0.018161 0.154528 0.509285 0.004012
C11   C     C_R   0.119023 0.300038 0.521188 -0.246558
C12   C     C_3   0.375596 0.690448 0.279507 0.352643
C13   C     C_R   0.790925 0.845895 0.491126 -0.005916
C14   C     C_R   0.686244 0.701098 0.482808 -0.244507
C15   C     C_R   0.236097 0.038195 0.544549 -0.082319
C16   C     C_3   0.917697 0.800690 0.295254 0.271271
C17   C     C_R   0.335622 0.989370 0.571281 -0.077235
C18   C     C_R   0.285762 0.918823 0.559387 -0.067046
C19   C     C_R   0.133196 0.898993 0.525089 -0.086079
C20   C     C_R   0.014402 0.948577 0.514765 0.015142
C21   C     C_R   0.069127 0.021872 0.522029 0.036430
C22   C     C_R   0.848280 0.925094 0.494209 -0.016891
C23   C     C_3   0.510350 0.680376 0.641604 0.313940
C24   C     C_R   0.739632 0.978553 0.476977 0.038646
C25   C     C_R   0.794430 0.051884 0.483738 0.017331
C26   C     C_R   0.960480 0.075357 0.505051 -0.017101
C27   C     C_R   0.572784 0.962113 0.454457 -0.073728
C28   C     C_3   0.789599 0.380642 0.310086 0.318702
C29   C     C_R   0.473142 0.010555 0.427210 -0.068895
C30   C     C_R   0.523111 0.081018 0.438011 -0.068799
C31   C     C_R   0.675763 0.101325 0.471930 -0.081858
C32   C     C_R   0.608425 0.530989 0.301329 -0.297046
C33   C     C_R   0.463183 0.493234 0.275917 0.062042
C34   C     C_3   0.524486 0.760446 0.662248 -0.393674
C35   C     C_R   0.409111 0.486610 0.203385 -0.127783
C36   C     C_R   0.502512 0.516533 0.155390 -0.018773
C37   C     C_R   0.653060 0.551919 0.181500 -0.135480
C38   C     C_R   0.706391 0.557882 0.254156 0.012396
C39   C     C_R   0.469354 0.564157 0.038885 -0.079459
C40   C     C_3   0.772403 0.363947 0.228880 -0.392937
C41   C     C_R   0.416170 0.556602 0.966301 -0.078428
C42   C     C_R   0.339644 0.492735 0.930714 0.060866
C43   C     C_R   0.315133 0.437042 0.969963 -0.081069
C44   C     C_R   0.367908 0.444695 0.042704 -0.076195
C45   C     C_3   0.899979 0.269401 0.679702 0.364192
C46   C     C_R   0.445970 0.508339 0.078052 0.064658
C47   C     C_R   0.141720 0.447519 0.823761 -0.135290
C48   C     C_R   0.095458 0.441232 0.750243 0.014460
C49   C     C_R   0.339960 0.508102 0.733761 0.032116
C50   C     C_R   0.387803 0.514351 0.806682 -0.124155
C51   C     C_R   0.289627 0.483943 0.852688 -0.010909
C52   C     C_3   0.015075 0.618545 0.690005 0.316919
C53   C     C_R   0.197610 0.469442 0.705489 -0.285931
C54   C     C_3   0.033299 0.635663 0.771198 -0.394787
C55   C     C_3   0.299680 0.322476 0.372539 0.319845
C56   C     C_3   0.868740 0.196549 0.700513 -0.364000
C57   C     C_3   0.287185 0.242378 0.351985 -0.399219
C58   C     C_3   0.847787 0.797299 0.173550 0.285242
C59   C     C_3   0.704242 0.792061 0.117358 -0.341810
C60   C     C_3   0.429543 0.316781 0.723645 0.369781
C61   C     C_3   0.466841 0.297851 0.798049 -0.356376
C62   C     C_R   0.953599 0.199464 0.460686 -0.154807
H1    H     H_    0.321624 0.636255 0.278769 0.070600
H2    H     H_    0.181362 0.341182 0.389082 0.002232
H3    H     H_    0.394014 0.335772 0.417968 0.084806
H4    H     H_    0.201980 0.712561 0.194542 0.131759
H5    H     H_    0.187114 0.226895 0.309280 0.123361
H6    H     H_    0.262011 0.217141 0.399158 0.060689
H7    H     H_    0.403681 0.223114 0.332515 0.125563
H8    H     H_    0.510273 0.689876 0.288558 -0.039504
H9    H     H_    0.386794 0.674822 0.164913 0.063816
H10   H     H_    0.630152 0.661532 0.626320 0.011244
H11   H     H_    0.418517 0.667712 0.595036 0.076020
H12   H     H_    0.683157 0.318748 0.211262 0.122277
H13   H     H_    0.619765 0.775326 0.707168 0.124585
H14   H     H_    0.557903 0.785375 0.615890 0.058110
H15   H     H_    0.406152 0.780528 0.678670 0.125449
H16   H     H_    0.389105 0.766529 0.205939 0.128232
H17   H     H_    0.901959 0.842245 0.341371 0.003386
H18   H     H_    0.835771 0.270547 0.626139 0.079349
H19   H     H_    0.032928 0.277912 0.677674 -0.063535
H20   H     H_    0.737009 0.186967 0.705456 0.156653
H21   H     H_    0.908479 0.154821 0.659173 0.069228
H22   H     H_    0.937431 0.192943 0.752472 0.106028
H23   H     H_    0.729542 0.410426 0.205480 0.065529
H24   H     H_    0.295375 0.318812 0.714074 -0.082147
H25   H     H_    0.487105 0.369772 0.721878 0.079693
H26   H     H_    0.419375 0.338455 0.838325 0.067045
H27   H     H_    0.600209 0.295677 0.810217 0.154811
H28   H     H_    0.987956 0.730892 0.370756 0.030541
H29   H     H_    0.407987 0.245506 0.801503 0.104002
H30   H     H_    0.871805 0.178340 0.414550 0.066263
H31   H     H_    0.185663 0.161610 0.606119 0.068069
H32   H     H_    0.621482 0.837659 0.394840 0.091326
H33   H     H_    0.943264 0.822166 0.584442 0.068615
H34   H     H_    0.892011 0.350068 0.208877 0.126926
H35   H     H_    0.160623 0.354843 0.524902 0.065917
H36   H     H_    0.642615 0.646780 0.480872 0.067629
H37   H     H_    0.298723 0.086319 0.537748 0.081364
H38   H     H_    0.459556 0.004841 0.592345 0.077775
H39   H     H_    0.370086 0.879095 0.571246 0.084546
H40   H     H_    0.780078 0.717082 0.330977 -0.060760
H41   H     H_    0.109959 0.844389 0.505555 0.129862
H42   H     H_    0.510073 0.914230 0.461721 0.075981
H43   H     H_    0.349158 0.994908 0.406348 0.077011
H44   H     H_    0.438863 0.120465 0.425431 0.082009
H45   H     H_    0.133641 0.603646 0.670524 0.004257
H46   H     H_    0.698023 0.156324 0.489777 0.132014
H47   H     H_    0.500369 0.543621 0.827309 0.074878
H48   H     H_    0.433916 0.601197 0.938183 0.060235
H49   H     H_    0.527311 0.614095 0.064507 0.054888
H50   H     H_    0.294966 0.457774 0.184612 0.084271
H51   H     H_    0.258354 0.386924 0.944106 0.060958
H52   H     H_    0.041781 0.811278 0.278475 0.030108
H53   H     H_    0.350497 0.400133 0.070900 0.059671
H54   H     H_    0.060311 0.426493 0.858299 0.074401
H55   H     H_    0.731192 0.572408 0.145349 0.074355
H56   H     H_    0.924542 0.573644 0.674243 0.072260
H57   H     H_    0.160476 0.465664 0.649033 0.064778
H58   H     H_    0.650957 0.534984 0.357240 0.071926
H59   H     H_    0.669090 0.392788 0.329182 0.006319
H60   H     H_    0.875649 0.427211 0.326182 0.066070
H61   H     H_    0.916800 0.748307 0.162790 0.062922
H62   H     H_    0.927343 0.844165 0.168485 0.030500
H63   H     H_    0.631146 0.839847 0.126703 0.127371
H64   H     H_    0.748965 0.787907 0.063280 0.060476
H65   H     H_    0.625979 0.744268 0.119854 0.112425
H66   H     H_    0.129881 0.677955 0.788525 0.124958
H67   H     H_    0.066489 0.588107 0.794984 0.067763
H68   H     H_    0.916451 0.653901 0.791154 0.125220
O1    O     O_2   0.116570 0.673370 0.549300 -0.462903
O2    O     O_2   0.762459 0.451611 0.744769 -0.483312
O3    O     O_3   0.841615 0.320831 0.730950 -0.595570
O4    O     O_3   0.869340 0.584760 0.542960 -0.492075
O5    O     O_3   0.436600 0.464450 0.413780 -0.494752
O6    O     O_2   0.628980 0.533090 0.672420 -0.454567
O7    O     O_3   0.463346 0.649654 0.700035 -0.641687
O8    O     O_2   0.532624 0.241448 0.536065 -0.509355
O9    O     O_3   0.492334 0.265688 0.673152 -0.592747
O10   O     O_3   0.352540 0.630870 0.419750 -0.473071
O11   O     O_2   0.275401 0.756299 0.470191 -0.507574
O12   O     O_3   0.340161 0.353036 0.313271 -0.634968
O13   O     O_3   0.963979 0.678893 0.662692 -0.635429
O14   O     O_3   0.310199 0.738404 0.332195 -0.601074
O15   O     O_2   0.181320 0.466870 0.327560 -0.457344
O16   O     O_3   0.937730 0.595370 0.381630 -0.486241
O17   O     O_2   0.039783 0.545763 0.254016 -0.483137
O18   O     O_3   0.789430 0.804991 0.242125 -0.642521
O19   O     O_3   0.959555 0.676850 0.267585 -0.617329
O20   O     O_2   0.693730 0.326590 0.450680 -0.472908
O21   O     O_3   0.940960 0.415230 0.456980 -0.492728
O22   O     O_3   0.457750 0.369120 0.580200 -0.470161
O23   O     O_3   0.847574 0.321232 0.337235 -0.632848
O24   O     O_3   0.373690 0.535540 0.586160 -0.482291
O25   O     O_3   0.872560 0.404620 0.618320 -0.486318
P1    P     P_3+3 0.945400 0.662120 0.569160 0.977950
P2    P     P_3+3 0.355390 0.445380 0.336430 0.979166
P3    P     P_3+3 0.910946 0.593259 0.288847 0.949062
P4    P     P_3+3 0.864900 0.337880 0.430780 0.976180
P5    P     P_3+3 0.893884 0.404784 0.711210 0.948301
P6    P     P_3+3 0.385969 0.719821 0.415642 0.931469
P7    P     P_3+3 0.449758 0.557506 0.675482 0.943560
P8    P     P_3+3 0.420478 0.281086 0.588032 0.932666

loop_
_geom_bond_atom_site_label_1
_geom_bond_atom_site_label_2
_ccdc_geom_bond_type
C53   H57   S    
C52   H56   S    
C48   P5    S    
C1    H4    S    
C6    H32   S    
C55   H2    S    
C8    H33   S    
O15   P2    D    
C40   H12   S    
C18   H39   S    
C43   C44   A    
C25   C31   A    
C24   C25   A    
C60   C61   S    
C10   C26   S    
C32   C38   A    
O7    P7    S    
C23   O7    S    
C7    C14   A    
C22   C24   A    
C32   C33   A    
C34   H13   S    
C40   H34   S    
C36   C37   A    
C10   C62   A    
C17   H38   S    
C47   C51   A    
C55   C57   S    
C60   H25   S    
C54   H66   S    
C16   H17   S    
Ba1   Ba2   S    
O16   P3    S    
C45   H18   S    
C2    C11   A    
C7    P6    S    
C15   H37   S    
Ba1   O10   S    
C1    H9    S    
C42   C51   S    
C12   H1    S    
C17   C18   A    
C6    C7    A    
O22   P8    S    
C4    H40   S    
Ba1   O4    S    
C36   C46   S    
O20   P4    D    
C59   H65   S    
O4    P1    S    
C5    P8    S    
C32   H58   S    
C19   C20   A    
C39   C41   A    
C12   H8    S    
C55   H3    S    
C4    C16   S    
C1    H16   S    
C56   H22   S    
Ba2   P4    S    
O11   P6    D    
C3    H31   S    
C52   C54   S    
Ba2   O20   S    
C23   H10   S    
C44   C46   A    
Ba1   O1    S    
O5    P2    S    
C49   C50   A    
Ba2   O6    S    
Ba1   P2    S    
C3    C10   A    
C28   O23   S    
C16   H52   S    
O10   P6    S    
C3    C5    A    
C14   H36   S    
C35   H50   S    
C23   C34   S    
C50   H47   S    
C60   H24   S    
O23   P4    S    
Ba2   O4    S    
O2    P5    D    
C44   H53   S    
O21   P4    S    
C58   C59   S    
C23   H11   S    
C11   H35   S    
Ba1   O24   S    
C41   C42   A    
C35   C36   A    
C56   H20   S    
C9    C14   A    
C43   H51   S    
C29   C30   A    
C15   C21   A    
C45   O3    S    
C49   P7    S    
C59   H63   S    
C58   O18   S    
C21   C26   A    
C28   H59   S    
O12   P2    S    
Ba1   O21   S    
O24   P7    S    
C54   H68   S    
C1    C12   S    
C57   H5    S    
C52   O13   S    
C4    O19   S    
C13   C22   S    
C28   H60   S    
Ba2   O21   S    
C45   H19   S    
O3    P5    S    
C20   C22   A    
C27   H42   S    
Ba1   O15   S    
C41   H48   S    
C60   O9    S    
C37   H55   S    
C56   H21   S    
C37   C38   A    
Ba1   O5    S    
C50   C51   A    
O8    P8    D    
C2    C62   A    
C58   H61   S    
Ba2   O24   S    
C55   O12   S    
C33   C35   A    
C2    P4    S    
Ba2   O5    S    
C29   H43   S    
C38   P3    S    
C42   C43   A    
C39   H49   S    
C34   H15   S    
C40   H23   S    
C6    C13   A    
O14   P6    S    
C12   O14   S    
O9    P8    S    
C48   C53   A    
C8    C13   A    
C30   C31   A    
C58   H62   S    
C62   H30   S    
C27   C29   A    
C34   H14   S    
O19   P3    S    
C45   C56   S    
O13   P1    S    
Ba1   P1    S    
Ba2   O25   S    
C4    H28   S    
C61   H26   S    
C15   C17   A    
C39   C46   A    
C59   H64   S    
C49   C53   A    
O1    P1    D    
O17   P3    D    
C33   P2    S    
C54   H67   S    
C8    C9    A    
C57   H6    S    
C47   H54   S    
C5    C11   A    
C18   C19   A    
C52   H45   S    
C24   C27   A    
Ba2   O22   S    
C47   C48   A    
C30   H44   S    
C61   H27   S    
C25   C26   A    
C20   C21   A    
C28   C40   S    
Ba1   O16   S    
O6    P7    D    
C31   H46   S    
C61   H29   S    
C16   O18   S    
O25   P5    S    
C19   H41   S    
C9    P1    S    
C57   H7    S    
