data_mof_unit_44327.cif
_audit_creation_date              2012-12-10T17:36:43-0500
_audit_creation_method            fapswitch 2.2
_symmetry_space_group_name_H-M    P1
_symmetry_Int_Tables_number       1
_space_group_crystal_system       triclinic
_cell_length_a                    11.986779
_cell_length_b                    12.897623
_cell_length_c                    15.719095
_cell_angle_alpha                 90.204869
_cell_angle_beta                  85.50992
_cell_angle_gamma                 93.218198
_cell_volume                      2418.90714154

loop_
_atom_site_label
_atom_site_type_symbol
_atom_type_description
_atom_site_fract_x
_atom_site_fract_y
_atom_site_fract_z
_atom_type_partial_charge
C1    C     C_R   0.521913 0.700505 0.499200 0.882497
C2    C     C_R   0.553267 0.025750 0.491847 0.186057
C3    C     C_R   0.956542 0.404262 0.419386 -0.332179
C4    C     C_R   0.043465 0.595766 0.580554 -0.333189
C5    C     C_R   0.839927 0.413198 0.427392 0.032157
C6    C     C_R   0.160073 0.586831 0.572570 0.031966
C7    C     C_R   0.857175 0.541067 0.535043 -0.050941
C8    C     C_R   0.142834 0.458919 0.464951 -0.050757
C9    C     C_R   0.974905 0.534703 0.529333 0.092409
C10   C     C_R   0.025102 0.465282 0.470644 0.091634
C11   C     C_R   0.499419 0.500051 0.662191 0.906505
C12   C     C_R   0.478087 0.299496 0.500798 0.883121
C13   C     C_R   0.500595 0.500090 0.337816 0.906646
C14   C     C_3   0.450043 0.586127 0.032841 -0.327508
C15   C     C_3   0.550258 0.416913 0.967243 -0.309048
C16   C     C_3   0.554121 0.589543 0.967455 -0.332546
C17   C     C_3   0.446104 0.413600 0.032668 -0.315622
C18   C     C_1   0.497460 0.500405 0.751215 -0.185853
C19   C     C_1   0.502665 0.500804 0.248804 -0.185674
C20   C     C_3   0.394456 0.497947 0.981781 0.599878
C21   C     C_3   0.605921 0.504836 0.018270 0.603272
C22   C     C_3   0.496609 0.501329 0.917375 0.075235
C23   C     C_R   0.649941 0.970005 0.479699 -0.222546
C24   C     C_3   0.503658 0.501639 0.082658 0.074579
C25   C     C_1   0.495689 0.500845 0.826605 0.000017
C26   C     C_1   0.504508 0.501359 0.173422 0.000407
C27   C     C_R   0.465194 0.188185 0.501516 -0.052323
C28   C     C_R   0.534805 0.811817 0.498474 -0.052214
C29   C     C_3   0.796009 0.522700 0.973579 0.075607
C30   C     C_3   0.847741 0.420340 0.947600 -0.361365
C31   C     C_3   0.938534 0.436674 0.874452 -0.946461
C32   C     C_3   0.205654 0.497855 0.029020 0.073843
C33   C     C_3   0.146175 0.390960 0.045838 -0.345737
C34   C     C_R   0.350056 0.029997 0.520281 -0.222649
C35   C     C_3   0.062908 0.392879 0.124409 -0.968242
C36   C     C_R   0.640723 0.862657 0.483038 -0.204573
C37   C     C_R   0.359275 0.137346 0.516949 -0.204098
C38   C     C_R   0.438421 0.867651 0.511733 -0.279159
C39   C     C_R   0.561577 0.132351 0.488249 -0.278803
C40   C     C_R   0.446730 0.974253 0.508133 0.186051
H1    H     H_    0.598024 0.660707 0.938892 0.152491
H2    H     H_    0.268043 0.990767 0.532629 0.138785
H3    H     H_    0.182800 0.405804 0.420292 0.124798
H4    H     H_    0.817216 0.594183 0.579702 0.124200
H5    H     H_    0.212693 0.633959 0.612162 0.131437
H6    H     H_    0.787307 0.366106 0.387776 0.132201
H7    H     H_    0.992644 0.350233 0.373540 0.145679
H8    H     H_    0.007364 0.649858 0.626337 0.142913
H9    H     H_    0.863551 0.577808 0.993698 0.162328
H10   H     H_    0.762784 0.558384 0.916928 0.122697
H11   H     H_    0.884533 0.386659 0.003194 0.239774
H12   H     H_    0.403332 0.342437 0.061908 0.151861
H13   H     H_    0.782192 0.363916 0.926808 0.215514
H14   H     H_    0.902204 0.467031 0.817249 0.266786
H15   H     H_    0.975428 0.361516 0.857676 0.267142
H16   H     H_    0.006165 0.492392 0.893445 0.270979
H17   H     H_    0.142101 0.553442 0.014701 0.158478
H18   H     H_    0.242436 0.526623 0.088341 0.128077
H19   H     H_    0.101172 0.366354 0.989416 0.237475
H20   H     H_    0.208475 0.332767 0.056142 0.216013
H21   H     H_    0.107716 0.410941 0.182388 0.265713
H22   H     H_    0.017655 0.315670 0.132942 0.264286
H23   H     H_    0.408601 0.654184 0.061609 0.155140
H24   H     H_    0.000765 0.452257 0.116890 0.274250
H25   H     H_    0.589132 0.347929 0.938071 0.151515
H26   H     H_    0.643655 0.171545 0.475581 0.159831
H27   H     H_    0.356343 0.828458 0.524401 0.159690
H28   H     H_    0.284286 0.180293 0.527230 0.163788
H29   H     H_    0.715712 0.819710 0.472760 0.163689
H30   H     H_    0.731954 0.009236 0.467351 0.138924
N1    N     N_R   0.207800 0.519340 0.515560 -0.100905
N2    N     N_R   0.792200 0.480660 0.484440 -0.101053
O1    O     O_R   0.421700 0.658830 0.504150 -0.629674
O2    O     O_3   0.283697 0.493873 0.956730 -0.643536
O3    O     O_R   0.578300 0.341170 0.495850 -0.629454
O4    O     O_R   0.609310 0.646410 0.494170 -0.628034
O5    O     O_R   0.390690 0.353590 0.505830 -0.627777
O6    O     O_R   0.406210 0.506220 0.628210 -0.610156
O7    O     O_R   0.593790 0.493780 0.371790 -0.610104
O8    O     O_R   0.593830 0.493800 0.618230 -0.619589
O9    O     O_R   0.406170 0.506200 0.381770 -0.620015
O10   O     O_3   0.716178 0.507228 0.044353 -0.643187
Zn1   Zn    Zn3+2 0.374730 0.508290 0.506660 0.948230
Zn2   Zn    Zn3+2 0.625270 0.491710 0.493340 0.948408

loop_
_geom_bond_atom_site_label_1
_geom_bond_atom_site_label_2
_ccdc_geom_bond_type
C30   H11   S    
C13   O7    A    
C11   C18   S    
C16   C21   S    
C6    H5    S    
C34   C37   A    
C34   H2    S    
C8    H3    S    
C32   H18   S    
O8    Zn2   S    
O4    Zn2   S    
C29   H9    S    
C34   C40   A    
C24   C26   S    
C5    N2    A    
C32   O2    S    
O7    Zn2   S    
O3    Zn2   S    
O5    Zn1   S    
C15   H25   S    
C37   H28   S    
C13   O9    A    
C17   C20   S    
C15   C17   S    
C14   C24   S    
C19   C26   T    
C2    C39   A    
C15   C22   S    
C27   C39   A    
C22   C25   S    
C1    C28   S    
C35   H24   S    
C31   H16   S    
C9    C10   A    
C33   H19   S    
C23   H30   S    
C18   C25   T    
C32   H17   S    
O6    Zn1   S    
C17   H12   S    
O9    Zn1   S    
N1    Zn1   S    
C29   H10   S    
C6    N1    A    
C30   H13   S    
C17   C24   S    
C13   C19   S    
C12   C27   S    
C14   C20   S    
C4    C6    A    
C7    N2    A    
C29   C30   S    
C11   O6    A    
C28   C38   A    
C12   O5    A    
C20   O2    S    
C35   H21   S    
C7    H4    S    
C38   H27   S    
N2    Zn2   S    
C20   C22   S    
C33   H20   S    
C39   H26   S    
C14   C16   S    
C12   O3    A    
C36   H29   S    
C4    H8    S    
C7    C9    A    
C8    N1    A    
C16   C22   S    
C1    O4    A    
C3    C5    A    
C5    H6    S    
C1    O1    A    
C32   C33   S    
C29   O10   S    
C3    C10   A    
C38   C40   A    
C30   C31   S    
C27   C37   A    
C14   H23   S    
C3    H7    S    
C33   C35   S    
C35   H22   S    
C31   H14   S    
C11   O8    A    
C2    C40   A    
C15   C21   S    
C21   O10   S    
C28   C36   A    
C8    C10   A    
C23   C36   A    
C21   C24   S    
C2    C23   A    
C31   H15   S    
C4    C9    A    
C16   H1    S    
O1    Zn1   S    
