data_mof_unit_16120.cif
_audit_creation_date              2012-12-10T17:36:36-0500
_audit_creation_method            fapswitch 2.2
_symmetry_space_group_name_H-M    P1
_symmetry_Int_Tables_number       1
_space_group_crystal_system       triclinic
_cell_length_a                    12.201628
_cell_length_b                    12.777033
_cell_length_c                    15.727018
_cell_angle_alpha                 92.757616
_cell_angle_beta                  86.702229
_cell_angle_gamma                 95.128612
_cell_volume                      2435.71449586

loop_
_atom_site_label
_atom_site_type_symbol
_atom_type_description
_atom_site_fract_x
_atom_site_fract_y
_atom_site_fract_z
_atom_type_partial_charge
C1    C     C_R   0.523153 0.699677 0.495401 0.885306
C2    C     C_R   0.531489 0.024414 0.465942 0.077124
C3    C     C_R   0.950202 0.427190 0.401041 -0.125625
C4    C     C_R   0.049798 0.572811 0.598958 -0.125625
C5    C     C_R   0.835503 0.424164 0.417461 0.039739
C6    C     C_R   0.164497 0.575837 0.582539 0.039737
C7    C     C_R   0.859677 0.535183 0.541993 0.254273
C8    C     C_R   0.140323 0.464817 0.458007 0.254273
C9    C     C_R   0.976759 0.526868 0.536413 -0.020091
C10   C     C_R   0.023241 0.473132 0.463587 -0.020092
C11   C     C_R   0.500503 0.500592 0.661489 0.885748
C12   C     C_R   0.476847 0.300322 0.504593 0.885303
C13   C     C_R   0.499497 0.499408 0.338511 0.885739
C14   C     C_3   0.517299 0.599044 0.031454 -0.049600
C15   C     C_3   0.482702 0.400955 0.968546 -0.049603
C16   C     C_3   0.598113 0.542570 0.969977 -0.054845
C17   C     C_3   0.401888 0.457429 0.030023 -0.054845
C18   C     C_1   0.501335 0.500621 0.750159 -0.153571
C19   C     C_1   0.498665 0.499378 0.249841 -0.153565
C20   C     C_3   0.420149 0.556806 0.977330 -0.055624
C21   C     C_3   0.579852 0.443193 0.022670 -0.055624
C22   C     C_3   0.500979 0.500337 0.916185 0.033985
C23   C     C_R   0.602311 0.967131 0.409795 0.199570
C24   C     C_3   0.499021 0.499662 0.083815 0.033984
C25   C     C_1   0.501525 0.500564 0.825314 -0.021930
C26   C     C_1   0.498475 0.499435 0.174686 -0.021932
C27   C     C_R   0.461228 0.188722 0.513595 -0.093376
C28   C     C_R   0.538774 0.811277 0.486392 -0.093374
C29   C     C_1   0.705001 0.588974 0.935587 0.193530
C30   C     C_1   0.294999 0.411024 0.064413 0.193529
C31   C     C_1   0.536166 0.706885 0.067599 0.191268
C32   C     C_1   0.463835 0.293113 0.932401 0.191271
C33   C     C_1   0.666815 0.381365 0.049266 0.202511
C34   C     C_R   0.397685 0.032866 0.590184 0.199572
C35   C     C_1   0.333185 0.618634 0.950734 0.202511
C36   C     C_3   0.342448 0.209125 0.651645 -0.861062
C37   C     C_3   0.657533 0.790869 0.348331 -0.861094
C38   C     C_3   0.677573 0.023268 0.342666 -0.881346
C39   C     C_3   0.322411 0.976724 0.657304 -0.881368
C40   C     C_3   0.190144 0.390559 0.392479 -0.782378
C41   C     C_3   0.809856 0.609440 0.607521 -0.782373
C42   C     C_1   0.237459 0.637572 0.638643 0.272729
C43   C     C_1   0.762542 0.362430 0.361355 0.272726
C44   C     C_1   0.987460 0.391214 0.316101 0.169044
C45   C     C_R   0.600642 0.857404 0.417119 0.166993
C46   C     C_1   0.012541 0.608789 0.683899 0.169044
C47   C     C_R   0.399353 0.142592 0.582863 0.166978
C48   C     C_R   0.477747 0.870050 0.544782 -0.304308
C49   C     C_R   0.522262 0.129951 0.455207 -0.304306
C50   C     C_R   0.468514 0.975585 0.534042 0.077129
H1    H     H_    0.565689 0.169712 0.402433 0.185430
H2    H     H_    0.627488 0.053122 0.293827 0.249998
H3    H     H_    0.727641 0.089935 0.373385 0.241919
H4    H     H_    0.262231 0.026475 0.690534 0.254605
H5    H     H_    0.272363 0.910049 0.626581 0.241923
H6    H     H_    0.372487 0.946884 0.706157 0.250003
H7    H     H_    0.270705 0.369877 0.407381 0.280773
H8    H     H_    0.140128 0.313617 0.390205 0.209417
H9    H     H_    0.199591 0.426429 0.329330 0.237672
H10   H     H_    0.729294 0.630122 0.592619 0.280775
H11   H     H_    0.800410 0.573572 0.670670 0.237671
H12   H     H_    0.434325 0.830293 0.597559 0.185430
H13   H     H_    0.859871 0.686383 0.609794 0.209418
H14   H     H_    0.363097 0.186042 0.715609 0.249320
H15   H     H_    0.368877 0.293967 0.649889 0.245885
H16   H     H_    0.251873 0.198421 0.645755 0.246427
H17   H     H_    0.636829 0.813921 0.284372 0.249327
H18   H     H_    0.748114 0.801609 0.354184 0.246421
H19   H     H_    0.631147 0.706021 0.350113 0.245899
H20   H     H_    0.737735 0.973513 0.309418 0.254604
N1    N     N_R   0.207800 0.519340 0.515560 -0.128550
N2    N     N_1   0.705508 0.312421 0.315781 -0.219324
N3    N     N_1   0.015510 0.362478 0.248024 -0.164844
N4    N     N_1   0.984491 0.637527 0.751975 -0.164844
N5    N     N_R   0.792200 0.480660 0.484440 -0.128550
N6    N     N_1   0.789192 0.625547 0.908479 -0.166158
N7    N     N_1   0.210809 0.374451 0.091521 -0.166158
N8    N     N_1   0.551039 0.791790 0.096149 -0.192226
N9    N     N_1   0.448962 0.208209 0.903851 -0.192218
N10   N     N_1   0.735294 0.332707 0.070311 -0.166428
N11   N     N_1   0.264707 0.667292 0.929690 -0.166428
N12   N     N_1   0.294493 0.687582 0.684216 -0.219318
O1    O     O_R   0.421700 0.658830 0.504150 -0.607753
O2    O     O_R   0.578300 0.341170 0.495850 -0.607754
O3    O     O_R   0.609310 0.646410 0.494170 -0.635975
O4    O     O_R   0.390690 0.353590 0.505830 -0.635968
O5    O     O_R   0.406210 0.506220 0.628210 -0.614666
O6    O     O_R   0.593790 0.493780 0.371790 -0.614675
O7    O     O_R   0.593830 0.493800 0.618230 -0.620521
O8    O     O_R   0.406170 0.506200 0.381770 -0.620523
Zn1   Zn    Zn3+2 0.374730 0.508290 0.506660 0.946953
Zn2   Zn    Zn3+2 0.625270 0.491710 0.493340 0.946952

loop_
_geom_bond_atom_site_label_1
_geom_bond_atom_site_label_2
_ccdc_geom_bond_type
C38   H20   S    
C11   C18   S    
C43   N2    T    
C23   C45   A    
C37   H19   S    
C13   O8    A    
C42   N12   T    
C41   H11   S    
C14   C31   S    
C35   N11   T    
C15   C32   S    
C29   N6    T    
C4    C46   S    
C16   C21   S    
C24   C26   S    
O5    Zn1   S    
O4    Zn1   S    
C36   H16   S    
C39   H4    S    
C38   H2    S    
C37   H18   S    
C17   C20   S    
C12   O2    A    
C36   C47   S    
C7    C9    A    
C14   C24   S    
C19   C26   T    
C2    C50   A    
C30   N7    T    
C15   C22   S    
C39   H5    S    
O6    Zn2   S    
C11   O5    A    
C49   H1    S    
C22   C25   S    
C1    C28   S    
C9    C10   A    
C48   C50   A    
C5    C43   S    
C40   H9    S    
C17   C30   S    
C20   C35   S    
C18   C25   T    
O3    Zn2   S    
C1    O3    A    
C6    N1    A    
C28   C45   A    
C3    C44   S    
C34   C50   A    
C17   C24   S    
C40   H8    S    
C13   C19   S    
C12   C27   S    
C34   C39   S    
C14   C20   S    
C4    C6    A    
C36   H15   S    
C7    N5    A    
C16   C29   S    
C5    N5    A    
C2    C49   A    
C11   O7    A    
C48   H12   S    
C39   H6    S    
N1    Zn1   S    
O7    Zn2   S    
N5    Zn2   S    
C20   C22   S    
C14   C16   S    
C41   H13   S    
C37   C45   S    
C46   N4    T    
C8    C40   S    
C31   N8    T    
C27   C47   A    
C15   C17   S    
C28   C48   A    
C8    N1    A    
C16   C22   S    
C40   H7    S    
C41   H10   S    
C3    C5    A    
C33   N10   T    
C1    O1    A    
C23   C38   S    
O1    Zn1   S    
C12   O4    A    
C3    C10   A    
C32   N9    T    
O8    Zn1   S    
C38   H3    S    
C37   H17   S    
C13   O6    A    
C7    C41   S    
C44   N3    T    
C15   C21   S    
C21   C33   S    
C8    C10   A    
C6    C42   S    
C21   C24   S    
C2    C23   A    
C34   C47   A    
O2    Zn2   S    
C4    C9    A    
C36   H14   S    
C27   C49   A    
