data_mof_unit_10500.cif
_audit_creation_date              2012-12-10T18:04:02-0500
_audit_creation_method            fapswitch 2.2
_symmetry_space_group_name_H-M    P1
_symmetry_Int_Tables_number       1
_space_group_crystal_system       triclinic
_cell_length_a                    10.758074
_cell_length_b                    9.671884
_cell_length_c                    10.796714
_cell_angle_alpha                 89.131121
_cell_angle_beta                  92.087229
_cell_angle_gamma                 89.53839
_cell_volume                      1122.49111289

loop_
_atom_site_label
_atom_site_type_symbol
_atom_type_description
_atom_site_fract_x
_atom_site_fract_y
_atom_site_fract_z
_atom_type_partial_charge
C1    C     C_R   0.262923 0.500736 0.496336 0.798126
C2    C     C_R   0.737234 0.499706 0.497377 0.782737
C3    C     C_R   0.439528 0.071857 0.405251 0.225061
C4    C     C_R   0.558659 0.066884 0.594776 0.229879
C5    C     C_R   0.437371 0.924800 0.410360 -0.072230
C6    C     C_R   0.562973 0.920555 0.588952 -0.060226
C7    C     C_R   0.499004 0.500919 0.263052 0.767871
C8    C     C_R   0.500903 0.499490 0.737404 0.777127
C9    C     C_R   0.427707 0.598579 0.060069 0.114361
C10   C     C_R   0.428079 0.597464 0.932181 0.126587
C11   C     C_R   0.496728 0.500567 0.129961 -0.080655
C12   C     C_R   0.497353 0.498211 0.871148 -0.083960
C13   C     C_R   0.557995 0.394080 0.069717 -0.223571
C14   C     C_R   0.559517 0.394005 0.941323 -0.243563
C15   C     C_3   0.431684 0.751781 0.923299 -0.456764
C16   C     C_3   0.430820 0.752720 0.063901 -0.488019
C17   C     C_R   0.068770 0.442991 0.588724 -0.223332
C18   C     C_R   0.940981 0.444337 0.589552 -0.247162
C19   C     C_R   0.871230 0.499818 0.489108 -0.043200
C20   C     C_R   0.128872 0.502563 0.489715 -0.060912
C21   C     C_R   0.929991 0.557978 0.385236 0.186612
C22   C     C_R   0.061626 0.562430 0.387092 0.176403
Cu1   Cu    Cu3+1 0.500000 0.640660 0.500000 0.936057
Cu2   Cu    Cu3+1 0.500000 0.359340 0.500000 0.942425
H1    H     H_    0.610655 0.315338 0.121839 0.153557
H2    H     H_    0.616484 0.317848 0.899055 0.159888
H3    H     H_    0.519872 0.790900 0.885712 0.195272
H4    H     H_    0.343812 0.796963 0.099938 0.188758
H5    H     H_    0.345434 0.796114 0.878276 0.197266
H6    H     H_    0.518335 0.792517 0.107709 0.207855
H7    H     H_    0.121360 0.398926 0.667550 0.147349
H8    H     H_    0.897140 0.404904 0.670819 0.140805
H9    H     H_    0.387570 0.866387 0.340026 0.131369
H10   H     H_    0.612731 0.859196 0.659614 0.135715
N1    N     N_R   0.500000 0.852070 0.500000 -0.185632
N2    N     N_R   0.500000 0.147940 0.500000 -0.166518
O1    O     O_R   0.319640 0.618740 0.499990 -0.569920
O2    O     O_R   0.680360 0.618740 0.500010 -0.568988
O3    O     O_R   0.319620 0.381170 0.499990 -0.574156
O4    O     O_R   0.680380 0.381170 0.500010 -0.570798
O5    O     O_R   0.499990 0.618810 0.319660 -0.584473
O6    O     O_R   0.500010 0.618810 0.680340 -0.582295
O7    O     O_R   0.499960 0.381240 0.319650 -0.585374
O8    O     O_R   0.500040 0.381240 0.680350 -0.583872
C23   C     C_3   0.854497 0.611615 0.272977 -0.870281
H11   H     H_    0.869197 0.724438 0.260955 0.237183
H12   H     H_    0.883175 0.556704 0.188941 0.227004
H13   H     H_    0.753394 0.594845 0.278956 0.231669
C24   C     C_3   0.132078 0.627743 0.281968 -0.882730
H14   H     H_    0.185404 0.717706 0.316889 0.239772
H15   H     H_    0.197762 0.551326 0.244501 0.207436
H16   H     H_    0.072225 0.666106 0.203214 0.237321
C25   C     C_3   0.376301 0.130591 0.286418 -0.353383
C26   C     C_3   0.251254 0.202386 0.303858 -0.723246
H17   H     H_    0.213794 0.177639 0.396039 0.253294
H18   H     H_    0.260522 0.315299 0.289901 0.244632
H19   H     H_    0.181724 0.167828 0.232443 0.203387
H20   H     H_    0.439858 0.189037 0.228483 0.213224
H21   H     H_    0.354640 0.045242 0.221304 0.139009
C27   C     C_3   0.610095 0.119326 0.717285 -0.363087
C28   C     C_3   0.733776 0.193997 0.708596 -0.770464
H22   H     H_    0.782191 0.166488 0.623080 0.257988
H23   H     H_    0.718370 0.306573 0.712745 0.248372
H24   H     H_    0.796214 0.165580 0.789419 0.203781
H25   H     H_    0.537004 0.173586 0.766126 0.211071
H26   H     H_    0.629128 0.032011 0.783865 0.142587

loop_
_geom_bond_atom_site_label_1
_geom_bond_atom_site_label_2
_ccdc_geom_bond_type
C16   H4    S    
C28   H24   S    
C8    O8    A    
C25   H20   S    
C4    N2    A    
C25   C26   S    
C7    O7    A    
Cu1   O2    S    
C11   C13   A    
C9    C10   A    
C2    O2    A    
C15   H3    S    
Cu1   O5    S    
C1    O1    A    
C8    C12   S    
C24   H16   S    
C4    C27   S    
C23   H12   S    
C17   C18   A    
C25   H21   S    
C3    C5    A    
C27   H26   S    
Cu1   O1    S    
C21   C22   A    
C14   H2    S    
C7    C11   S    
C9    C11   A    
C13   H1    S    
Cu2   N2    S    
Cu1   O6    S    
C10   C12   A    
C3    N2    A    
C22   C24   S    
C17   H7    S    
C5    N1    A    
C19   C21   A    
C9    C16   S    
C8    O6    A    
C27   H25   S    
C15   H5    S    
C21   C23   S    
C10   C15   S    
C7    O5    A    
C20   C22   A    
C28   H22   S    
Cu2   O8    S    
Cu1   N1    S    
C26   H18   S    
C18   H8    S    
C1    O3    A    
Cu1   Cu2   S    
C16   H6    S    
C15   C16   S    
C2    O4    A    
Cu2   O3    S    
C6    N1    A    
C4    C6    A    
C24   H14   S    
C23   H13   S    
C28   H23   S    
Cu2   O7    S    
C26   H17   S    
C18   C19   A    
C1    C20   S    
C3    C25   S    
C13   C14   A    
Cu2   O4    S    
C2    C19   S    
C23   H11   S    
C17   C20   A    
C6    H10   S    
C12   C14   A    
C27   C28   S    
C24   H15   S    
C26   H19   S    
C5    H9    S    
