data_mof_unit_56079.cif
_audit_creation_date              2012-12-11T17:15:02-0500
_audit_creation_method            fapswitch 2.2
_symmetry_space_group_name_H-M    P1
_symmetry_Int_Tables_number       1
_space_group_crystal_system       monoclinic
_cell_length_a                    7.222876
_cell_length_b                    12.235693
_cell_length_c                    21.237819
_cell_angle_alpha                 90.0
_cell_angle_beta                  90.822964
_cell_angle_gamma                 90.0
_cell_volume                      1876.73885405

loop_
_atom_site_label
_atom_site_type_symbol
_atom_type_description
_atom_site_fract_x
_atom_site_fract_y
_atom_site_fract_z
_atom_type_partial_charge
O1    O     O_R   0.354460 0.152320 0.595720 -0.535698
O2    O     O_R   0.645540 0.847680 0.404280 -0.538137
O3    O     O_R   0.145540 0.652320 0.404280 -0.535698
O4    O     O_R   0.854460 0.347680 0.595720 -0.538137
O5    O     O_R   0.683670 0.140090 0.727290 -0.534327
O6    O     O_R   0.316330 0.859910 0.272710 -0.533259
O7    O     O_R   0.816330 0.640090 0.272710 -0.534327
O8    O     O_R   0.183670 0.359910 0.727290 -0.533259
O9    O     O_R   0.854010 0.349340 0.727750 -0.540696
O10   O     O_R   0.145990 0.650660 0.272250 -0.540378
O11   O     O_R   0.645990 0.849340 0.272250 -0.540696
O12   O     O_R   0.354010 0.150660 0.727750 -0.540379
C1    C     C_R   0.516649 0.111697 0.746424 0.773808
C2    C     C_R   0.483078 0.887569 0.253067 0.768094
C3    C     C_R   0.983350 0.611697 0.253576 0.773808
C4    C     C_R   0.016922 0.387569 0.746933 0.768094
O13   O     O_R   0.684170 0.139420 0.596190 -0.527824
O14   O     O_R   0.315830 0.860580 0.403810 -0.528167
O15   O     O_R   0.815830 0.639420 0.403810 -0.527824
O16   O     O_R   0.184170 0.360580 0.596190 -0.528167
C5    C     C_R   0.514892 0.113188 0.574415 0.776668
C6    C     C_R   0.485100 0.886770 0.425606 0.772561
C7    C     C_R   0.985108 0.613188 0.425585 0.776668
C8    C     C_R   0.014900 0.386770 0.574393 0.772561
O17   O     O_3   0.520730 0.319480 0.661730 -0.376896
O18   O     O_3   0.479270 0.680520 0.338270 -0.374546
O19   O     O_3   0.979270 0.819480 0.338270 -0.376896
O20   O     O_3   0.020730 0.180520 0.661730 -0.374546
V1    V     V_3+5 0.795560 0.238090 0.661730 1.586847
V2    V     V_3+5 0.204440 0.761910 0.338270 1.594127
V3    V     V_3+5 0.704440 0.738090 0.338270 1.586847
V4    V     V_3+5 0.295560 0.261910 0.661730 1.594127
C9    C     C_R   0.015697 0.467108 0.798154 -0.143236
C10   C     C_R   0.987001 0.531240 0.203002 -0.160793
C11   C     C_R   0.484303 0.967108 0.201846 -0.143236
C12   C     C_R   0.512999 0.031240 0.796998 -0.160793
C13   C     C_R   0.071741 0.648509 0.838956 -0.265547
C14   C     C_R   0.956541 0.346878 0.163636 -0.250064
C15   C     C_R   0.428259 0.148509 0.161044 -0.265546
C16   C     C_R   0.543458 0.846878 0.836363 -0.250063
C17   C     C_R   0.053826 0.578158 0.787498 0.410035
C18   C     C_R   0.962391 0.419176 0.214578 0.445020
C19   C     C_R   0.446174 0.078158 0.212502 0.410035
C20   C     C_R   0.537609 0.919176 0.785422 0.445020
C21   C     C_R   0.994235 0.427896 0.859389 -0.297839
C22   C     C_R   0.007848 0.569736 0.141744 -0.300618
C23   C     C_R   0.505765 0.927897 0.140611 -0.297839
C24   C     C_R   0.492153 0.069737 0.858255 -0.300618
C25   C     C_R   0.015534 0.497366 0.912091 0.095049
C26   C     C_R   0.002966 0.498179 0.089707 0.098853
C27   C     C_R   0.484466 0.997366 0.087909 0.095049
C28   C     C_R   0.497034 0.998179 0.910292 0.098853
C29   C     C_R   0.053405 0.609328 0.900576 0.074469
C30   C     C_R   0.974381 0.385432 0.101709 0.051050
C31   C     C_R   0.446595 0.109328 0.099424 0.074469
C32   C     C_R   0.525619 0.885432 0.898291 0.051050
C33   C     C_R   0.002874 0.459279 0.975581 0.065739
C34   C     C_R   0.021717 0.535381 0.026336 0.068864
C35   C     C_R   0.497126 0.959279 0.024418 0.065739
C36   C     C_R   0.478283 0.035381 0.973664 0.068864
C37   C     C_R   0.060337 0.645966 0.012107 -0.196468
C38   C     C_R   0.974585 0.347664 0.990104 -0.194336
C39   C     C_R   0.439664 0.145966 0.987893 -0.196468
C40   C     C_R   0.525415 0.847664 0.009896 -0.194336
C41   C     C_R   0.075491 0.681741 0.950567 -0.172999
C42   C     C_R   0.962006 0.311832 0.051866 -0.173116
C43   C     C_R   0.424509 0.181741 0.049433 -0.172999
C44   C     C_R   0.537994 0.811832 0.948134 -0.173116
H1    H     H_    0.105913 0.767256 0.942078 0.141741
H2    H     H_    0.940691 0.225445 0.060630 0.141171
H3    H     H_    0.394087 0.267256 0.057922 0.141741
H4    H     H_    0.559308 0.725445 0.939370 0.141171
H5    H     H_    0.021783 0.656885 0.136587 0.116047
H6    H     H_    0.965038 0.341977 0.863945 0.114893
H7    H     H_    0.478218 0.156885 0.863413 0.116047
H8    H     H_    0.534962 0.841977 0.136055 0.114892
H9    H     H_    0.103031 0.734022 0.831253 0.152045
H10   H     H_    0.936259 0.260383 0.172061 0.180957
H11   H     H_    0.396969 0.234022 0.168746 0.152045
H12   H     H_    0.563740 0.760383 0.827939 0.180957
H13   H     H_    0.083401 0.707665 0.047433 0.128105
H14   H     H_    0.963334 0.284741 0.954885 0.127491
H15   H     H_    0.416599 0.207666 0.952567 0.128105
H16   H     H_    0.536665 0.784741 0.045115 0.127491
C45   C     C_1   0.995656 0.533131 0.478082 -0.071363
C46   C     C_1   0.004357 0.466803 0.521883 -0.075578
C47   C     C_1   0.504344 0.033131 0.521918 -0.071362
C48   C     C_1   0.495643 0.966803 0.478117 -0.075579
S1    S     S_3+6 0.939777 0.368477 0.292127 0.016812
O21   O     O_2   0.107190 0.401047 0.330533 -0.309785
O22   O     O_2   0.770612 0.417254 0.321405 -0.348159
O23   O     O_3   0.920590 0.231571 0.291608 -0.464287
H17   H     H_    0.916398 0.210544 0.336602 0.411846
S2    S     S_3+6 0.079548 0.630459 0.710450 0.052923
O24   O     O_2   0.254684 0.585919 0.683090 -0.301329
O25   O     O_2   0.918673 0.595167 0.669671 -0.350066
O26   O     O_3   0.090986 0.767604 0.711284 -0.426319
H18   H     H_    0.974849 0.791438 0.731257 0.366613
S3    S     S_3+6 0.560222 0.868477 0.707873 0.016813
O27   O     O_2   0.392809 0.901047 0.669467 -0.309785
O28   O     O_2   0.729388 0.917254 0.678595 -0.348159
O29   O     O_3   0.579410 0.731571 0.708391 -0.464287
H19   H     H_    0.583602 0.710544 0.663398 0.411846
S4    S     S_3+6 0.420452 0.130459 0.289550 0.052923
O30   O     O_2   0.245317 0.085919 0.316910 -0.301329
O31   O     O_2   0.581327 0.095167 0.330329 -0.350066
O32   O     O_3   0.409013 0.267604 0.288716 -0.426319
H20   H     H_    0.525150 0.291438 0.268743 0.366613

loop_
_geom_bond_atom_site_label_1
_geom_bond_atom_site_label_2
_ccdc_geom_bond_type
C47   C48   T    
C5    C47   S    
O1    C5    A    
C9    C21   A    
O3    C7    A    
C10   C18   A    
C11   C23   A    
S4    O31   D    
O26   H18   S    
C25   C33   A    
C33   C38   A    
C45   C46   T    
C35   C40   A    
C26   C30   A    
C36   C39   A    
C40   C44   A    
O20   V1    S    
O9    C4    A    
C23   H8    S    
C14   C18   A    
O10   C3    A    
O4    C8    A    
C20   S3    S    
C25   C29   A    
C43   H3    S    
O13   V1    S    
C19   S4    S    
C40   H16   S    
C28   C36   A    
C15   C31   A    
S3    O27   D    
C16   C32   A    
O2    C6    A    
O32   H20   S    
C16   H12   S    
C10   C22   A    
C6    C48   S    
S1    O22   D    
C11   C19   A    
C3    C10   S    
O5    C1    A    
O4    V1    S    
O9    V1    S    
C13   C29   A    
C34   C37   A    
O7    C3    A    
C38   H14   S    
O15   V3    S    
C35   C36   A    
O8    C4    A    
O12   V4    S    
O19   V2    S    
C24   H7    S    
S2    O24   D    
S4    O30   D    
O5    V1    S    
C39   C43   A    
O7    V3    S    
C38   C42   A    
O8    V4    S    
O16   C8    A    
C1    C12   S    
C2    C11   S    
C23   C27   A    
C14   H10   S    
S2    O26   S    
C32   C44   A    
C13   H9    S    
O1    V4    S    
O13   C5    A    
C39   H15   S    
O2    V3    S    
C26   C34   A    
O3    V2    S    
O15   C7    A    
C4    C9    S    
O6    C2    A    
O10   V2    S    
C31   C43   A    
C17   S2    S    
C14   C30   A    
C21   C25   A    
C44   H4    S    
S1    O23   S    
S2    O25   D    
O14   V2    S    
O6    V2    S    
C16   C20   A    
C12   C20   A    
C27   C35   A    
C29   C41   A    
O16   V4    S    
S3    O28   D    
O14   C6    A    
O18   V3    S    
C15   C19   A    
C30   C42   A    
C22   C26   A    
C18   S1    S    
C9    C17   A    
C37   H13   S    
C33   C34   A    
C42   H2    S    
O17   V4    S    
C41   H1    S    
O23   H17   S    
O11   C2    A    
C12   C24   A    
C27   C31   A    
C22   H5    S    
C13   C17   A    
O29   H19   S    
O11   V3    S    
C37   C41   A    
C24   C28   A    
S3    O29   S    
O12   C1    A    
C7    C45   S    
C21   H6    S    
S1    O21   D    
C8    C46   S    
S4    O32   S    
C28   C32   A    
C15   H11   S    
