data_mof_unit_5631.cif
_audit_creation_date              2012-12-11T14:03:51-0500
_audit_creation_method            fapswitch 2.2
_symmetry_space_group_name_H-M    P1
_symmetry_Int_Tables_number       1
_space_group_crystal_system       triclinic
_cell_length_a                    19.022224
_cell_length_b                    11.102723
_cell_length_c                    18.844251
_cell_angle_alpha                 90.159051
_cell_angle_beta                  89.47505
_cell_angle_gamma                 90.14656
_cell_volume                      3979.68210199

loop_
_atom_site_label
_atom_site_type_symbol
_atom_type_description
_atom_site_fract_x
_atom_site_fract_y
_atom_site_fract_z
_atom_type_partial_charge
C1    C     C_R   0.241127 0.465058 0.647918 0.563305
C2    C     C_R   0.759014 0.465442 0.352172 0.563078
C3    C     C_R   0.741127 0.965058 0.647918 0.563775
C4    C     C_R   0.259014 0.965443 0.352173 0.562874
C5    C     C_2   0.288081 0.834074 0.532325 0.027482
C6    C     C_2   0.714011 0.826587 0.468614 0.021726
C7    C     C_2   0.788084 0.334084 0.532328 0.027599
C8    C     C_2   0.214014 0.326580 0.468617 0.021622
C9    C     C_R   0.958444 0.652007 0.438399 -0.036645
C10   C     C_R   0.040609 0.656796 0.561871 -0.034742
C11   C     C_R   0.458450 0.152009 0.438397 -0.036318
C12   C     C_R   0.540615 0.156796 0.561870 -0.035216
C13   C     C_R   0.936753 0.865757 0.454687 -0.093496
C14   C     C_R   0.040330 0.880031 0.554509 -0.088145
C15   C     C_R   0.436763 0.365762 0.454684 -0.093516
C16   C     C_R   0.540341 0.380028 0.554505 -0.088081
C17   C     C_R   0.955094 0.976830 0.481718 -0.097680
C18   C     C_R   0.008057 0.984362 0.531255 -0.088491
C19   C     C_R   0.455105 0.476832 0.481717 -0.097815
C20   C     C_R   0.508069 0.484361 0.531253 -0.088387
C21   C     C_R   0.018671 0.765773 0.530491 0.007993
C22   C     C_R   0.971996 0.761221 0.473345 0.005861
C23   C     C_R   0.518679 0.265772 0.530487 0.007925
C24   C     C_R   0.472004 0.261223 0.473342 0.005915
C25   C     C_R   0.026335 0.547006 0.526647 0.028220
C26   C     C_R   0.978046 0.543510 0.471530 0.033582
C27   C     C_R   0.526340 0.047006 0.526645 0.028073
C28   C     C_R   0.478050 0.043512 0.471529 0.033687
C29   C     C_R   0.057770 0.438625 0.547007 -0.068095
C30   C     C_R   0.952021 0.430303 0.449904 -0.059605
C31   C     C_R   0.557772 0.938624 0.547007 -0.068000
C32   C     C_R   0.452023 0.930306 0.449904 -0.059764
C33   C     C_R   0.033792 0.328467 0.523294 -0.074175
C34   C     C_R   0.980366 0.323974 0.474511 -0.067365
C35   C     C_R   0.533792 0.828467 0.523294 -0.073935
C36   C     C_R   0.480366 0.823976 0.474511 -0.067596
C37   C     C_2   0.259998 0.948216 0.908381 -0.077568
C38   C     C_2   0.744621 0.933462 0.086733 -0.093579
C39   C     C_2   0.759917 0.448524 0.908241 -0.076227
C40   C     C_2   0.244886 0.432808 0.086405 -0.095139
C41   C     C_2   0.274050 0.002129 0.063730 -0.112905
C42   C     C_2   0.733674 0.973761 0.931465 -0.140976
C43   C     C_2   0.773063 0.499732 0.063847 -0.114965
C44   C     C_2   0.233724 0.474190 0.931504 -0.129156
C45   C     C_R   0.227437 0.872912 0.646905 0.540050
C46   C     C_R   0.772290 0.872799 0.353189 0.536860
C47   C     C_R   0.727438 0.372915 0.646906 0.539529
C48   C     C_R   0.272291 0.372795 0.353191 0.537456
C49   C     C_2   0.222894 0.048338 0.021382 -0.029079
C50   C     C_2   0.767065 0.043176 0.978963 -0.029534
C51   C     C_2   0.722685 0.548103 0.021421 -0.023829
C52   C     C_2   0.267937 0.543007 0.978770 -0.031341
C53   C     C_2   0.219261 0.026056 0.944156 -0.157633
C54   C     C_2   0.788803 0.995066 0.045795 -0.158828
C55   C     C_2   0.718717 0.525254 0.944315 -0.151790
C56   C     C_2   0.289133 0.494984 0.045827 -0.160377
C57   C     C_2   0.991676 0.662705 0.917366 -0.106877
C58   C     C_2   0.990597 0.655798 0.074102 -0.093950
C59   C     C_2   0.511664 0.155726 0.926796 -0.095871
C60   C     C_2   0.509741 0.163866 0.083446 -0.105739
C61   C     C_2   0.967862 0.566783 0.031372 -0.154102
C62   C     C_2   0.980673 0.563357 0.955580 -0.156413
C63   C     C_2   0.523817 0.065418 0.045308 -0.152932
C64   C     C_2   0.538495 0.070875 0.969716 -0.137569
C65   C     C_R   0.060980 0.650957 0.637541 0.536600
C66   C     C_R   0.938602 0.649844 0.362401 0.533938
C67   C     C_R   0.560982 0.150956 0.637541 0.537208
C68   C     C_R   0.438605 0.149845 0.362401 0.533542
C69   C     C_R   0.225372 0.513848 0.858992 0.565079
C70   C     C_R   0.775426 0.518458 0.141391 0.549219
C71   C     C_R   0.725374 0.013704 0.859002 0.559786
C72   C     C_R   0.275619 0.019060 0.141504 0.553891
C73   C     C_R   0.229962 0.880599 0.848802 0.584218
C74   C     C_R   0.771949 0.874812 0.148586 0.559610
C75   C     C_R   0.730004 0.380771 0.848673 0.585687
C76   C     C_R   0.271996 0.374679 0.148515 0.559482
C77   C     C_R   0.028325 0.652507 0.849949 0.566785
C78   C     C_R   0.968417 0.651520 0.147792 0.558208
C79   C     C_R   0.532204 0.151500 0.852587 0.561861
C80   C     C_R   0.471798 0.152601 0.150134 0.556516
C81   C     C_2   0.247992 0.907261 0.574339 -0.125223
C82   C     C_2   0.751331 0.904335 0.426312 -0.132098
C83   C     C_2   0.747992 0.407267 0.574340 -0.125314
C84   C     C_2   0.251334 0.404327 0.426315 -0.131951
C85   C     C_2   0.240137 0.904581 0.418370 -0.120981
C86   C     C_2   0.760774 0.903593 0.581944 -0.123896
C87   C     C_2   0.740138 0.404581 0.418370 -0.121371
C88   C     C_2   0.260775 0.403588 0.581947 -0.123592
C89   C     C_2   0.287027 0.840548 0.453924 -0.189066
C90   C     C_2   0.715346 0.835036 0.547128 -0.191792
C91   C     C_2   0.787027 0.340549 0.453926 -0.189189
C92   C     C_2   0.215346 0.335033 0.547130 -0.191678
Cr1   Cr    Cr6+3 0.113970 0.508630 0.747920 1.028759
Cr2   Cr    Cr6+3 0.886030 0.508630 0.252080 1.034214
Cr3   Cr    Cr6+3 0.613970 0.008630 0.747920 1.028181
Cr4   Cr    Cr6+3 0.386030 0.008630 0.252080 1.034438
Cr5   Cr    Cr6+3 0.269200 0.666740 0.749850 1.077975
Cr6   Cr    Cr6+3 0.730800 0.666740 0.250150 1.094535
Cr7   Cr    Cr6+3 0.769200 0.166740 0.749850 1.075264
Cr8   Cr    Cr6+3 0.230800 0.166740 0.250150 1.097221
Cr9   Cr    Cr6+3 0.112300 0.820070 0.749800 1.020337
Cr10  Cr    Cr6+3 0.887700 0.820070 0.250200 1.039194
Cr11  Cr    Cr6+3 0.612300 0.320070 0.749800 1.022199
Cr12  Cr    Cr6+3 0.387700 0.320070 0.250200 1.036874
H1    H     H_    0.328814 0.796208 0.424531 0.138111
H2    H     H_    0.673822 0.791013 0.577187 0.144059
H3    H     H_    0.828814 0.296206 0.424533 0.138114
H4    H     H_    0.173820 0.291015 0.577189 0.143987
H5    H     H_    0.171602 0.058006 0.918916 0.168109
H6    H     H_    0.842856 0.012398 0.061256 0.169779
H7    H     H_    0.670793 0.556561 0.919305 0.167951
H8    H     H_    0.342945 0.513090 0.061832 0.170545
H9    H     H_    0.318655 0.955298 0.040770 0.133197
H10   H     H_    0.717784 0.882394 0.944820 0.138286
H11   H     H_    0.816265 0.449210 0.041059 0.123517
H12   H     H_    0.216970 0.383380 0.945135 0.137860
H13   H     H_    0.310367 0.920045 0.928503 0.173201
H14   H     H_    0.689931 0.921760 0.072289 0.161495
H15   H     H_    0.810560 0.421275 0.928116 0.166610
H16   H     H_    0.190403 0.420160 0.071497 0.168795
H17   H     H_    0.940960 0.488356 0.052846 0.166323
H18   H     H_    0.985381 0.474280 0.931984 0.181680
H19   H     H_    0.520192 0.976139 0.068566 0.183610
H20   H     H_    0.569539 0.996926 0.948300 0.169270
H21   H     H_    0.017682 0.734976 0.053996 0.111558
H22   H     H_    0.983645 0.751816 0.939895 0.112444
H23   H     H_    0.516914 0.253273 0.061171 0.119606
H24   H     H_    0.480912 0.230939 0.946773 0.098315
H25   H     H_    0.190968 0.929981 0.443486 0.166469
H26   H     H_    0.809409 0.931184 0.556457 0.166117
H27   H     H_    0.690969 0.429984 0.443487 0.166438
H28   H     H_    0.309412 0.431172 0.556460 0.166149
H29   H     H_    0.217719 0.979542 0.551433 0.130944
H30   H     H_    0.779503 0.979576 0.449330 0.118755
H31   H     H_    0.717716 0.479543 0.551434 0.130970
H32   H     H_    0.279506 0.479569 0.449333 0.118767
H33   H     H_    0.927647 0.055093 0.463721 0.155519
H34   H     H_    0.022596 0.069259 0.553931 0.120328
H35   H     H_    0.427659 0.555097 0.463722 0.155500
H36   H     H_    0.522610 0.569256 0.553930 0.120428
H37   H     H_    0.891840 0.858595 0.423235 0.151502
H38   H     H_    0.082779 0.890571 0.589811 0.173084
H39   H     H_    0.391850 0.358604 0.423232 0.151599
H40   H     H_    0.582791 0.390564 0.589806 0.172981
H41   H     H_    0.910511 0.423406 0.412746 0.147721
H42   H     H_    0.100332 0.439366 0.582689 0.149348
H43   H     H_    0.410511 0.923411 0.412748 0.147833
H44   H     H_    0.600332 0.939363 0.582691 0.149184
H45   H     H_    0.057849 0.247998 0.542640 0.116802
H46   H     H_    0.961881 0.239339 0.454194 0.104378
H47   H     H_    0.557848 0.747998 0.542641 0.116883
H48   H     H_    0.461879 0.739343 0.454194 0.104290
O1    O     O_R   0.043230 0.549300 0.667990 -0.497764
O2    O     O_R   0.956770 0.549300 0.332010 -0.500951
O3    O     O_R   0.543230 0.049300 0.667990 -0.495282
O4    O     O_R   0.456770 0.049300 0.332010 -0.502891
O5    O     O_R   0.262920 0.788600 0.824420 -0.469609
O6    O     O_R   0.737080 0.788600 0.175580 -0.487060
O7    O     O_R   0.762920 0.288600 0.824420 -0.470969
O8    O     O_R   0.237080 0.288600 0.175580 -0.486131
O9    O     O_R   0.167530 0.905110 0.830340 -0.517314
O10   O     O_R   0.832470 0.905110 0.169660 -0.510049
O11   O     O_R   0.667530 0.405110 0.830340 -0.516973
O12   O     O_R   0.332470 0.405110 0.169660 -0.510380
O13   O     O_R   0.054010 0.748440 0.822860 -0.487119
O14   O     O_R   0.945990 0.748440 0.177140 -0.485475
O15   O     O_R   0.554010 0.248440 0.822860 -0.483114
O16   O     O_R   0.445990 0.248440 0.177140 -0.489103
O17   O     O_3   0.165160 0.665150 0.749190 -0.303357
O18   O     O_3   0.834840 0.665150 0.250810 -0.317700
O19   O     O_3   0.665160 0.165150 0.749190 -0.304600
O20   O     O_3   0.334840 0.165150 0.250810 -0.317032
O21   O     O_R   0.178620 0.457600 0.674100 -0.536112
O22   O     O_R   0.821380 0.457600 0.325900 -0.532581
O23   O     O_R   0.678620 0.957600 0.674100 -0.535391
O24   O     O_R   0.321380 0.957600 0.325900 -0.533033
O25   O     O_R   0.284680 0.542100 0.669460 -0.473431
O26   O     O_R   0.715320 0.542100 0.330540 -0.477972
O27   O     O_R   0.784680 0.042100 0.669460 -0.473434
O28   O     O_R   0.215320 0.042100 0.330540 -0.478075
O29   O     O_R   0.262860 0.790390 0.676650 -0.453596
O30   O     O_R   0.737140 0.790390 0.323350 -0.447125
O31   O     O_R   0.762860 0.290390 0.676650 -0.454111
O32   O     O_R   0.237140 0.290390 0.323350 -0.446830
O33   O     O_R   0.167460 0.907030 0.670940 -0.554439
O34   O     O_R   0.832540 0.907030 0.329060 -0.544518
O35   O     O_R   0.667460 0.407030 0.670940 -0.554522
O36   O     O_R   0.332540 0.407030 0.329060 -0.544366
O37   O     O_R   0.053950 0.750220 0.675100 -0.503164
O38   O     O_R   0.946050 0.750220 0.324900 -0.487129
O39   O     O_R   0.553950 0.250220 0.675100 -0.501667
O40   O     O_R   0.446050 0.250220 0.324900 -0.488347
O41   O     O_R   0.043300 0.547370 0.827390 -0.507367
O42   O     O_R   0.956700 0.547370 0.172610 -0.502969
O43   O     O_R   0.543300 0.047370 0.827390 -0.505540
O44   O     O_R   0.456700 0.047370 0.172610 -0.506385
O45   O     O_R   0.178690 0.455820 0.821860 -0.492468
O46   O     O_R   0.821310 0.455820 0.178140 -0.487792
O47   O     O_R   0.678690 0.955820 0.821860 -0.499059
O48   O     O_R   0.321310 0.955820 0.178140 -0.481644
O49   O     O_R   0.284750 0.540170 0.828860 -0.507588
O50   O     O_R   0.715250 0.540170 0.171140 -0.475768
O51   O     O_R   0.784750 0.040170 0.828860 -0.503210
O52   O     O_R   0.215250 0.040170 0.171140 -0.476419
C93   C     C_2   0.339715 0.749185 0.561879 0.609848
O53   O     O_2   0.341301 0.645913 0.540101 -0.593062
O54   O     O_R   0.387639 0.787967 0.613028 -0.663771
H49   H     H_    0.420526 0.721413 0.628393 0.324848
C94   C     C_2   0.663389 0.736825 0.440189 0.608992
O55   O     O_2   0.657218 0.639053 0.469064 -0.593135
O56   O     O_R   0.618160 0.767790 0.385018 -0.655674
H50   H     H_    0.585058 0.699724 0.371889 0.330174
C95   C     C_2   0.839724 0.249208 0.561886 0.610020
O57   O     O_2   0.841314 0.145932 0.540115 -0.593002
O58   O     O_R   0.887644 0.288006 0.613034 -0.664701
H51   H     H_    0.920533 0.221459 0.628405 0.324483
C96   C     C_2   0.163393 0.236816 0.440193 0.608815
O59   O     O_2   0.157222 0.139045 0.469070 -0.593176
O60   O     O_R   0.118162 0.267778 0.385022 -0.654894
H52   H     H_    0.085059 0.199711 0.371897 0.330436
C97   C     C_2   0.158703 0.108188 0.049759 0.629510
O61   O     O_2   0.149996 0.215366 0.039552 -0.513907
O62   O     O_R   0.104927 0.041414 0.082156 -0.634934
H53   H     H_    0.115538 0.952021 0.083549 0.314701
C98   C     C_2   0.785401 0.169606 0.967903 0.598670
O63   O     O_2   0.746387 0.245865 0.992878 -0.516413
O64   O     O_R   0.849502 0.203064 0.936834 -0.683234
H54   H     H_    0.879098 0.131244 0.922211 0.315402
C99   C     C_2   0.659359 0.610845 0.049619 0.628349
O65   O     O_2   0.651594 0.717807 0.038006 -0.525211
O66   O     O_R   0.605041 0.546803 0.083018 -0.635930
H55   H     H_    0.614546 0.457080 0.085086 0.315248
C100  C     C_2   0.287774 0.668806 0.967443 0.598470
O67   O     O_2   0.251073 0.746377 0.994524 -0.517599
O68   O     O_R   0.351147 0.700001 0.934080 -0.672909
H56   H     H_    0.379487 0.627170 0.918672 0.316258

loop_
_geom_bond_atom_site_label_1
_geom_bond_atom_site_label_2
_ccdc_geom_bond_type
Cr10  O18   S    
C67   O39   A    
C7    C83   D    
C14   H38   S    
C69   O49   A    
C46   O30   A    
C6    C82   D    
C87   C91   D    
Cr8   O20   S    
C14   C18   A    
C35   C36   A    
C3    O23   A    
Cr3   O23   S    
C34   H46   S    
C79   O43   A    
C57   C62   D    
C33   H45   S    
C6    C94   S    
C93   O53   D    
C11   C68   S    
C15   C19   A    
C12   C23   A    
Cr1   O17   S    
C59   C64   D    
C50   C54   S    
C60   C63   D    
Cr4   O48   S    
C32   C36   A    
C14   C21   A    
C61   H17   S    
C17   H33   S    
C16   H40   S    
C48   O36   A    
C98   O64   S    
Cr7   O7    S    
C50   C98   S    
C49   C53   S    
C9    C22   A    
Cr7   O19   S    
C68   O40   A    
C77   O13   A    
Cr12  O40   S    
C73   O5    A    
C11   C24   A    
Cr5   O17   S    
C54   H6    S    
C75   O11   A    
C78   O42   A    
C87   H27   S    
C18   H34   S    
C3    O27   A    
C9    C66   S    
C65   O1    A    
C8    C96   S    
C81   H29   S    
C85   H25   S    
C46   C82   S    
C1    O25   A    
C92   H4    S    
C39   C55   D    
C88   C92   D    
C29   C33   A    
C40   C56   D    
C71   O51   A    
C17   C18   A    
C9    C26   A    
C73   O9    A    
O68   H56   S    
C29   H42   S    
Cr9   O17   S    
C8    C92   S    
C39   C75   S    
Cr6   O26   S    
C100  O67   D    
Cr7   O31   S    
Cr3   O43   S    
C16   C20   A    
C72   O52   A    
Cr12  O20   S    
C27   C28   A    
C37   C53   D    
C44   C52   D    
C1    C88   S    
C95   O58   S    
C70   O46   A    
C8    C84   D    
C21   C22   A    
C3    C86   S    
C69   O45   A    
C61   C62   S    
C35   H47   S    
C4    O28   A    
Cr9   O33   S    
C1    O21   A    
C41   C49   D    
Cr1   O21   S    
C42   H10   S    
C52   C100  S    
C98   O63   D    
C93   O54   S    
C10   C21   A    
C25   C29   A    
Cr12  O36   S    
C12   C67   S    
C45   C81   S    
C78   O14   A    
C76   O8    A    
C30   C34   A    
C12   C27   A    
C45   O29   A    
O54   H49   S    
Cr6   O6    S    
C28   C32   A    
Cr11  O35   S    
C90   H2    S    
O62   H53   S    
C47   O31   A    
C86   C90   D    
C59   C79   S    
C57   H22   S    
C74   O10   A    
C74   O6    A    
C86   H26   S    
C36   H48   S    
C4    C85   S    
C25   C26   A    
C95   O57   D    
C27   C31   A    
C70   O50   A    
C48   C84   S    
C43   H11   S    
Cr11  O11   S    
Cr2   O46   S    
C88   H28   S    
Cr5   O5    S    
C82   H30   S    
Cr1   O45   S    
O58   H51   S    
O56   H50   S    
Cr7   O27   S    
C99   O65   D    
C94   O56   S    
C57   C77   S    
C72   O48   A    
C97   O61   D    
C5    C81   D    
Cr8   O8    S    
Cr5   O25   S    
O64   H54   S    
C38   C54   D    
Cr2   O2    S    
C7    C91   S    
C59   H24   S    
C94   O55   D    
C37   H13   S    
C2    C87   S    
Cr10  O34   S    
Cr11  O15   S    
C46   O34   A    
Cr5   O29   S    
C100  O68   S    
C56   H8    S    
C7    C95   S    
C42   C50   D    
C41   C72   S    
C15   H39   S    
C31   H44   S    
C10   C25   A    
Cr3   O47   S    
C15   C24   A    
C40   H16   S    
C65   O37   A    
C26   C30   A    
C16   C23   A    
C47   C83   S    
C4    O24   A    
Cr9   O13   S    
C32   H43   S    
C76   O12   A    
C55   H7    S    
Cr11  O39   S    
C66   O2    A    
C47   O35   A    
Cr8   O28   S    
C62   H18   S    
Cr10  O10   S    
C30   H41   S    
C48   O32   A    
C38   C74   S    
C10   C65   S    
C75   O7    A    
O60   H52   S    
C37   C73   S    
C60   C80   S    
C85   C89   D    
C51   C99   S    
Cr4   O24   S    
Cr7   O51   S    
C77   O41   A    
Cr2   O42   S    
C83   H31   S    
C13   H37   S    
Cr6   O50   S    
C60   H23   S    
Cr1   O41   S    
C41   H9    S    
C68   O4    A    
Cr12  O12   S    
C63   H19   S    
Cr12  O16   S    
C71   O47   A    
C67   O3    A    
Cr5   O49   S    
Cr6   O30   S    
C43   C70   S    
C45   O33   A    
Cr9   O37   S    
C13   C17   A    
C97   O62   S    
C80   O44   A    
C89   H1    S    
C20   H36   S    
C19   C20   A    
Cr9   O9    S    
C96   O59   D    
C99   O66   S    
C64   H20   S    
C2    O22   A    
Cr8   O52   S    
Cr11  O19   S    
C43   C51   D    
Cr4   O4    S    
C11   C28   A    
C58   C61   D    
C39   H15   S    
C66   O38   A    
C31   C35   A    
Cr1   O1    S    
C42   C71   S    
Cr10  O38   S    
C33   C34   A    
C13   C22   A    
C51   C55   S    
Cr3   O3    S    
C96   O60   S    
Cr8   O32   S    
C5    C89   S    
C58   C78   S    
C23   C24   A    
C5    C93   S    
C63   C64   S    
Cr6   O18   S    
C49   C97   S    
C40   C76   S    
Cr4   O44   S    
C6    C90   S    
C44   H12   S    
C58   H21   S    
Cr10  O14   S    
Cr4   O20   S    
Cr2   O22   S    
O66   H55   S    
C44   C69   S    
C38   H14   S    
C53   H5    S    
C2    O26   A    
C79   O15   A    
Cr3   O19   S    
C80   O16   A    
C19   H35   S    
Cr2   O18   S    
C52   C56   S    
C84   H32   S    
C91   H3    S    
