data_mof_unit_5625.cif
_audit_creation_date              2012-12-10T18:11:09-0500
_audit_creation_method            fapswitch 2.2
_symmetry_space_group_name_H-M    P1
_symmetry_Int_Tables_number       1
_space_group_crystal_system       triclinic
_cell_length_a                    10.725802
_cell_length_b                    9.491481
_cell_length_c                    10.615783
_cell_angle_alpha                 89.726658
_cell_angle_beta                  87.58874
_cell_angle_gamma                 89.975028
_cell_volume                      1079.75726196

loop_
_atom_site_label
_atom_site_type_symbol
_atom_type_description
_atom_site_fract_x
_atom_site_fract_y
_atom_site_fract_z
_atom_type_partial_charge
C1    C     C_R   0.259857 0.499818 0.500165 0.738891
C2    C     C_3   0.499809 0.501375 0.122478 0.029862
C3    C     C_3   0.066563 0.575294 0.618699 -0.398280
C4    C     C_3   0.071170 0.345606 0.500353 -0.378025
C5    C     C_3   0.922639 0.574111 0.619136 -0.378476
C6    C     C_3   0.928519 0.345528 0.499451 -0.379726
C7    C     C_3   0.076883 0.575645 0.380756 -0.376769
C8    C     C_3   0.121727 0.499108 0.500028 0.183253
C9    C     C_3   0.877906 0.498980 0.499789 0.176706
C10   C     C_3   0.932910 0.576312 0.381012 -0.387349
C11   C     C_3   0.601111 0.082791 0.578870 -0.194937
C12   C     C_3   0.601247 0.916336 0.578711 -0.194405
C13   C     C_3   0.377722 0.084139 0.554242 0.189867
C14   C     C_3   0.377773 0.915414 0.554420 0.191706
C15   C     C_3   0.520097 0.083871 0.373824 -0.265663
C16   C     C_3   0.519974 0.917301 0.373821 -0.271241
C17   C     C_R   0.499968 0.500416 0.259510 0.784133
C18   C     C_R   0.739860 0.499766 0.499686 0.754657
C19   C     C_R   0.499859 0.499621 0.740556 0.768386
C20   C     C_3   0.497977 0.634338 0.039854 -0.139340
C21   C     C_3   0.398216 0.431971 0.046814 -0.172558
C22   C     C_3   0.396396 0.564773 0.961896 -0.180994
C23   C     C_3   0.499849 0.498862 0.877534 0.035082
C24   C     C_3   0.601425 0.568320 0.953170 -0.171536
C25   C     C_3   0.501690 0.365971 0.960173 -0.139922
C26   C     C_3   0.603252 0.435547 0.038083 -0.178491
Cu1   Cu    Cu3+1 0.499860 0.642410 0.500060 0.886476
Cu2   Cu    Cu3+1 0.499860 0.357590 0.500060 0.885484
H1    H     H_    0.311845 0.617518 0.927411 0.113200
H2    H     H_    0.899028 0.687137 0.379073 0.159775
H3    H     H_    0.901363 0.523948 0.294325 0.141291
H4    H     H_    0.593511 0.121879 0.677182 0.144668
H5    H     H_    0.594015 0.876057 0.676967 0.147275
H6    H     H_    0.693491 0.119914 0.540715 0.136665
H7    H     H_    0.693619 0.879703 0.540317 0.136546
H8    H     H_    0.445782 0.121835 0.312013 0.145086
H9    H     H_    0.445553 0.880012 0.312171 0.141054
H10   H     H_    0.609996 0.122981 0.330717 0.157082
H11   H     H_    0.609748 0.878364 0.330606 0.156956
H12   H     H_    0.304058 0.116655 0.489126 0.097795
H13   H     H_    0.303941 0.883416 0.489565 0.098742
H14   H     H_    0.496464 0.744320 0.075054 0.117581
H15   H     H_    0.315117 0.376363 0.088359 0.111743
H16   H     H_    0.684488 0.623904 0.911504 0.110896
H17   H     H_    0.503684 0.255904 0.925377 0.117633
H18   H     H_    0.687830 0.382808 0.072494 0.110779
H19   H     H_    0.099552 0.686361 0.619930 0.162470
H20   H     H_    0.109387 0.287818 0.416195 0.156604
H21   H     H_    0.098612 0.522730 0.705573 0.139005
H22   H     H_    0.100946 0.288231 0.585679 0.160002
H23   H     H_    0.884784 0.519190 0.705387 0.142524
H24   H     H_    0.890507 0.287053 0.583782 0.155988
H25   H     H_    0.887417 0.684425 0.622525 0.156039
H26   H     H_    0.898432 0.288812 0.414295 0.156218
H27   H     H_    0.111707 0.686152 0.377684 0.158988
H28   H     H_    0.115069 0.521959 0.294432 0.141769
N1    N     N_3   0.500250 0.143650 0.502780 -0.120897
N2    N     N_3   0.500250 0.856350 0.502780 -0.120233
O1    O     O_R   0.317570 0.620260 0.500070 -0.599015
O2    O     O_R   0.317570 0.379740 0.500070 -0.601005
O3    O     O_R   0.499850 0.620240 0.316900 -0.593232
O4    O     O_R   0.499850 0.379760 0.316900 -0.590614
O5    O     O_R   0.682190 0.620260 0.500030 -0.593188
O6    O     O_R   0.682190 0.379740 0.500030 -0.594065
O7    O     O_R   0.499910 0.620280 0.683200 -0.586532
O8    O     O_R   0.499910 0.379720 0.683200 -0.590374
C27   C     C_3   0.332843 0.147078 0.683933 -0.797512
H29   H     H_    0.396247 0.120141 0.760132 0.212063
H30   H     H_    0.317421 0.260682 0.684384 0.262403
H31   H     H_    0.237553 0.110086 0.710647 0.170797
C28   C     C_3   0.333244 0.851262 0.684339 -0.798620
H32   H     H_    0.397447 0.875914 0.760311 0.218573
H33   H     H_    0.238440 0.888857 0.711973 0.170470
H34   H     H_    0.316758 0.737873 0.684289 0.259821

loop_
_geom_bond_atom_site_label_1
_geom_bond_atom_site_label_2
_ccdc_geom_bond_type
C7    C10   S    
C22   H1    S    
C1    C8    S    
C14   C28   S    
Cu2   O8    S    
C7    H27   S    
C4    C8    S    
C6    C9    S    
C3    H21   S    
C7    C8    S    
Cu2   N1    S    
C5    H25   S    
C24   C26   S    
C1    O1    A    
C13   C27   S    
C18   O5    A    
C13   N1    S    
C15   C16   S    
C19   O8    A    
C13   H12   S    
Cu1   O3    S    
C17   O3    A    
C21   H15   S    
C10   H3    S    
C20   C24   S    
C23   C24   S    
C9    C10   S    
C16   H9    S    
C12   N2    S    
C13   C14   S    
C2    C17   S    
C15   N1    S    
C7    H28   S    
C6    H26   S    
Cu2   O2    S    
C14   N2    S    
C2    C20   S    
C27   H29   S    
C4    C6    S    
C3    C8    S    
C1    O2    A    
C28   H33   S    
C25   C26   S    
C4    H22   S    
C27   H30   S    
C19   C23   S    
C15   H10   S    
C5    C9    S    
Cu1   O7    S    
C17   O4    A    
C10   H2    S    
C2    C21   S    
C2    C26   S    
C16   N2    S    
C12   H7    S    
Cu1   O5    S    
C14   H13   S    
Cu2   O6    S    
C20   C22   S    
C11   H4    S    
C24   H16   S    
C25   H17   S    
C15   H8    S    
C4    H20   S    
C21   C25   S    
C11   H6    S    
C3    C5    S    
Cu1   N2    S    
C28   H34   S    
C20   H14   S    
C11   C12   S    
C27   H31   S    
C21   C22   S    
C28   H32   S    
Cu1   O1    S    
C18   O6    A    
C3    H19   S    
C19   O7    A    
C23   C25   S    
C26   H18   S    
C16   H11   S    
C9    C18   S    
Cu1   Cu2   S    
C22   C23   S    
C5    H23   S    
C6    H24   S    
C12   H5    S    
C11   N1    S    
Cu2   O4    S    
