data_mof_unit_62636.cif
_audit_creation_date              2012-10-26T17:43:25-0400
_audit_creation_method            fapswitch 2.2
_symmetry_space_group_name_H-M    P1
_symmetry_Int_Tables_number       1
_space_group_crystal_system       tetragonal
_cell_length_a                    18.366306
_cell_length_b                    18.366306
_cell_length_c                    21.820341
_cell_angle_alpha                 90.0
_cell_angle_beta                  90.0
_cell_angle_gamma                 90.0
_cell_volume                      7360.46352512

loop_
_atom_site_label
_atom_site_type_symbol
_atom_type_description
_atom_site_fract_x
_atom_site_fract_y
_atom_site_fract_z
_atom_type_partial_charge
C1    C     C_R   1.000000 0.360087 0.000000 0.542031
C2    C     C_1   0.282531 1.000000 0.000000 0.003017
C3    C     C_1   0.000000 0.717469 0.000000 0.003017
C4    C     C_1   0.717469 0.000000 0.000000 0.003017
C5    C     C_1   0.500000 0.782531 0.500000 0.003006
C6    C     C_1   0.782531 0.500000 0.500000 0.003006
C7    C     C_1   0.500000 0.217469 0.500000 0.003006
C8    C     C_1   0.217469 0.500000 0.500000 0.003006
C9    C     C_R   1.000000 0.500000 0.881217 0.517222
C10   C     C_R   0.500000 0.000000 0.881217 0.517222
C11   C     C_R   0.000000 0.500000 0.118783 0.517222
C12   C     C_R   0.360087 1.000000 0.000000 0.542031
C13   C     C_R   0.500000 0.000000 0.118783 0.517222
C14   C     C_R   0.500000 1.000000 0.381217 0.517220
C15   C     C_R   0.000000 0.500000 0.381217 0.517220
C16   C     C_R   0.500000 0.000000 0.618783 0.517219
C17   C     C_R   0.000000 0.500000 0.618783 0.517219
C18   C     C_R   0.086031 0.604157 0.812740 -0.099841
C19   C     C_R   0.604157 0.913969 0.812740 -0.099841
C20   C     C_R   0.913969 0.395843 0.812740 -0.099841
C21   C     C_R   0.395843 0.086031 0.812740 -0.099841
C22   C     C_R   0.086031 0.395843 0.187260 -0.099841
C23   C     C_R   0.000000 0.639913 0.000000 0.542031
C24   C     C_R   0.604157 0.086031 0.187260 -0.099841
C25   C     C_R   0.913969 0.604157 0.187260 -0.099841
C26   C     C_R   0.395843 0.913969 0.187260 -0.099841
C27   C     C_R   0.586050 0.104141 0.312737 -0.099838
C28   C     C_R   0.104141 0.413950 0.312737 -0.099838
C29   C     C_R   0.413950 0.895859 0.312737 -0.099838
C30   C     C_R   0.895859 0.586050 0.312737 -0.099838
C31   C     C_R   0.586050 0.895859 0.687263 -0.099838
C32   C     C_R   0.104141 0.586049 0.687263 -0.099838
C33   C     C_R   0.413950 0.104141 0.687263 -0.099838
C34   C     C_R   0.639913 0.000000 0.000000 0.542031
C35   C     C_R   0.895859 0.413950 0.687263 -0.099838
C36   C     C_R   0.136382 0.647043 0.781352 0.280980
C37   C     C_R   0.647043 0.863618 0.781352 0.280979
C38   C     C_R   0.863618 0.352957 0.781352 0.280980
C39   C     C_R   0.352956 0.136382 0.781352 0.280980
C40   C     C_R   0.136382 0.352956 0.218648 0.280979
C41   C     C_R   0.647043 0.136382 0.218648 0.280980
C42   C     C_R   0.863618 0.647043 0.218648 0.280980
C43   C     C_R   0.352957 0.863618 0.218648 0.280980
C44   C     C_R   0.636411 0.147016 0.281348 0.280978
C45   C     C_R   0.500000 0.860087 0.500000 0.542032
C46   C     C_R   0.147015 0.363589 0.281348 0.280978
C47   C     C_R   0.363589 0.852984 0.281348 0.280978
C48   C     C_R   0.852985 0.636411 0.281348 0.280978
C49   C     C_R   0.636411 0.852985 0.718652 0.280978
C50   C     C_R   0.147016 0.636411 0.718651 0.280978
C51   C     C_R   0.363589 0.147015 0.718652 0.280978
C52   C     C_R   0.852984 0.363589 0.718652 0.280978
C53   C     C_R   0.139643 1.000000 0.000000 0.554744
C54   C     C_R   0.000000 0.860357 0.000000 0.554744
C55   C     C_R   0.860357 0.000000 0.000000 0.554744
C56   C     C_R   0.860087 0.500000 0.500000 0.542032
C57   C     C_R   1.000000 0.139643 0.000000 0.554744
C58   C     C_R   0.639643 0.500000 0.500000 0.554746
C59   C     C_R   0.500000 0.360357 0.500000 0.554747
C60   C     C_R   0.360357 0.500000 0.500000 0.554747
C61   C     C_R   0.500000 0.639643 0.500000 0.554747
C62   C     C_R   0.049689 0.545102 0.717825 -0.028909
C63   C     C_R   0.545102 0.950311 0.717825 -0.028908
C64   C     C_R   0.950311 0.454898 0.717825 -0.028908
C65   C     C_R   0.454898 0.049689 0.717825 -0.028909
C66   C     C_R   0.049688 0.454898 0.282175 -0.028908
C67   C     C_R   0.500000 0.139913 0.500000 0.542032
C68   C     C_R   0.545102 0.049689 0.282175 -0.028909
C69   C     C_R   0.950311 0.545102 0.282175 -0.028909
C70   C     C_R   0.454898 0.950311 0.282175 -0.028908
C71   C     C_R   0.549697 0.045093 0.217823 -0.028909
C72   C     C_R   0.045093 0.450303 0.217823 -0.028909
C73   C     C_R   0.450303 0.954906 0.217824 -0.028909
C74   C     C_R   0.954906 0.549697 0.217823 -0.028909
C75   C     C_R   0.549697 0.954906 0.782177 -0.028909
C76   C     C_R   0.045094 0.549697 0.782176 -0.028909
C77   C     C_R   0.450303 0.045094 0.782177 -0.028909
C78   C     C_R   0.139913 0.500000 0.500000 0.542032
C79   C     C_R   0.954906 0.450303 0.782177 -0.028909
C80   C     C_R   1.000000 0.500000 0.685711 0.022280
C81   C     C_R   0.500000 0.000000 0.685711 0.022280
C82   C     C_R   0.000000 0.500000 0.314289 0.022280
C83   C     C_R   0.500000 0.000000 0.314289 0.022280
C84   C     C_R   0.500000 1.000000 0.185710 0.022285
C85   C     C_R   1.000000 0.500000 0.185710 0.022285
C86   C     C_R   0.500000 0.000000 0.814290 0.022285
C87   C     C_R   0.000000 0.500000 0.814290 0.022285
C88   C     C_1   1.000000 0.217215 0.000000 0.014092
C89   C     C_1   1.000000 0.282531 0.000000 0.003017
C90   C     C_1   0.217215 1.000000 0.000000 0.014092
C91   C     C_1   0.000000 0.782785 0.000000 0.014092
C92   C     C_1   0.782785 0.000000 0.000000 0.014092
C93   C     C_1   0.500000 0.717215 0.500000 0.014072
C94   C     C_1   0.717215 0.500000 0.500000 0.014072
C95   C     C_1   0.500000 0.282785 0.500000 0.014072
C96   C     C_1   0.282785 0.500000 0.500000 0.014072
Cl1   Cl    Cl    0.813532 0.287252 0.822174 -0.467364
Cl2   Cl    Cl    0.787294 0.686514 0.322170 -0.467357
Cl3   Cl    Cl    0.686513 0.212706 0.322170 -0.467358
Cl4   Cl    Cl    0.212706 0.313486 0.322170 -0.467357
Cl5   Cl    Cl    0.313486 0.212705 0.677830 -0.467357
Cl6   Cl    Cl    0.787294 0.313487 0.677830 -0.467358
Cl7   Cl    Cl    0.686514 0.787294 0.677830 -0.467357
Cl8   Cl    Cl    0.212706 0.686513 0.677830 -0.467358
Cl9   Cl    Cl    0.287252 0.186468 0.822174 -0.467364
Cl10  Cl    Cl    0.186468 0.712748 0.822174 -0.467364
Cl11  Cl    Cl    0.712748 0.813532 0.822174 -0.467364
Cl12  Cl    Cl    0.813532 0.712748 0.177826 -0.467364
Cl13  Cl    Cl    0.287252 0.813532 0.177826 -0.467364
Cl14  Cl    Cl    0.186468 0.287252 0.177826 -0.467364
Cl15  Cl    Cl    0.712748 0.186468 0.177826 -0.467364
Cl16  Cl    Cl    0.313487 0.787294 0.322170 -0.467357
Cu1   Cu    Cu3+1 0.927460 0.500000 0.000000 1.072016
Cu2   Cu    Cu3+1 0.000000 0.000000 0.061780 1.114920
Cu3   Cu    Cu3+1 0.500000 0.500000 0.438220 1.114852
Cu4   Cu    Cu3+1 0.500000 0.500000 0.561780 1.114852
Cu5   Cu    Cu3+1 0.500000 0.072540 0.000000 1.072016
Cu6   Cu    Cu3+1 0.072540 0.500000 0.000000 1.072016
Cu7   Cu    Cu3+1 0.500000 0.927460 0.000000 1.072016
Cu8   Cu    Cu3+1 0.427460 1.000000 0.500000 1.072038
Cu9   Cu    Cu3+1 1.000000 0.572540 0.500000 1.072038
Cu10  Cu    Cu3+1 0.572540 1.000000 0.500000 1.072038
Cu11  Cu    Cu3+1 1.000000 0.427460 0.500000 1.072038
Cu12  Cu    Cu3+1 0.000000 0.000000 0.938220 1.114920
H1    H     H_    0.079164 0.614867 0.861074 0.167407
H2    H     H_    0.114855 0.420816 0.361071 0.167415
H3    H     H_    0.420816 0.885145 0.361071 0.167414
H4    H     H_    0.885145 0.579184 0.361071 0.167415
H5    H     H_    0.579184 0.885145 0.638929 0.167414
H6    H     H_    0.114855 0.579183 0.638929 0.167414
H7    H     H_    0.420816 0.114854 0.638929 0.167415
H8    H     H_    0.885145 0.420816 0.638929 0.167414
H9    H     H_    0.614867 0.920836 0.861074 0.167407
H10   H     H_    0.920836 0.385133 0.861074 0.167407
H11   H     H_    0.385133 0.079164 0.861074 0.167407
H12   H     H_    0.079164 0.385133 0.138926 0.167407
H13   H     H_    0.614867 0.079164 0.138926 0.167407
H14   H     H_    0.920836 0.614867 0.138926 0.167407
H15   H     H_    0.385133 0.920836 0.138926 0.167407
H16   H     H_    0.579184 0.114855 0.361071 0.167414
O1    O     O_R   0.938740 0.394190 0.000020 -0.494057
O2    O     O_R   0.894190 0.561260 0.500020 -0.494056
O3    O     O_R   0.561260 0.105810 0.500020 -0.494056
O4    O     O_R   0.105810 0.438740 0.500020 -0.494055
O5    O     O_R   0.438740 0.105810 0.499980 -0.494055
O6    O     O_R   0.894190 0.438740 0.499980 -0.494055
O7    O     O_R   0.561260 0.894190 0.499980 -0.494056
O8    O     O_R   0.105810 0.561260 0.499980 -0.494056
O9    O     O_R   0.938740 0.500000 0.909860 -0.507340
O10   O     O_R   0.500000 0.061260 0.909860 -0.507341
O11   O     O_R   0.061260 0.500000 0.909860 -0.507341
O12   O     O_R   0.394190 0.061260 0.000020 -0.494057
O13   O     O_R   0.500000 0.938740 0.909860 -0.507340
O14   O     O_R   0.938740 0.500000 0.090140 -0.507341
O15   O     O_R   0.500000 0.938740 0.090140 -0.507341
O16   O     O_R   0.061260 0.500000 0.090140 -0.507341
O17   O     O_R   0.500000 0.061260 0.090140 -0.507341
O18   O     O_R   0.438740 1.000000 0.409860 -0.507341
O19   O     O_R   1.000000 0.561260 0.409860 -0.507342
O20   O     O_R   0.561260 1.000000 0.409860 -0.507342
O21   O     O_R   1.000000 0.438740 0.409860 -0.507341
O22   O     O_R   0.438740 0.000000 0.590140 -0.507342
O23   O     O_R   0.061260 0.605810 0.000020 -0.494057
O24   O     O_R   0.000000 0.438740 0.590140 -0.507341
O25   O     O_R   0.561260 0.000000 0.590140 -0.507342
O26   O     O_R   1.000000 0.561260 0.590140 -0.507342
O27   O     O_R   0.105780 0.999970 0.947820 -0.492302
O28   O     O_R   0.999970 0.894220 0.947820 -0.492302
O29   O     O_R   0.894220 0.000030 0.947820 -0.492302
O30   O     O_R   0.000030 0.105780 0.947820 -0.492302
O31   O     O_R   0.105780 0.000030 0.052180 -0.492303
O32   O     O_R   0.999970 0.105780 0.052180 -0.492303
O33   O     O_R   0.894220 0.999970 0.052180 -0.492302
O34   O     O_R   0.605810 0.938740 0.000020 -0.494057
O35   O     O_R   0.000030 0.894220 0.052180 -0.492302
O36   O     O_R   0.605780 0.499970 0.447820 -0.492308
O37   O     O_R   0.499970 0.394220 0.447820 -0.492308
O38   O     O_R   0.394220 0.500030 0.447820 -0.492308
O39   O     O_R   0.500030 0.605780 0.447820 -0.492308
O40   O     O_R   0.605780 0.500030 0.552180 -0.492309
O41   O     O_R   0.499970 0.605780 0.552180 -0.492309
O42   O     O_R   0.394220 0.499970 0.552180 -0.492308
O43   O     O_R   0.500030 0.394220 0.552180 -0.492309
O44   O     O_R   0.938740 0.605810 0.999980 -0.494057
O45   O     O_R   0.394190 0.938740 0.999980 -0.494057
O46   O     O_R   0.061260 0.394190 0.999980 -0.494057
O47   O     O_R   0.605810 0.061260 0.999980 -0.494057
O48   O     O_R   0.438740 0.894190 0.500020 -0.494055

loop_
_geom_bond_atom_site_label_1
_geom_bond_atom_site_label_2
_ccdc_geom_bond_type
C39   C51   A    
C50   Cl8   S    
Cu3   O37   S    
C12   O12   A    
C3    C23   S    
C8    C96   T    
C43   Cl13  S    
Cu1   O14   S    
C67   O3    A    
C79   C87   A    
C72   C85   A    
Cu6   O46   S    
C33   C65   A    
C1    O46   A    
C40   C46   A    
Cu9   O26   S    
C13   C84   S    
C52   Cl6   S    
Cu3   O36   S    
C63   C81   A    
C14   C83   S    
C30   C48   A    
C29   C70   A    
C17   O26   A    
Cu5   Cu7   S    
C18   H1    S    
Cu11  O21   S    
C44   Cl3   S    
C61   C93   S    
Cu1   O44   S    
C38   C52   A    
C60   O38   A    
C47   Cl16  S    
Cu4   O43   S    
C26   C73   A    
C37   C49   A    
C3    C91   T    
C25   C74   A    
C13   O17   A    
C2    C90   T    
C55   O33   A    
C69   C82   A    
C19   C37   A    
C11   O14   A    
Cu12  O28   S    
C27   C44   A    
C53   O27   A    
Cu2   O33   S    
C13   O15   A    
Cu12  O29   S    
C28   H2    S    
C6    C94   T    
Cu4   O42   S    
Cu11  O4    S    
C67   O5    A    
C1    C89   S    
Cu6   O16   S    
Cu5   O10   S    
C27   C68   A    
C43   C47   A    
C73   C84   A    
C23   O23   A    
Cu8   O22   S    
C57   O32   A    
Cu2   Cu12  S    
C33   H7    S    
C57   O30   A    
C2    C12   S    
Cu8   O5    S    
Cu7   O13   S    
Cu10  O25   S    
C8    C78   S    
C24   C41   A    
C64   C80   A    
C62   C76   A    
C34   O47   A    
C59   C95   S    
Cu10  O3    S    
C31   C49   A    
C38   Cl1   S    
Cu8   O48   S    
C10   O13   A    
C32   H6    S    
Cu8   Cu10  S    
C26   C43   A    
C15   C82   S    
C30   H4    S    
C36   Cl10  S    
C60   O42   A    
Cu2   O31   S    
C9    O9    A    
C4    C34   S    
Cu6   O23   S    
C65   C77   A    
C42   Cl12  S    
Cu5   O17   S    
Cu1   O9    S    
C59   O37   A    
C66   C72   A    
C26   H15   S    
Cu5   O47   S    
C54   O28   A    
C40   Cl14  S    
C16   O22   A    
Cu2   O32   S    
C5    C45   S    
C17   C80   S    
C14   O20   A    
C54   O35   A    
C28   C66   A    
Cu7   O45   S    
C15   O19   A    
C55   C92   S    
C34   O34   A    
C17   O24   A    
C78   O4    A    
C22   C72   A    
C66   C82   A    
Cu12  O27   S    
C20   C38   A    
C75   C86   A    
C65   C81   A    
C21   C39   A    
Cu11  O6    S    
C16   O25   A    
C22   C40   A    
Cu4   O41   S    
C70   C73   A    
Cu9   O8    S    
C69   C74   A    
C42   C48   A    
Cu10  O7    S    
C59   O43   A    
C70   C83   A    
C76   C87   A    
C32   C50   A    
C35   C64   A    
C11   O16   A    
C60   C96   S    
Cu2   O35   S    
C29   C47   A    
C77   C86   A    
C61   O39   A    
C29   H3    S    
C41   Cl15  S    
C64   C79   A    
Cu7   O15   S    
C33   C51   A    
C21   C77   A    
C35   C52   A    
C30   C69   A    
C36   C50   A    
C71   C84   A    
C55   O29   A    
C62   C80   A    
C39   Cl9   S    
C46   Cl4   S    
C9    O11   A    
C18   C76   A    
C20   C79   A    
C45   O7    A    
C68   C83   A    
Cu9   O2    S    
C15   O21   A    
C58   O36   A    
C6    C56   S    
C14   O18   A    
C25   C42   A    
C49   Cl7   S    
C5    C93   T    
C45   O48   A    
C37   Cl11  S    
C78   O8    A    
C24   H13   S    
C19   H9    S    
C31   C63   A    
C7    C95   T    
C61   O41   A    
C27   H16   S    
C57   C88   S    
C28   C46   A    
Cu4   O40   S    
C25   H14   S    
C58   C94   S    
C56   O2    A    
C23   O44   A    
Cu7   O34   S    
C9    C87   S    
Cu11  O24   S    
C10   C86   S    
C63   C75   A    
C11   C85   S    
C68   C71   A    
C12   O45   A    
C19   C75   A    
C16   C81   S    
C41   C44   A    
Cu1   O1    S    
Cu5   O12   S    
C48   Cl2   S    
C74   C85   A    
C56   O6    A    
Cu6   O11   S    
Cu3   O39   S    
Cu9   Cu11  S    
Cu3   O38   S    
C1    O1    A    
C53   O31   A    
C7    C67   S    
Cu1   Cu6   S    
Cu8   O18   S    
C54   C91   S    
Cu12  O30   S    
C88   C89   T    
C31   H5    S    
Cu9   O19   S    
C22   H12   S    
C53   C90   S    
Cu10  O20   S    
C58   O40   A    
C32   C62   A    
C20   H10   S    
C18   C36   A    
C35   H8    S    
C21   H11   S    
C10   O10   A    
C51   Cl5   S    
Cu3   Cu4   S    
C24   C71   A    
C4    C92   T    
