data_mof_unit_15862.cif
_audit_creation_date              2012-12-10T17:24:48-0500
_audit_creation_method            fapswitch 2.2
_symmetry_space_group_name_H-M    P1
_symmetry_Int_Tables_number       1
_space_group_crystal_system       triclinic
_cell_length_a                    18.789262
_cell_length_b                    18.885499
_cell_length_c                    18.969981
_cell_angle_alpha                 109.88526
_cell_angle_beta                  110.146389
_cell_angle_gamma                 108.970578
_cell_volume                      5143.40110962

loop_
_atom_site_label
_atom_site_type_symbol
_atom_type_description
_atom_site_fract_x
_atom_site_fract_y
_atom_site_fract_z
_atom_type_partial_charge
C1    C     C_R   0.622162 0.620601 0.502340 0.962146
C2    C     C_R   0.681825 0.760522 0.503699 -0.170873
C3    C     C_3   0.091306 0.971590 0.243297 -0.886385
C4    C     C_3   0.297740 0.507534 0.119790 -0.377126
C5    C     C_3   0.385985 0.512624 0.141286 -0.798643
C6    C     C_3   0.242542 0.296245 0.304567 -0.364068
C7    C     C_3   0.280886 0.244334 0.265787 -0.657655
C8    C     C_3   0.320906 0.807167 0.358376 -0.368278
C9    C     C_3   0.377985 0.875119 0.345978 -0.815079
C10   C     C_3   0.022581 0.158771 0.981560 -0.428130
C11   C     C_3   0.942855 0.141408 0.992211 -0.796425
C12   C     C_3   0.955667 0.997681 0.810874 -0.456480
C13   C     C_R   0.815555 0.812183 0.499758 -0.067130
C14   C     C_3   0.032433 0.981609 0.822861 -0.867190
C15   C     C_3   0.206011 0.493276 0.376445 -0.377922
C16   C     C_3   0.122339 0.497641 0.358728 -0.821729
C17   C     C_R   0.383548 0.504105 0.379184 0.893261
C18   C     C_R   0.823341 0.738944 0.498069 -0.068996
C19   C     C_R   0.767310 0.683930 0.513576 -0.077559
C20   C     C_R   0.690550 0.688475 0.505284 -0.099165
C21   C     C_R   0.885818 0.719489 0.482435 0.366959
C22   C     C_R   0.908556 0.663133 0.506343 0.016926
C23   C     C_R   0.864807 0.622467 0.540036 0.314658
C24   C     C_R   0.790335 0.627033 0.537448 0.287346
C25   C     C_3   0.178494 0.426547 0.210737 0.370213
C26   C     C_R   0.776742 0.655440 0.753862 -0.199175
C27   C     C_R   0.842082 0.736914 0.825922 0.144394
C28   C     C_R   0.895562 0.743051 0.903640 0.094794
C29   C     C_R   0.376047 0.379497 0.495684 0.892388
C30   C     C_R   0.887235 0.665311 0.903377 0.395548
C31   C     C_R   0.822060 0.581392 0.826599 0.016548
C32   C     C_R   0.761071 0.577937 0.755653 -0.046553
C33   C     C_R   0.815427 0.500613 0.817099 -0.165332
C34   C     C_R   0.742674 0.418884 0.743866 -0.159201
C35   C     C_R   0.670993 0.418184 0.686228 0.006434
C36   C     C_3   0.230377 0.496445 0.307980 0.013435
C37   C     C_R   0.684345 0.497530 0.688279 -0.108938
C38   C     C_R   0.737732 0.337005 0.727636 0.390466
C39   C     C_R   0.656646 0.259875 0.675694 0.139203
C40   C     C_R   0.582767 0.261630 0.627442 -0.319378
C41   C     C_R   0.618656 0.498032 0.620923 1.017539
C42   C     C_R   0.589284 0.338170 0.628542 0.420940
C43   C     C_R   0.407697 0.377494 0.652536 -0.171017
C44   C     C_R   0.420690 0.388030 0.733129 0.364700
C45   C     C_R   0.351879 0.332811 0.736445 0.363857
C46   C     C_R   0.272869 0.269403 0.659028 -0.173341
C47   C     C_3   0.316161 0.503700 0.311164 -0.181098
C48   C     C_R   0.261308 0.254760 0.576227 -0.017065
C49   C     C_R   0.326443 0.314263 0.573360 -0.015491
C50   C     C_R   0.185989 0.183047 0.496842 -0.162467
C51   C     C_R   0.168589 0.177268 0.415211 0.016670
C52   C     C_R   0.224311 0.247861 0.414125 0.023002
C53   C     C_3   0.325690 0.574221 0.285739 0.455211
C54   C     C_R   0.308007 0.311974 0.492966 -0.144143
C55   C     C_R   0.093107 0.105359 0.333461 0.207084
C56   C     C_R   0.053684 0.120115 0.267614 -0.163631
C57   C     C_R   0.101294 0.193464 0.269141 -0.198268
C58   C     C_R   0.607643 0.770374 0.496512 0.419272
C59   C     C_R   0.189943 0.249632 0.333993 0.096522
C60   C     C_R   0.001218 0.619709 0.120925 1.019370
C61   C     C_R   0.124061 0.498665 0.122321 0.897093
C62   C     C_R   0.003956 0.380157 0.883855 0.871102
C63   C     C_R   0.882721 0.500808 0.883953 1.043355
C64   C     C_R   0.001715 0.880516 0.380992 1.072790
C65   C     C_3   0.241579 0.568740 0.284174 -0.281473
C66   C     C_R   0.880227 0.878415 0.498361 0.994185
C67   C     C_R   0.000301 0.120872 0.619136 0.949406
C68   C     C_R   0.120173 0.119564 0.499841 0.923298
C69   C     C_R   0.612576 0.851204 0.519371 0.374156
C70   C     C_R   0.158278 0.745614 0.281248 -0.284785
C71   C     C_R   0.240465 0.813285 0.351962 0.043300
C72   C     C_R   0.246092 0.886778 0.411807 0.389301
C73   C     C_R   0.169706 0.892948 0.396456 0.400164
C74   C     C_R   0.084161 0.819905 0.326700 -0.073270
C75   C     C_R   0.080610 0.749866 0.264878 -0.043758
C76   C     C_R   0.002092 0.813119 0.315852 -0.144739
C77   C     C_3   0.190463 0.497787 0.187209 -0.191832
C78   C     C_R   0.919511 0.740387 0.242654 -0.072835
C79   C     C_R   0.919140 0.682434 0.172057 -0.118705
C80   C     C_R   0.687798 0.921769 0.539000 0.306338
C81   C     C_R   0.000028 0.685744 0.186208 -0.085609
C82   C     C_R   0.837003 0.723106 0.237439 0.442215
C83   C     C_R   0.758538 0.661158 0.158473 -0.432103
C84   C     C_R   0.758060 0.612897 0.084365 0.359445
C85   C     C_R   0.837746 0.622045 0.090423 0.452639
C86   C     C_R   0.000646 0.395059 0.735411 -0.211072
C87   C     C_R   0.012073 0.409901 0.672400 -0.307339
C88   C     C_R   0.033455 0.359075 0.620064 0.415006
C89   C     C_3   0.274558 0.504114 0.188890 -0.031637
C90   C     C_R   0.037828 0.288654 0.628145 0.438354
C91   C     C_R   0.755679 0.909224 0.535499 -0.247669
C92   C     C_R   0.015226 0.266814 0.685701 -0.044246
C93   C     C_R   0.005891 0.325812 0.745987 0.028249
C94   C     C_R   0.002145 0.188375 0.685793 -0.128817
C95   C     C_R   0.992316 0.174455 0.751333 0.031649
C96   C     C_R   0.003631 0.242344 0.822041 0.038880
C97   C     C_R   0.003683 0.314834 0.816009 -0.104723
C98   C     C_R   0.972827 0.094338 0.748525 -0.200798
C99   C     C_R   0.978132 0.085793 0.820177 0.213885
C100  C     C_R   0.004723 0.159259 0.897642 0.177879
C101  C     C_3   0.262897 0.433351 0.213473 0.337189
C102  C     C_R   0.751576 0.827744 0.513270 -0.092640
C103  C     C_R   0.015543 0.236116 0.897206 -0.229366
C104  C     C_3   0.984002 0.651198 0.502715 -0.338166
C105  C     C_3   0.072141 0.735029 0.568712 -0.824166
C106  C     C_3   0.849053 0.815115 0.817019 -0.432837
C107  C     C_3   0.775297 0.831663 0.819203 -0.849003
C108  C     C_3   0.956857 0.830951 0.987993 -0.422750
C109  C     C_3   0.047552 0.874922 0.999498 -0.903198
C110  C     C_3   0.653039 0.176685 0.671174 -0.293114
C111  C     C_3   0.561315 0.099951 0.628293 -0.910248
C112  C     C_3   0.063365 0.011303 0.306123 -0.398680
H1    H     H_    0.230787 0.623257 0.312685 0.155100
H2    H     H_    0.696730 0.650287 0.154732 0.154880
H3    H     H_    0.987461 0.439321 0.774934 0.175966
H4    H     H_    0.007270 0.463532 0.666644 0.172798
H5    H     H_    0.953244 0.037044 0.690516 0.139558
H6    H     H_    0.035671 0.291485 0.957259 0.173379
H7    H     H_    0.636654 0.994799 0.528895 0.338047
H8    H     H_    0.940597 0.718612 0.411547 0.338079
H9    H     H_    0.075166 0.787557 0.553870 0.282354
H10   H     H_    0.083015 0.756910 0.635645 0.263829
H11   H     H_    0.125587 0.722984 0.566485 0.241674
H12   H     H_    0.811791 0.964895 0.550439 0.182539
H13   H     H_    0.988093 0.599819 0.516895 0.260473
H14   H     H_    0.973710 0.627797 0.435973 0.172548
H15   H     H_    0.743818 0.524778 0.546470 0.354791
H16   H     H_    0.710516 0.775174 0.764026 0.274974
H17   H     H_    0.777706 0.843416 0.881680 0.258989
H18   H     H_    0.782645 0.889859 0.813438 0.241748
H19   H     H_    0.912444 0.874094 0.869008 0.224263
H20   H     H_    0.846087 0.804223 0.754398 0.217207
H21   H     H_    0.080603 0.836636 0.007060 0.257192
H22   H     H_    0.042939 0.881876 0.942579 0.261510
H23   H     H_    0.519702 0.202631 0.585366 0.178473
H24   H     H_    0.088711 0.940723 0.058747 0.256146
H25   H     H_    0.928953 0.874670 0.990300 0.214090
H26   H     H_    0.963406 0.824127 0.045433 0.226292
H27   H     H_    0.996758 0.720041 0.010740 0.344792
H28   H     H_    0.383355 0.675627 0.280887 0.330286
H29   H     H_    0.855605 0.372610 0.754327 0.301880
H30   H     H_    0.524643 0.119629 0.658471 0.286172
H31   H     H_    0.524711 0.074335 0.557023 0.265327
H32   H     H_    0.566919 0.047053 0.638265 0.251995
H33   H     H_    0.685969 0.156757 0.636012 0.248015
H34   H     H_    0.736992 0.654448 0.696357 0.211354
H35   H     H_    0.690616 0.190899 0.738859 0.235509
H36   H     H_    0.464951 0.275109 0.539771 0.333209
H37   H     H_    0.490789 0.475349 0.856486 0.340340
H38   H     H_    0.421364 0.360494 0.855016 0.342405
H39   H     H_    0.062820 0.975191 0.183641 0.259655
H40   H     H_    0.163858 0.006551 0.275413 0.270660
H41   H     H_    0.067753 0.902102 0.223471 0.261608
H42   H     H_    0.092505 0.004951 0.362351 0.238159
H43   H     H_    0.990929 0.973970 0.273850 0.220711
H44   H     H_    0.439006 0.571498 0.205359 0.268054
H45   H     H_    0.072853 0.197777 0.211489 0.145768
H46   H     H_    0.384538 0.454027 0.142950 0.286980
H47   H     H_    0.400802 0.516245 0.090376 0.243453
H48   H     H_    0.245784 0.448415 0.055367 0.205546
H49   H     H_    0.300325 0.565509 0.115722 0.221033
H50   H     H_    0.310330 0.220587 0.307412 0.238411
H51   H     H_    0.227973 0.186548 0.200770 0.216393
H52   H     H_    0.331384 0.284545 0.257152 0.281751
H53   H     H_    0.201546 0.303374 0.252551 0.219768
H54   H     H_    0.288372 0.362625 0.357292 0.186205
H55   H     H_    0.630690 0.555827 0.012920 0.341775
H56   H     H_    0.462660 0.422015 0.654543 0.228806
H57   H     H_    0.339263 0.867076 0.281587 0.253682
H58   H     H_    0.404374 0.942208 0.397975 0.266738
H59   H     H_    0.434145 0.866210 0.348147 0.260944
H60   H     H_    0.359640 0.812730 0.421305 0.244303
H61   H     H_    0.301458 0.742923 0.306444 0.208193
H62   H     H_    0.366350 0.933493 0.502164 0.348347
H63   H     H_    0.240169 0.019321 0.479004 0.378821
H64   H     H_    0.771008 0.741739 0.295778 0.334309
H65   H     H_    0.777466 0.537500 0.964968 0.384608
H66   H     H_    0.885594 0.077411 0.936912 0.240385
H67   H     H_    0.221040 0.232456 0.666030 0.218926
H68   H     H_    0.957468 0.140755 0.053815 0.243296
H69   H     H_    0.926286 0.193291 0.994978 0.280955
H70   H     H_    0.042620 0.110383 0.985176 0.205290
H71   H     H_    0.078992 0.222564 0.037784 0.246718
H72   H     H_    0.233077 0.332501 0.112982 0.332663
H73   H     H_    0.044496 0.427977 0.563667 0.341128
H74   H     H_    0.087029 0.269602 0.551978 0.377338
H75   H     H_    0.050387 0.985197 0.773665 0.274325
H76   H     H_    0.013890 0.915828 0.814155 0.243976
H77   H     H_    0.090103 0.030641 0.889314 0.259369
H78   H     H_    0.991537 0.069165 0.208821 0.138664
H79   H     H_    0.936477 0.991688 0.858277 0.217640
H80   H     H_    0.897685 0.946115 0.745177 0.214793
H81   H     H_    0.091898 0.336564 0.210381 0.327483
H82   H     H_    0.131698 0.560356 0.362766 0.254050
H83   H     H_    0.066719 0.443301 0.293180 0.271406
H84   H     H_    0.105811 0.492900 0.408389 0.251569
H85   H     H_    0.197114 0.432388 0.376825 0.188446
H86   H     H_    0.260199 0.549354 0.441836 0.242289
H87   H     H_    0.884236 0.582943 0.623525 0.347101
H88   H     H_    0.519506 0.651814 0.415284 0.322224
H89   H     H_    0.156191 0.688790 0.238797 0.162615
H90   H     H_    0.563125 0.917500 0.564776 0.317335
O1    O     O_R   0.592010 0.539900 0.448660 -0.601217
O2    O     O_R   0.948620 0.908400 0.356980 -0.627149
O3    O     O_R   0.960510 0.908410 0.552140 -0.612392
O4    O     O_R   0.591210 0.643320 0.551330 -0.602330
O5    O     O_R   0.856270 0.908390 0.447890 -0.617590
O6    O     O_R   0.051380 0.091620 0.643040 -0.643006
O7    O     O_R   0.947140 0.091600 0.538800 -0.588655
O8    O     O_R   0.143730 0.091640 0.552130 -0.602219
O9    O     O_R   0.039490 0.091610 0.447890 -0.615930
O10   O     O_R   0.408080 0.448290 0.356360 -0.610390
O11   O     O_R   0.407280 0.551710 0.459030 -0.598451
O12   O     O_R   0.054870 0.643310 0.094700 -0.625940
O13   O     O_R   0.408790 0.356680 0.448670 -0.597338
O14   O     O_R   0.407990 0.460100 0.551340 -0.635492
O15   O     O_R   0.592720 0.448290 0.540970 -0.575704
O16   O     O_R   0.591920 0.551710 0.643640 -0.642426
O17   O     O_R   0.951440 0.539900 0.094740 -0.604985
O18   O     O_3   0.695774 0.002020 0.556559 -0.765351
O19   O     O_3   0.924000 0.756537 0.444405 -0.723362
O20   O     O_3   0.743786 0.580565 0.563981 -0.808995
O21   O     O_3   0.936520 0.670851 0.980068 -0.735647
O22   O     O_3   0.399338 0.653555 0.320956 -0.727096
O23   O     O_R   0.044440 0.448270 0.096110 -0.588289
O24   O     O_3   0.811042 0.328984 0.756215 -0.768240
O25   O     O_3   0.515067 0.335580 0.576446 -0.790705
O26   O     O_3   0.499768 0.455373 0.806473 -0.737839
O27   O     O_3   0.359150 0.336809 0.812790 -0.766716
O28   O     O_3   0.680052 0.554010 0.005785 -0.750341
O29   O     O_3   0.324630 0.954256 0.486416 -0.799788
O30   O     O_3   0.179169 0.971255 0.448144 -0.785670
O31   O     O_3   0.832807 0.762790 0.310612 -0.719719
O32   O     O_3   0.837340 0.574333 0.016675 -0.723758
O33   O     O_3   0.273933 0.362766 0.176662 -0.766591
O34   O     O_R   0.147870 0.551680 0.096080 -0.659228
O35   O     O_3   0.050248 0.376805 0.560716 -0.784975
O36   O     O_3   0.069206 0.244250 0.585032 -0.790030
O37   O     O_3   0.098710 0.349100 0.165807 -0.780663
O38   O     O_3   0.896185 0.578679 0.575707 -0.787096
O39   O     O_3   0.527472 0.701839 0.463718 -0.634940
O40   O     O_3   0.541712 0.857610 0.520094 -0.725749
O41   O     O_R   0.952810 0.356650 0.912880 -0.590862
O42   O     O_R   0.056240 0.460060 0.912840 -0.645770
O43   O     O_R   0.859800 0.448280 0.911500 -0.564849
O44   O     O_R   0.963240 0.551690 0.911470 -0.625016
O45   O     O_R   0.052860 0.908430 0.461230 -0.551883
Zn1   Zn    Zn3+2 0.500540 0.430950 0.431450 0.985531
Zn2   Zn    Zn3+2 0.499460 0.569050 0.568550 1.002808
Zn3   Zn    Zn3+2 0.934770 0.430930 0.003810 1.022911
Zn4   Zn    Zn3+2 0.072900 0.569020 0.003770 0.939992
Zn5   Zn    Zn3+2 0.069600 0.000030 0.569620 1.018811
Zn6   Zn    Zn3+2 0.930400 0.000000 0.430410 1.002228

loop_
_geom_bond_atom_site_label_1
_geom_bond_atom_site_label_2
_ccdc_geom_bond_type
C87   C88   A    
C6    H54   S    
C26   C32   A    
O23   Zn3   S    
C47   C101  S    
C72   O29   S    
C55   C112  S    
C18   C21   A    
C73   C74   A    
C9    H57   S    
C95   C96   A    
C11   H69   S    
O15   Zn1   S    
C107  H17   S    
C17   O10   A    
C68   O8    A    
H87   O38   S    
C41   O16   A    
C95   C98   A    
C62   O41   A    
C4    H48   S    
C43   H56   S    
C56   C57   A    
C53   O22   S    
C106  H20   S    
C77   C89   S    
C26   C27   A    
H8    O19   S    
H38   O27   S    
C21   O19   S    
C13   C18   A    
H55   O28   S    
C25   C77   S    
C52   C59   A    
C76   C78   A    
C107  H16   S    
C18   C19   A    
C108  H25   S    
C15   H85   S    
C69   O40   S    
C29   O13   A    
C29   C54   S    
C25   O37   S    
C15   C16   S    
H90   O40   S    
C3    H41   S    
C22   C104  S    
C108  C109  S    
C105  H11   S    
C36   C47   S    
C34   C35   A    
O6    Zn5   S    
C26   H34   S    
O4    Zn2   S    
C60   O12   A    
C110  C111  S    
H81   O37   S    
C12   C99   S    
C50   C68   S    
C111  H30   S    
O7    Zn6   S    
H74   O36   S    
C14   H77   S    
C39   C110  S    
H73   O35   S    
O1    Zn1   S    
H64   O31   S    
C61   C77   S    
C8    C9    S    
C5    H47   S    
C112  H43   S    
C101  O33   S    
C67   C94   S    
C23   C24   A    
C31   C33   A    
O11   Zn2   S    
C70   C71   A    
C110  H33   S    
C84   O28   S    
H62   O29   S    
H15   O20   S    
O10   Zn1   S    
C47   C53   S    
C89   C101  S    
C75   C81   A    
C70   H89   S    
C48   C50   A    
C64   O2    A    
C6    H53   S    
O13   Zn1   S    
O41   Zn3   S    
C112  H42   S    
C21   C22   A    
C109  H24   S    
C10   H71   S    
C83   H2    S    
C9    H58   S    
H36   O25   S    
C45   O27   S    
O9    Zn6   S    
C107  H18   S    
C17   O11   A    
C6    C59   S    
O8    Zn5   S    
C104  C105  S    
C40   H23   S    
C52   C54   A    
C33   C34   A    
C56   H78   S    
C13   C66   S    
O14   Zn2   S    
C64   C76   S    
C106  H19   S    
C63   O43   A    
C7    H50   S    
C46   C48   A    
C65   C77   S    
C74   C75   A    
C90   O36   S    
H65   O32   S    
C2    C20   A    
C51   C52   A    
C12   H80   S    
C16   H82   S    
C84   C85   A    
C35   C42   A    
C60   O17   A    
C39   C40   A    
C79   C81   A    
C66   O3    A    
C8    H61   S    
H28   O22   S    
C29   O14   A    
C27   C106  S    
O45   Zn5   S    
C109  H21   S    
O17   Zn3   S    
C100  C103  A    
C61   O23   A    
C85   O32   S    
C86   H3    S    
C34   C38   A    
C58   O39   S    
C43   C44   A    
O44   Zn4   S    
H72   O33   S    
C80   O18   S    
C16   H84   S    
C86   C93   A    
C62   C97   S    
C14   H76   S    
C60   C81   S    
C78   C82   A    
C90   C92   A    
C83   C84   A    
C3    C112  S    
C33   C63   S    
C96   C97   A    
C55   C56   A    
C92   C94   A    
C50   C51   A    
C3    H40   S    
C105  H9    S    
C11   H66   S    
C32   C37   A    
C10   C100  S    
C1    O4    A    
C44   O26   S    
C87   H4    S    
C30   O21   S    
C74   C76   A    
C111  H32   S    
C104  H13   S    
C66   O5    A    
C48   C49   A    
C12   C14   S    
C98   C99   A    
C24   O20   S    
C91   H12   S    
C53   C89   S    
H7    O18   S    
C10   H70   S    
C14   H75   S    
C9    H59   S    
C103  H6    S    
O42   Zn4   S    
C91   C102  A    
C110  H35   S    
C1    O1    A    
C93   C97   A    
C15   C36   S    
C79   C85   A    
C53   C65   S    
C44   C45   A    
C98   H5    S    
C4    C89   S    
H27   O21   S    
H29   O24   S    
C15   H86   S    
C12   H79   S    
C57   H45   S    
C8    C71   S    
H63   O30   S    
C49   C54   A    
C35   C37   A    
C109  H22   S    
C86   C87   A    
C65   H1    S    
C46   H67   S    
C31   C32   A    
C43   C49   A    
C17   C47   S    
C88   C90   A    
C72   C73   A    
C1    C20   S    
C42   O25   S    
C41   O15   A    
C2    C58   A    
C58   C69   A    
C62   O42   A    
C6    C7    S    
C111  H31   S    
C5    H44   S    
C7    H52   S    
C3    H39   S    
C99   C100  A    
C38   O24   S    
C36   C65   S    
C19   C20   A    
C28   C30   A    
C19   C24   A    
O5    Zn6   S    
C71   C72   A    
C16   H83   S    
C108  H26   S    
O2    Zn6   S    
C78   C79   A    
C30   C31   A    
C25   C101  S    
C38   C39   A    
C64   O45   A    
C7    H51   S    
C80   C91   A    
C88   O35   S    
C40   C42   A    
C92   C93   A    
O16   Zn2   S    
C105  H10   S    
C67   O7    A    
C51   C55   A    
C4    H49   S    
C37   C41   S    
C94   C95   A    
C28   C108  S    
C57   C59   A    
C10   C11   S    
C63   O44   A    
C25   C36   S    
C45   C46   A    
C4    C5    S    
C104  H14   S    
C70   C75   A    
C5    H46   S    
C106  C107  S    
C82   O31   S    
O12   Zn4   S    
O3    Zn5   S    
C61   O34   A    
C2    C102  A    
C22   C23   A    
C69   C80   A    
C11   H68   S    
O34   Zn4   S    
C82   C83   A    
C13   C102  A    
C96   C103  A    
C68   O9    A    
H37   O26   S    
H88   O39   S    
C73   O30   S    
C67   O6    A    
C8    H60   S    
C23   O38   S    
C27   C28   A    
O43   Zn3   S    
