data_mof_unit_23595.cif
_audit_creation_date              2013-03-05T15:55:19-0500
_audit_creation_method            fapswitch 2.2
_symmetry_space_group_name_H-M    P1
_symmetry_Int_Tables_number       1
_space_group_crystal_system       triclinic
_cell_length_a                    12.344428
_cell_length_b                    13.552075
_cell_length_c                    13.907487
_cell_angle_alpha                 106.271161
_cell_angle_beta                  74.149992
_cell_angle_gamma                 116.645139
_cell_volume                      1966.53670248

loop_
_atom_site_label
_atom_site_type_symbol
_atom_site_description
_atom_site_fract_x
_atom_site_fract_y
_atom_site_fract_z
_atom_type_partial_charge
O1    O     O_R   0.025040 0.682470 0.528790 -0.592781
O2    O     O_R   0.194310 0.640150 0.490130 -0.565051
C1    C     C_R   0.144852 0.713602 0.513482 0.822717
O3    O     O_R   0.903380 0.524130 0.659910 -0.579773
O4    O     O_R   0.072660 0.481800 0.621240 -0.598625
C2    C     C_R   0.984439 0.504458 0.686107 0.842600
Cu1   Cu    Cu3+1 0.899780 0.525060 0.522890 0.938947
Cu2   Cu    Cu3+1 0.100220 0.474940 0.477110 0.940136
O5    O     O_R   0.805690 0.359850 0.509870 -0.585909
O6    O     O_R   0.974960 0.317530 0.471210 -0.594615
O7    O     O_R   0.927340 0.518200 0.378760 -0.585156
O8    O     O_R   0.096620 0.475870 0.340090 -0.592772
C3    C     C_R   0.856112 0.287832 0.485962 0.799793
C4    C     C_R   0.015555 0.495477 0.313874 0.816754
C5    C     C_1   0.024347 0.491989 0.208841 -0.196991
C6    C     C_2   0.039971 0.485433 0.014167 0.139787
C7    C     C_2   0.957619 0.506581 0.984294 0.138458
C8    C     C_1   0.966824 0.507008 0.878995 -0.025202
C9    C     C_1   0.031925 0.488799 0.120260 -0.018781
C10   C     C_1   0.974951 0.506288 0.790877 -0.170254
C11   C     C_R   0.740825 0.981937 0.491115 0.177077
H1    H     H_    0.917338 0.120059 0.481007 0.162238
C12   C     C_R   0.774542 0.169157 0.480718 -0.090216
C13   C     C_R   0.177217 0.909907 0.516050 -0.191957
C14   C     C_R   0.252858 0.021003 0.507116 -0.146655
C15   C     C_R   0.380197 0.059961 0.496512 -0.138023
C16   C     C_R   0.435876 0.988291 0.495576 0.025481
C17   C     C_R   0.357291 0.876844 0.509272 -0.042887
C18   C     C_R   0.566059 0.024065 0.488025 0.009596
C19   C     C_R   0.614649 0.944918 0.484847 0.010939
C20   C     C_R   0.532914 0.832303 0.480909 0.042243
C21   C     C_R   0.410174 0.809997 0.519840 0.592590
C22   C     C_R   0.648796 0.135535 0.485002 -0.209830
C23   C     C_R   0.820244 0.092123 0.480990 -0.196626
C24   C     C_R   0.227483 0.835435 0.516279 -0.074587
H2    H     H_    0.617447 0.198587 0.487697 0.149064
H3    H     H_    0.079105 0.881926 0.520885 0.159275
H4    H     H_    0.431682 0.146807 0.490649 0.113293
H5    H     H_    0.212462 0.077393 0.507260 0.137215
C25   C     C_R   0.616964 0.633330 0.685162 -0.242162
H6    H     H_    0.799168 0.665500 0.697267 0.131099
H7    H     H_    0.603318 0.684973 0.758676 0.192859
N1    N     N_R   0.748810 0.563010 0.557590 -0.185842
C26   C     C_R   0.255465 0.364009 0.354743 0.041373
C27   C     C_R   0.348475 0.325509 0.323040 -0.288660
C28   C     C_R   0.441609 0.363083 0.380427 0.202731
C29   C     C_R   0.444522 0.448288 0.469745 -0.057474
C30   C     C_R   0.340526 0.478082 0.501993 0.132333
C31   C     C_R   0.542996 0.506819 0.529219 -0.128818
C32   C     C_R   0.524475 0.575598 0.625264 0.002660
C33   C     C_R   0.416903 0.592654 0.658096 0.566307
C34   C     C_R   0.331314 0.549499 0.595120 -0.179564
C35   C     C_R   0.662836 0.509160 0.495724 0.041686
C36   C     C_R   0.728743 0.624722 0.650070 0.052823
N2    N     N_R   0.250540 0.437620 0.443020 -0.195402
H8    H     H_    0.691873 0.471446 0.420769 0.156494
H9    H     H_    0.183318 0.330933 0.310086 0.142482
H10   H     H_    0.344592 0.261748 0.254956 0.149737
H11   H     H_    0.262862 0.581265 0.619629 0.272620
C37   C     C_3   0.855728 0.534885 0.058704 -0.409294
C38   C     C_3   0.901294 0.660158 0.103456 -0.806809
H12   H     H_    0.977348 0.685995 0.145409 0.254599
H13   H     H_    0.934401 0.709797 0.042004 0.256263
H14   H     H_    0.824722 0.678425 0.157193 0.236087
H15   H     H_    0.777569 0.510864 0.019631 0.205418
H16   H     H_    0.818634 0.486098 0.120972 0.201935
F1    F     F_    0.360090 0.759338 0.600992 -0.669165
F2    F     F_    0.399863 0.662159 0.747179 -0.658747
C39   C     C_3   0.520022 0.295851 0.349058 -0.416720
C40   C     C_3   0.614459 0.326085 0.252990 -0.846547
H17   H     H_    0.567998 0.292191 0.185643 0.249691
H18   H     H_    0.663841 0.418426 0.258971 0.243646
H19   H     H_    0.682280 0.289141 0.241126 0.244601
H20   H     H_    0.563603 0.302384 0.411367 0.184193
H21   H     H_    0.459691 0.204950 0.332377 0.202700
C41   C     C_3   0.142551 0.456884 0.940812 -0.432977
C42   C     C_3   0.267368 0.554480 0.950871 -0.713443
H22   H     H_    0.268096 0.631111 0.935818 0.292228
H23   H     H_    0.287694 0.572047 0.028483 0.231973
H24   H     H_    0.340540 0.532754 0.894987 0.252746
H25   H     H_    0.142861 0.381617 0.957875 0.198768
H26   H     H_    0.129922 0.435121 0.860361 0.215393
C43   C     C_3   0.567885 0.736646 0.417349 -0.445455
C44   C     C_3   0.494011 0.671638 0.330921 -0.824416
H27   H     H_    0.394384 0.632293 0.361005 0.278913
H28   H     H_    0.509091 0.728803 0.280346 0.244249
H29   H     H_    0.524396 0.604013 0.285533 0.247660
H30   H     H_    0.665994 0.767773 0.380570 0.205938
H31   H     H_    0.553103 0.679333 0.466687 0.227728
C45   C     C_3   0.791609 0.912789 0.521148 -0.429452
C46   C     C_3   0.849207 0.971835 0.617325 -0.812497
H32   H     H_    0.935601 0.046635 0.603205 0.237301
H33   H     H_    0.783401 0.997582 0.679733 0.268716
H34   H     H_    0.872130 0.913272 0.641981 0.237272
H35   H     H_    0.719087 0.831746 0.539247 0.225991
H36   H     H_    0.861649 0.895345 0.457508 0.192718

loop_
_geom_bond_atom_site_label_1
_geom_bond_atom_site_label_2
_geom_bond_distance
_ccdc_geom_bond_type
C30   N2    1.380799 A    
C13   C14   1.390903 A    
C16   C18   1.437415 A    
C44   H29   1.110794 S    
Cu1   Cu2   2.719100 S    
C29   C31   1.451811 A    
C42   H22   1.111231 S    
C5    C9    1.199640 T    
C15   C16   1.415199 A    
C44   H28   1.110859 S    
C19   C20   1.397287 A    
O7    C4    1.305097 A    
C31   C35   1.412892 A    
C42   H24   1.110614 S    
C18   C22   1.398304 A    
C22   H2    1.073324 S    
C20   C43   1.516457 S    
C3    C12   1.458664 S    
C38   H13   1.111196 S    
O5    C3    1.304029 A    
C28   C39   1.514952 S    
N1    C35   1.360689 A    
C20   C21   1.383117 A    
C17   C24   1.425104 A    
C6    C7    1.359019 D    
C12   C22   1.396774 A    
C40   H17   1.110522 S    
Cu1   N1    2.049358 S    
C25   H7    1.083603 S    
C43   H30   1.109338 S    
C37   H16   1.108815 S    
C6    C41   1.518734 S    
C39   C40   1.529545 S    
O3    Cu1   1.921895 S    
C43   H31   1.100249 S    
Cu2   N2    2.037333 S    
C13   H3    1.083069 S    
C11   C45   1.528046 S    
C42   H23   1.111354 S    
H1    C23   1.083051 S    
C27   H10   1.083835 S    
C13   C24   1.402927 A    
C33   C34   1.374642 A    
C29   C30   1.435684 A    
C17   C21   1.387757 A    
C44   H27   1.107993 S    
O3    C2    1.303037 A    
C41   H26   1.110078 S    
C46   H32   1.109512 S    
C15   H4    1.072535 S    
C11   C23   1.392884 A    
C32   C33   1.382107 A    
C14   C15   1.394303 A    
C27   C28   1.402312 A    
C37   C38   1.525977 S    
O1    C1    1.315092 A    
C38   H14   1.110686 S    
Cu1   O7    1.921922 S    
C18   C19   1.431169 A    
C34   H11   1.049881 S    
C46   H33   1.111012 S    
N1    C36   1.350575 A    
C43   C44   1.528828 S    
C1    C24   1.497721 S    
C26   H9    1.080698 S    
Cu2   O8    1.921894 S    
C12   C23   1.392780 A    
C40   H19   1.110427 S    
C7    C8    1.439032 S    
C39   H20   1.103240 S    
C41   C42   1.526168 S    
C21   F1    1.341529 S    
O8    C4    1.302698 A    
C37   H15   1.112525 S    
C25   C36   1.378547 A    
C26   C27   1.384466 A    
C35   H8    1.066780 S    
Cu1   O5    1.987443 S    
C28   C29   1.435631 A    
O1    Cu1   1.990228 S    
O2    Cu2   1.987442 S    
O6    C3    1.307192 A    
C45   H35   1.104996 S    
C41   H25   1.111940 S    
O4    Cu2   1.921923 S    
C45   H36   1.111243 S    
C2    C10   1.423577 S    
C11   C19   1.426216 A    
O2    C1    1.313290 A    
C14   H5    1.083078 S    
C46   H34   1.111072 S    
C26   N2    1.354055 A    
C45   C46   1.531134 S    
O4    C2    1.304684 A    
C6    C9    1.440589 S    
C25   C32   1.400968 A    
C39   H21   1.112374 S    
C8    C10   1.199585 T    
C33   F2    1.359359 S    
C38   H12   1.111014 S    
H6    C36   1.081449 S    
C7    C37   1.516369 S    
C30   C34   1.393896 A    
Cu2   O6    1.990230 S    
C31   C32   1.425453 A    
C16   C17   1.415845 A    
C4    C5    1.423757 S    
C40   H18   1.108912 S    
