data_mof_unit_67488.cif
_audit_creation_date              2012-10-26T21:06:56-0400
_audit_creation_method            fapswitch 2.2
_symmetry_space_group_name_H-M    P1
_symmetry_Int_Tables_number       1
_space_group_crystal_system       triclinic
_cell_length_a                    10.721104
_cell_length_b                    8.776448
_cell_length_c                    7.474122
_cell_angle_alpha                 103.214337
_cell_angle_beta                  93.823979
_cell_angle_gamma                 93.193692
_cell_volume                      681.293595606

loop_
_atom_site_label
_atom_site_type_symbol
_atom_type_description
_atom_site_fract_x
_atom_site_fract_y
_atom_site_fract_z
_atom_type_partial_charge
Br1   Br    Br    0.462423 0.925208 0.164249 -0.456786
Br2   Br    Br    0.679098 0.665931 0.084435 -0.390485
Br3   Br    Br    0.123233 0.174842 0.543453 -0.647089
C1    C     C_R   0.494796 0.200280 0.452904 0.576168
C2    C     C_3   0.072998 0.388802 0.625745 0.023054
C3    C     C_3   0.929104 0.390499 0.627646 -0.185313
C4    C     C_3   0.077992 0.666022 0.575042 0.103890
C5    C     C_3   0.059907 0.432247 0.301437 -0.223776
C6    C     C_3   0.121027 0.497249 0.503033 0.057153
C7    C     C_3   0.088269 0.882321 0.829860 -0.019779
C8    C     C_3   0.195488 0.990675 0.939241 -0.299102
C9    C     C_3   0.867435 0.197099 0.046811 -0.012489
C10   C     C_3   0.737892 0.205347 0.954708 -0.339122
C11   C     C_3   0.876098 0.486560 0.491867 0.028570
C12   C     C_3   0.932048 0.657755 0.555748 -0.270796
C13   C     C_3   0.915581 0.415162 0.295712 0.148320
C14   C     C_2   0.489453 0.033102 0.422144 0.139810
C15   C     C_2   0.502080 0.966978 0.567231 -0.122041
C16   C     C_R   0.259889 0.501139 0.502296 0.589382
C17   C     C_R   0.502354 0.799946 0.545770 0.566520
C18   C     C_R   0.738718 0.489521 0.495750 0.560708
Cu1   Cu    Cu3+1 0.514070 0.517380 0.684380 1.066181
Cu2   Cu    Cu3+1 0.485930 0.482620 0.315620 1.067217
H1    H     H_    0.115566 0.432270 0.769703 0.172353
H2    H     H_    0.086632 0.513714 0.213583 0.089526
H3    H     H_    0.096499 0.317693 0.239044 0.191054
H4    H     H_    0.014487 0.873115 0.924905 0.142397
H5    H     H_    0.048998 0.938322 0.721324 0.164708
H6    H     H_    0.280056 0.981964 0.860397 0.206304
H7    H     H_    0.168788 0.113862 0.967926 0.107569
H8    H     H_    0.214512 0.958767 0.072985 0.209215
H9    H     H_    0.887486 0.071961 0.020742 0.166741
H10   H     H_    0.939676 0.256886 0.980881 0.099279
H11   H     H_    0.716844 0.329074 0.967232 0.184547
H12   H     H_    0.876661 0.483550 0.199007 0.145786
H13   H     H_    0.735185 0.146979 0.805999 0.092662
H14   H     H_    0.665702 0.145472 0.019676 0.211644
H15   H     H_    0.114689 0.741291 0.485554 0.144729
H16   H     H_    0.900597 0.726265 0.454816 0.118731
H17   H     H_    0.513593 0.038463 0.707437 0.104571
H18   H     H_    0.393534 0.389234 0.951810 0.213053
H19   H     H_    0.883893 0.269109 0.591985 0.186897
H20   H     H_    0.906385 0.444517 0.770466 0.113608
H21   H     H_    0.893572 0.711590 0.687979 0.153572
N1    N     N_2   0.464720 0.456420 0.038520 -0.215647
N2    N     N_2   0.535280 0.543580 0.961480 0.014887
O1    O     O_R   0.509140 0.286130 0.619770 -0.554232
O2    O     O_3   0.869897 0.254901 0.240246 -0.529117
O3    O     O_R   0.485380 0.256770 0.308360 -0.479634
O4    O     O_R   0.329570 0.514650 0.655700 -0.474958
O5    O     O_R   0.305810 0.485300 0.344290 -0.529990
O6    O     O_R   0.514620 0.743230 0.691640 -0.462847
O7    O     O_R   0.490860 0.713870 0.380230 -0.421103
O8    O     O_R   0.694190 0.514700 0.655710 -0.515022
O9    O     O_R   0.670430 0.485350 0.344300 -0.466205
O10   O     O_3   0.128019 0.729752 0.760276 -0.545275

loop_
_geom_bond_atom_site_label_1
_geom_bond_atom_site_label_2
_ccdc_geom_bond_type
C7    H4    S    
Cu2   O9    S    
Cu2   N1    S    
C11   C13   S    
C3    C11   S    
C5    H3    S    
C10   H14   S    
C9    O2    S    
C1    O3    A    
Cu1   O4    S    
C13   O2    S    
C5    C13   S    
C4    C12   S    
C14   C15   D    
C8    H8    S    
C10   H11   S    
C17   O6    A    
N1    N2    D    
C9    H9    S    
C2    C6    S    
C5    H2    S    
C16   O4    A    
C12   H16   S    
C2    C3    S    
C2    H1    S    
C4    O10   S    
C1    C14   S    
C11   C18   S    
Cu1   O6    S    
Cu1   N2    S    
C4    H15   S    
C12   H21   S    
Cu2   O7    S    
C15   C17   S    
C3    H20   S    
C13   H12   S    
C18   O8    A    
Cu1   O1    S    
Cu2   O3    S    
C7    C8    S    
C16   O5    A    
C7    O10   S    
C9    C10   S    
C8    H6    S    
C10   H13   S    
Cu1   O8    S    
C3    H19   S    
C7    H5    S    
C4    C6    S    
H18   N1    S    
Cu1   Cu2   S    
C5    C6    S    
C18   O9    A    
C15   H17   S    
C9    H10   S    
C11   C12   S    
Br1   C14   S    
C6    C16   S    
Br2   N2    S    
Cu2   O5    S    
C8    H7    S    
C17   O7    A    
Br3   C2    S    
C1    O1    A    
