data_mof_unit_33569.cif
_audit_creation_date              2012-12-10T18:59:13-0500
_audit_creation_method            fapswitch 2.2
_symmetry_space_group_name_H-M    P1
_symmetry_Int_Tables_number       1
_space_group_crystal_system       triclinic
_cell_length_a                    10.772581
_cell_length_b                    10.820123
_cell_length_c                    9.554516
_cell_angle_alpha                 89.964294
_cell_angle_beta                  89.996636
_cell_angle_gamma                 89.806558
_cell_volume                      1113.67404392

loop_
_atom_site_label
_atom_site_type_symbol
_atom_type_description
_atom_site_fract_x
_atom_site_fract_y
_atom_site_fract_z
_atom_type_partial_charge
C1    C     C_R   0.502520 0.262353 0.499976 0.798576
C2    C     C_R   0.064902 0.609612 0.565182 0.099076
C3    C     C_R   0.128761 0.510774 0.499884 -0.097675
C4    C     C_R   0.064380 0.417374 0.430606 -0.212272
C5    C     C_R   0.936245 0.417201 0.430553 -0.206905
C6    C     C_R   0.870965 0.510849 0.499037 -0.096875
C7    C     C_R   0.519036 0.063631 0.625318 0.131863
C8    C     C_R   0.515426 0.129252 0.499638 -0.099581
C9    C     C_R   0.529613 0.064403 0.373153 -0.221746
C10   C     C_R   0.529277 0.935609 0.373245 -0.210879
C11   C     C_R   0.515049 0.870774 0.499806 -0.095677
C12   C     C_R   0.262570 0.503234 0.500035 0.789946
C13   C     C_R   0.519102 0.936388 0.625555 0.109985
C14   C     C_3   0.435352 0.930771 0.750131 -0.468599
C15   C     C_3   0.435358 0.071027 0.749618 -0.465436
C16   C     C_R   0.605239 0.528157 0.073617 0.263414
C17   C     C_R   0.400048 0.459544 0.074319 -0.082343
C18   C     C_R   0.399997 0.459645 0.925671 -0.085110
C19   C     C_R   0.605524 0.527483 0.926468 0.267118
C20   C     C_3   0.678320 0.644264 0.920403 -0.514647
C21   C     C_3   0.676602 0.645740 0.079359 -0.497424
C22   C     C_R   0.502297 0.737684 0.499968 0.777192
C23   C     C_R   0.737356 0.502904 0.499827 0.786428
C24   C     C_R   0.128182 0.709648 0.627669 -0.184530
C25   C     C_R   0.062506 0.807704 0.687314 -0.138225
C26   C     C_R   0.933383 0.808899 0.684073 -0.135536
C27   C     C_R   0.869137 0.711768 0.621870 -0.204220
C28   C     C_R   0.933683 0.610192 0.563489 0.096314
Cu1   Cu    Cu3+1 0.499990 0.499980 0.640670 0.934101
Cu2   Cu    Cu3+1 0.500010 0.500020 0.359330 0.938239
H1    H     H_    0.113757 0.342794 0.378923 0.142072
H2    H     H_    0.482145 0.890890 0.843451 0.193566
H3    H     H_    0.343231 0.112088 0.724392 0.194072
H4    H     H_    0.482693 0.111578 0.842136 0.198549
H5    H     H_    0.318414 0.428055 0.129353 0.146677
H6    H     H_    0.318319 0.428287 0.870689 0.148295
H7    H     H_    0.772786 0.628721 0.877255 0.210503
H8    H     H_    0.625959 0.721844 0.872094 0.209064
H9    H     H_    0.770026 0.632674 0.126615 0.204239
H10   H     H_    0.621563 0.723487 0.123464 0.205900
H11   H     H_    0.228358 0.714095 0.629031 0.139674
H12   H     H_    0.768975 0.717895 0.618756 0.141094
H13   H     H_    0.887586 0.342381 0.379074 0.145747
H14   H     H_    0.534527 0.112459 0.273839 0.165631
H15   H     H_    0.533713 0.887687 0.273976 0.158204
H16   H     H_    0.343310 0.890463 0.725472 0.192216
N1    N     N_R   0.500790 0.500930 0.147930 -0.187413
N2    N     N_R   0.500790 0.500890 0.852020 -0.186056
O1    O     O_R   0.500000 0.319640 0.618810 -0.575211
O2    O     O_R   0.500010 0.319680 0.381230 -0.586200
O3    O     O_R   0.319640 0.499980 0.618820 -0.590892
O4    O     O_R   0.319650 0.500020 0.381230 -0.580897
O5    O     O_R   0.499990 0.680320 0.618770 -0.587272
O6    O     O_R   0.500000 0.680360 0.381190 -0.579496
O7    O     O_R   0.680350 0.499980 0.618770 -0.582150
O8    O     O_R   0.680360 0.500020 0.381180 -0.579580
H17   H     H_    0.111898 0.883877 0.734728 0.128881
H18   H     H_    0.882740 0.885870 0.728902 0.136210

loop_
_geom_bond_atom_site_label_1
_geom_bond_atom_site_label_2
_ccdc_geom_bond_type
C18   N2    A    
C23   O7    A    
Cu1   Cu2   S    
C20   H7    S    
C1    C8    S    
Cu2   O6    S    
C9    C10   A    
C15   H4    S    
Cu1   O7    S    
C19   C20   S    
C21   H9    S    
Cu2   O8    S    
C10   H15   S    
C7    C15   S    
C17   C18   A    
C5    H13   S    
C23   O8    A    
C22   O6    A    
Cu1   O1    S    
C13   C14   S    
C20   C21   S    
C24   H11   S    
C11   C13   A    
C27   H12   S    
C26   C27   A    
C16   C21   S    
C21   H10   S    
Cu1   O5    S    
C16   C19   A    
C6    C23   S    
C16   N1    A    
C17   H5    S    
C12   O4    A    
Cu1   O3    S    
C2    C3    A    
C22   O5    A    
C2    C24   A    
C5    C6    A    
Cu2   O2    S    
C4    H1    S    
C7    C8    A    
C10   C11   A    
Cu1   N2    S    
C3    C4    A    
C25   H17   S    
Cu2   N1    S    
C7    C13   A    
C12   O3    A    
C20   H8    S    
C24   C25   A    
C14   H16   S    
C1    O2    A    
C14   H2    S    
C27   C28   A    
Cu2   O4    S    
C14   C15   S    
C4    C5    A    
C9    H14   S    
C2    C28   A    
C3    C12   S    
C11   C22   S    
C25   C26   A    
C19   N2    A    
C18   H6    S    
C26   H18   S    
C6    C28   A    
C17   N1    A    
C15   H3    S    
C8    C9    A    
C1    O1    A    
