data_mof_unit_36216.cif
_audit_creation_date              2013-03-05T15:40:40-0500
_audit_creation_method            fapswitch 2.2
_symmetry_space_group_name_H-M    P1
_symmetry_Int_Tables_number       1
_space_group_crystal_system       triclinic
_cell_length_a                    19.23475
_cell_length_b                    11.069249
_cell_length_c                    18.813551
_cell_angle_alpha                 90.531328
_cell_angle_beta                  89.82757
_cell_angle_gamma                 90.118605
_cell_volume                      4005.47413318

loop_
_atom_site_label
_atom_site_type_symbol
_atom_site_description
_atom_site_fract_x
_atom_site_fract_y
_atom_site_fract_z
_atom_type_partial_charge
O1    O     O_R   0.043230 0.549300 0.667990 -0.483590
O2    O     O_R   0.956770 0.549300 0.332010 -0.485083
O3    O     O_R   0.543230 0.049300 0.667990 -0.484627
O4    O     O_R   0.456770 0.049300 0.332010 -0.487419
O5    O     O_R   0.178620 0.457600 0.674100 -0.503066
O6    O     O_R   0.821380 0.457600 0.325900 -0.499906
O7    O     O_R   0.678620 0.957600 0.674100 -0.501702
O8    O     O_R   0.321380 0.957600 0.325900 -0.501794
C1    C     C_R   0.239816 0.464632 0.649267 0.573428
C2    C     C_R   0.759966 0.465382 0.350423 0.579352
C3    C     C_R   0.739831 0.964588 0.649298 0.575238
C4    C     C_R   0.259986 0.965432 0.350462 0.575223
O9    O     O_R   0.284680 0.542100 0.669460 -0.477361
O10   O     O_R   0.715320 0.542100 0.330540 -0.479494
O11   O     O_R   0.784680 0.042100 0.669460 -0.476842
O12   O     O_R   0.215320 0.042100 0.330540 -0.481636
O13   O     O_R   0.262860 0.790390 0.676650 -0.427133
O14   O     O_R   0.737140 0.790390 0.323350 -0.423632
O15   O     O_R   0.762860 0.290390 0.676650 -0.425569
O16   O     O_R   0.237140 0.290390 0.323350 -0.430524
C5    C     C_R   0.226605 0.872104 0.647625 0.578655
C6    C     C_R   0.773566 0.872290 0.352585 0.587790
C7    C     C_R   0.726604 0.372097 0.647626 0.581354
C8    C     C_R   0.273560 0.372306 0.352582 0.580202
O17   O     O_R   0.167460 0.907030 0.670940 -0.503672
O18   O     O_R   0.832540 0.907030 0.329060 -0.499416
O19   O     O_R   0.667460 0.407030 0.670940 -0.502428
O20   O     O_R   0.332540 0.407030 0.329060 -0.502485
O21   O     O_R   0.053950 0.750220 0.675100 -0.519328
O22   O     O_R   0.946050 0.750220 0.324900 -0.513386
O23   O     O_R   0.553950 0.250220 0.675100 -0.518162
O24   O     O_R   0.446050 0.250220 0.324900 -0.518195
C9    C     C_R   0.028268 0.654809 0.645981 0.565429
C10   C     C_R   0.971690 0.656352 0.354112 0.574953
C11   C     C_R   0.528236 0.154838 0.646015 0.563486
C12   C     C_R   0.471660 0.156333 0.354142 0.564372
O25   O     O_R   0.043300 0.547370 0.827390 -0.446947
O26   O     O_R   0.956700 0.547370 0.172610 -0.433208
O27   O     O_R   0.543300 0.047370 0.827390 -0.442191
O28   O     O_R   0.456700 0.047370 0.172610 -0.440350
O29   O     O_R   0.178690 0.455820 0.821860 -0.459589
O30   O     O_R   0.821310 0.455820 0.178140 -0.488667
O31   O     O_R   0.678690 0.955820 0.821860 -0.455068
O32   O     O_R   0.321310 0.955820 0.178140 -0.456413
C13   C     C_R   0.239598 0.462106 0.849273 0.560174
C14   C     C_R   0.760511 0.461889 0.150517 0.539953
C15   C     C_R   0.740532 0.960611 0.848041 0.559619
C16   C     C_R   0.260101 0.961049 0.150932 0.555007
O33   O     O_R   0.284750 0.540170 0.828860 -0.477308
O34   O     O_R   0.715250 0.540170 0.171140 -0.481257
O35   O     O_R   0.784750 0.040170 0.828860 -0.491179
O36   O     O_R   0.215250 0.040170 0.171140 -0.479770
O37   O     O_R   0.262920 0.788600 0.824420 -0.471602
O38   O     O_R   0.737080 0.788600 0.175580 -0.462928
O39   O     O_R   0.762920 0.288600 0.824420 -0.480203
O40   O     O_R   0.237080 0.288600 0.175580 -0.474789
C17   C     C_R   0.225377 0.869885 0.854854 0.577334
C18   C     C_R   0.786229 0.839080 0.138847 0.544190
C19   C     C_R   0.725553 0.370652 0.854484 0.580123
C20   C     C_R   0.274354 0.369861 0.145459 0.572852
O41   O     O_R   0.167530 0.905110 0.830340 -0.500209
O42   O     O_R   0.832470 0.905110 0.169660 -0.492137
O43   O     O_R   0.667530 0.405110 0.830340 -0.503152
O44   O     O_R   0.332470 0.405110 0.169660 -0.502309
O45   O     O_R   0.054010 0.748440 0.822860 -0.513037
O46   O     O_R   0.945990 0.748440 0.177140 -0.494531
O47   O     O_R   0.554010 0.248440 0.822860 -0.516773
O48   O     O_R   0.445990 0.248440 0.177140 -0.518028
C21   C     C_R   0.027060 0.652859 0.848860 0.592432
C22   C     C_R   0.936933 0.645916 0.142711 0.574525
C23   C     C_R   0.528585 0.152875 0.850132 0.596308
C24   C     C_R   0.471039 0.152241 0.149587 0.596876
Cr1   Cr    Cr6+3 0.113970 0.508630 0.747920 1.123176
Cr2   Cr    Cr6+3 0.886030 0.508630 0.252080 1.109491
Cr3   Cr    Cr6+3 0.613970 0.008630 0.747920 1.127551
Cr4   Cr    Cr6+3 0.386030 0.008630 0.252080 1.123946
Cr5   Cr    Cr6+3 0.269200 0.666740 0.749850 1.128309
Cr6   Cr    Cr6+3 0.730800 0.666740 0.250150 1.118626
Cr7   Cr    Cr6+3 0.769200 0.166740 0.749850 1.118710
Cr8   Cr    Cr6+3 0.230800 0.166740 0.250150 1.120893
Cr9   Cr    Cr6+3 0.112300 0.820070 0.749800 1.053333
Cr10  Cr    Cr6+3 0.887700 0.820070 0.250200 1.053076
Cr11  Cr    Cr6+3 0.612300 0.320070 0.749800 1.051556
Cr12  Cr    Cr6+3 0.387700 0.320070 0.250200 1.050020
O49   O     O_3   0.165160 0.665150 0.749190 -0.303641
O50   O     O_3   0.834840 0.665150 0.250810 -0.337674
O51   O     O_3   0.665160 0.165150 0.749190 -0.303268
O52   O     O_3   0.334840 0.165150 0.250810 -0.303714
C25   C     C_2   0.252921 0.927658 0.584127 -0.083914
C26   C     C_2   0.747713 0.926121 0.417270 -0.091285
C27   C     C_2   0.752908 0.427636 0.584125 -0.083217
C28   C     C_2   0.247676 0.426208 0.417237 -0.089472
C29   C     C_2   0.248983 0.905976 0.415787 0.113957
C30   C     C_2   0.749795 0.902947 0.583570 0.100806
C31   C     C_2   0.748924 0.405907 0.415723 0.113238
C32   C     C_2   0.249751 0.403062 0.583504 0.100618
C33   C     C_2   0.293396 0.934296 0.467420 -0.106994
C34   C     C_2   0.704065 0.928785 0.532910 -0.110475
C35   C     C_2   0.793275 0.434305 0.467392 -0.107402
C36   C     C_2   0.203991 0.428913 0.532872 -0.110201
C37   C     C_2   0.290418 0.871035 0.533273 0.028392
C38   C     C_2   0.707853 0.868630 0.465388 0.023234
C39   C     C_2   0.790311 0.370976 0.533212 0.028028
C40   C     C_2   0.207760 0.368782 0.465334 0.024968
H1    H     H_    0.331187 0.007128 0.462015 0.131166
H2    H     H_    0.666194 0.001159 0.539359 0.129600
H3    H     H_    0.831034 0.507197 0.462022 0.130768
H4    H     H_    0.166106 0.501254 0.539360 0.129731
H5    H     H_    0.231732 0.016461 0.573304 0.181376
H6    H     H_    0.770106 0.013258 0.431029 0.179939
H7    H     H_    0.731764 0.516483 0.573349 0.181391
H8    H     H_    0.270089 0.513330 0.430998 0.180079
C41   C     C_R   0.005303 0.668446 0.424800 0.007143
C42   C     C_R   0.996633 0.663349 0.574510 0.008335
C43   C     C_R   0.505122 0.168357 0.424911 0.007919
C44   C     C_R   0.496446 0.163473 0.574629 0.008052
C45   C     C_R   0.004839 0.891358 0.429978 -0.054197
C46   C     C_R   0.988332 0.885390 0.576855 -0.051438
C47   C     C_R   0.504824 0.391258 0.429990 -0.053678
C48   C     C_R   0.488381 0.385509 0.576879 -0.051467
C49   C     C_R   0.999647 0.997730 0.469099 -0.088994
C50   C     C_R   0.992601 0.994780 0.542415 -0.094547
C51   C     C_R   0.499683 0.497670 0.469059 -0.088894
C52   C     C_R   0.492706 0.494830 0.542384 -0.094344
C53   C     C_R   0.996124 0.775590 0.539044 0.027433
C54   C     C_R   0.001085 0.778360 0.463773 0.025254
C55   C     C_R   0.496048 0.275658 0.539111 0.027482
C56   C     C_R   0.500996 0.278321 0.463835 0.026576
H9    H     H_    0.000795 0.081941 0.441870 0.112001
H10   H     H_    0.990366 0.076402 0.573698 0.119231
H11   H     H_    0.500816 0.581798 0.441761 0.112014
H12   H     H_    0.490577 0.576461 0.573644 0.119534
H13   H     H_    0.015633 0.899483 0.373836 0.154382
H14   H     H_    0.976034 0.888443 0.632930 0.155222
H15   H     H_    0.515632 0.399316 0.373848 0.152833
H16   H     H_    0.476132 0.388659 0.632963 0.156056
C57   C     C_R   0.993524 0.556166 0.533556 -0.018360
C58   C     C_R   0.015551 0.560716 0.462142 -0.018305
C59   C     C_R   0.493117 0.056289 0.533750 -0.017652
C60   C     C_R   0.515157 0.060634 0.462332 -0.018377
C61   C     C_R   0.972071 0.443540 0.561593 0.119434
C62   C     C_R   0.037050 0.453303 0.427564 0.122642
C63   C     C_R   0.471699 0.943786 0.561968 0.119194
C64   C     C_R   0.536721 0.953138 0.427912 0.122059
C65   C     C_R   0.983229 0.339097 0.521440 -0.105139
C66   C     C_R   0.016919 0.343910 0.456058 -0.095167
C67   C     C_R   0.483092 0.839200 0.522034 -0.104426
C68   C     C_R   0.516834 0.843817 0.456667 -0.095846
H17   H     H_    0.965644 0.254071 0.540959 0.150972
H18   H     H_    0.024869 0.263735 0.425146 0.151635
H19   H     H_    0.465727 0.754214 0.541763 0.151346
H20   H     H_    0.525083 0.763510 0.425993 0.151355
C69   C     C_2   0.236540 0.895741 0.929969 -0.038826
C70   C     C_2   0.770695 0.870622 0.065699 -0.060873
C71   C     C_2   0.736447 0.397524 0.929326 -0.038389
C72   C     C_2   0.262491 0.395826 0.070791 -0.039143
C73   C     C_2   0.243656 0.880069 0.089821 0.023520
C74   C     C_2   0.760076 0.878792 0.906635 0.042922
C75   C     C_2   0.745858 0.382841 0.088301 0.021262
C76   C     C_2   0.254887 0.383509 0.910708 0.029123
C77   C     C_2   0.184758 0.897986 0.051511 0.020328
C78   C     C_2   0.819812 0.900884 0.943353 0.002950
C79   C     C_2   0.685811 0.394889 0.051348 0.019386
C80   C     C_2   0.314081 0.399722 0.948886 0.018812
C81   C     C_2   0.182681 0.874906 0.974312 -0.093250
C82   C     C_2   0.824398 0.889068 0.021474 -0.167281
C83   C     C_2   0.683556 0.372201 0.974090 -0.098636
C84   C     C_2   0.316155 0.376004 0.025791 -0.104470
H21   H     H_    0.132825 0.846313 0.952631 0.155784
H22   H     H_    0.875853 0.899471 0.044424 0.176595
H23   H     H_    0.634583 0.338908 0.952785 0.147243
H24   H     H_    0.366046 0.347636 0.046869 0.149295
H25   H     H_    0.287374 0.922971 0.949181 0.134660
H26   H     H_    0.717431 0.866004 0.047445 0.151052
H27   H     H_    0.786140 0.431362 0.947837 0.141769
H28   H     H_    0.211439 0.423116 0.052607 0.147767
C85   C     C_2   0.990996 0.663217 0.916542 -0.106968
C86   C     C_2   0.942430 0.647382 0.065437 -0.125125
C87   C     C_2   0.502209 0.164455 0.922066 -0.115764
C88   C     C_2   0.495935 0.162593 0.077114 -0.116184
C89   C     C_2   0.971298 0.558826 0.025601 0.028435
C90   C     C_2   0.963044 0.565854 0.948215 -0.001994
C91   C     C_2   0.509314 0.064647 0.036336 0.001335
C92   C     C_2   0.486799 0.066353 0.960974 0.002384
H29   H     H_    0.912920 0.715679 0.038895 0.062379
H30   H     H_    0.005780 0.741501 0.948560 0.108703
H31   H     H_    0.478587 0.245618 0.052719 0.098296
H32   H     H_    0.520139 0.246767 0.947855 0.097666
C93   C     C_2   0.293834 0.781622 0.069446 0.554052
O53   O     O_2   0.275011 0.698299 0.030801 -0.526637
O54   O     O_R   0.361264 0.780440 0.097043 -0.625429
H33   H     H_    0.388870 0.707130 0.080931 0.377258
C94   C     C_2   0.715037 0.772206 0.923100 0.546638
O55   O     O_2   0.739026 0.686793 0.955717 -0.550515
O56   O     O_R   0.646429 0.766704 0.898917 -0.628157
H34   H     H_    0.622178 0.688796 0.912526 0.369933
C95   C     C_2   0.800461 0.295378 0.063508 0.565225
O57   O     O_2   0.861633 0.311151 0.078563 -0.424065
O58   O     O_R   0.781302 0.193476 0.023601 -0.700146
H35   H     H_    0.822914 0.143677 0.008243 0.367938
C96   C     C_2   0.202264 0.290412 0.932321 0.542378
O59   O     O_2   0.220921 0.200244 0.964192 -0.524990
O60   O     O_R   0.132123 0.303606 0.914642 -0.639761
H36   H     H_    0.102752 0.232242 0.930009 0.379297
C97   C     C_2   0.025023 0.474883 0.053305 0.658192
O61   O     O_2   0.070937 0.513514 0.092334 -0.487588
O62   O     O_R   0.024739 0.353164 0.033000 -0.583928
H37   H     H_    0.063915 0.305944 0.055538 0.354304
C98   C     C_2   0.928959 0.465408 0.907831 0.623733
O63   O     O_2   0.906479 0.482955 0.848055 -0.480012
O64   O     O_R   0.919693 0.352512 0.939043 -0.608165
H38   H     H_    0.895336 0.292574 0.906466 0.352982
C99   C     C_2   0.551063 0.960762 0.063348 0.647891
O65   O     O_2   0.578724 0.966469 0.121776 -0.471930
O66   O     O_R   0.562848 0.859650 0.020003 -0.618740
H39   H     H_    0.591849 0.795745 0.044219 0.354156
C100  C     C_2   0.444700 0.964137 0.930934 0.639155
O67   O     O_2   0.416844 0.973462 0.872843 -0.487408
O68   O     O_R   0.433215 0.860148 0.970784 -0.623776
H40   H     H_    0.403698 0.798070 0.944734 0.359483
C101  C     C_2   0.322035 0.747469 0.532889 0.586495
O69   O     O_2   0.331684 0.695644 0.476020 -0.536321
O70   O     O_R   0.348556 0.695697 0.593970 -0.647093
H41   H     H_    0.371681 0.615189 0.583971 0.333153
C102  C     C_2   0.674354 0.746545 0.460584 0.598415
O71   O     O_2   0.667296 0.687183 0.514619 -0.528866
O72   O     O_R   0.643735 0.704457 0.398152 -0.652475
H42   H     H_    0.619000 0.624335 0.404631 0.331266
C103  C     C_2   0.821909 0.247391 0.532741 0.586158
O73   O     O_2   0.831605 0.195721 0.475832 -0.536072
O74   O     O_R   0.848371 0.195433 0.593787 -0.647266
H43   H     H_    0.871494 0.114947 0.583722 0.333013
C104  C     C_2   0.174261 0.246698 0.460515 0.599887
O75   O     O_2   0.167208 0.187307 0.514541 -0.529040
O76   O     O_R   0.143656 0.204629 0.398071 -0.652966
H44   H     H_    0.118934 0.124490 0.404532 0.331421
I1    I     I_    0.175446 0.764366 0.419325 -0.378845
I2    I     I_    0.821914 0.759445 0.578703 -0.395651
I3    I     I_    0.675368 0.264298 0.419194 -0.379407
I4    I     I_    0.321867 0.259574 0.578531 -0.400145
I5    I     I_    0.094991 0.450439 0.329124 -0.198887
I6    I     I_    0.914348 0.424733 0.659190 -0.194659
I7    I     I_    0.594805 0.949989 0.329569 -0.180862
I8    I     I_    0.414106 0.925369 0.659774 -0.203611
C105  C     C_2   0.118310 0.938451 0.084816 0.609430
O77   O     O_2   0.077337 0.999405 0.050898 -0.473928
O78   O     O_R   0.101290 0.902258 0.153789 -0.652034
H45   H     H_    0.054547 0.934443 0.170175 0.347593
C106  C     C_2   0.885049 0.938372 0.906307 0.582475
O79   O     O_2   0.927808 0.001996 0.936907 -0.485834
O80   O     O_R   0.898419 0.897170 0.837061 -0.666573
H46   H     H_    0.944351 0.927943 0.817738 0.342429
C107  C     C_2   0.618852 0.429037 0.085964 0.591018
O81   O     O_2   0.574963 0.484420 0.052531 -0.488648
O82   O     O_R   0.604787 0.393163 0.155672 -0.664773
H47   H     H_    0.557444 0.421004 0.172983 0.343727
C108  C     C_2   0.380782 0.438884 0.915845 0.594875
O83   O     O_2   0.422170 0.499663 0.950189 -0.477816
O84   O     O_R   0.397598 0.401502 0.846663 -0.671888
H48   H     H_    0.444625 0.432646 0.830552 0.343398

loop_
_geom_bond_atom_site_label_1
_geom_bond_atom_site_label_2
_geom_bond_distance
_ccdc_geom_bond_type
C18   O42   1.286041 A    
C35   C39   1.429539 S    
O60   H36   1.013981 S    
O4    C12   1.284237 A    
O47   Cr11  1.944816 S    
O39   C19   1.285361 A    
O20   Cr12  2.054680 S    
C96   O60   1.398778 S    
C96   O59   1.224079 D    
C62   C66   1.382907 A    
C90   C98   1.492519 S    
C89   C97   1.489676 S    
C67   C68   1.390122 A    
C36   C40   1.430644 S    
C64   C68   1.382866 A    
C45   H13   1.080358 S    
O26   C22   1.290456 A    
C65   C66   1.390001 A    
C48   C55   1.410421 A    
O1    C9    1.276463 A    
O80   H46   1.013836 S    
C41   C58   1.404210 A    
C5    C25   1.438819 S    
C97   O61   1.224123 D    
C10   C41   1.485273 S    
O7    C3    1.267641 A    
C80   C84   1.473547 S    
C9    C42   1.481458 S    
C103  O73   1.223165 D    
C91   C99   1.497530 S    
O37   C17   1.284340 A    
C76   C80   1.358745 D    
C50   H10   1.074562 S    
C78   C106  1.493476 S    
O25   C21   1.271308 A    
O40   Cr8   1.958498 S    
O30   C14   1.283290 A    
C107  O81   1.223371 D    
C31   C35   1.330306 D    
C98   O64   1.396537 S    
C30   C34   1.332306 D    
C27   H7    1.086090 S    
C85   C90   1.346573 D    
C64   I7    2.158494 S    
C69   H25   1.084624 S    
O8    Cr4   1.948199 S    
O23   Cr11  1.954048 S    
C52   H12   1.074329 S    
C79   C107  1.489361 S    
C108  O83   1.223390 D    
C46   C50   1.380785 A    
C42   C57   1.409932 A    
C23   C87   1.448542 S    
C95   O58   1.398594 S    
C1    O9    1.271690 A    
C26   C38   1.347883 D    
O25   Cr1   2.060409 S    
C18   C70   1.454959 S    
C21   C85   1.451900 S    
C78   C82   1.479658 S    
C86   H29   1.074033 S    
C59   C63   1.418170 A    
C30   I2    2.112232 S    
O11   Cr7   2.059091 S    
C4    O12   1.268730 A    
O21   C9    1.283856 A    
C29   I1    2.110552 S    
C43   C60   1.404315 A    
C94   O56   1.398191 S    
C44   C55   1.415675 A    
O76   H44   1.013758 S    
C46   C53   1.410585 A    
C7    O19   1.277399 A    
C6    C26   1.437859 S    
O3    Cr3   2.083940 S    
C45   C54   1.409991 A    
Cr4   O52   1.994942 S    
O47   C23   1.275862 A    
C46   H14   1.080709 S    
C88   C91   1.347132 D    
O48   C24   1.274811 A    
C44   C59   1.409364 A    
C51   H11   1.067782 S    
C47   C56   1.409889 A    
O2    C10   1.284376 A    
C99   O66   1.397170 S    
O42   Cr10  2.085881 S    
Cr5   O49   2.001299 S    
O58   H35   1.012657 S    
O18   Cr10  2.054680 S    
C66   H18   1.067553 S    
C105  O77   1.223428 D    
Cr8   O52   2.001372 S    
O17   Cr9   2.065483 S    
C32   I4    2.112143 S    
C95   O57   1.222875 D    
C13   C76   1.483596 S    
C3    O11   1.271647 A    
C8    C28   1.437920 S    
Cr7   O51   2.001299 S    
O6    Cr2   1.948199 S    
C73   C93   1.503457 S    
C97   O62   1.397037 S    
C81   H21   1.088527 S    
O24   Cr12  1.966160 S    
O9    Cr5   2.059091 S    
C36   H4    1.089582 S    
C74   C94   1.496453 S    
O30   Cr2   1.954186 S    
O22   C10   1.280328 A    
O62   H37   1.014148 S    
O48   Cr12  1.936293 S    
C99   O65   1.223710 D    
C68   H20   1.067197 S    
C51   C52   1.386249 A    
C85   H30   1.088547 S    
O70   H41   1.012643 S    
C98   O63   1.223405 D    
C58   C62   1.412065 A    
C104  O75   1.222647 D    
C71   C83   1.349391 D    
O68   H40   1.014170 S    
C107  O82   1.399244 S    
C42   C53   1.415773 A    
O16   Cr8   1.936533 S    
O15   C7    1.271449 A    
C28   H8    1.085001 S    
C25   H5    1.086133 S    
C15   O35   1.276759 A    
C87   H32   1.084437 S    
O26   Cr2   2.065005 S    
O27   C23   1.272178 A    
C34   C38   1.430528 S    
C17   C69   1.455744 S    
C38   C102  1.498033 S    
C47   H15   1.080339 S    
C43   C56   1.416930 A    
O40   C20   1.283976 A    
O43   Cr11  2.071163 S    
C48   H16   1.080697 S    
Cr12  O52   1.991906 S    
C89   C90   1.467820 S    
C67   H19   1.067109 S    
C91   C92   1.484033 S    
C20   C72   1.455248 S    
O64   H38   1.014013 S    
C77   C105  1.489683 S    
C101  O69   1.223156 D    
C88   H31   1.084711 S    
O34   Cr6   2.055293 S    
O46   Cr10  1.936293 S    
O39   Cr7   1.940846 S    
O3    C11   1.276685 A    
C28   C40   1.347886 D    
O45   Cr9   1.944816 S    
O72   H42   1.013759 S    
C13   O33   1.284324 A    
C79   C83   1.473487 S    
O8    C4    1.269631 A    
C33   C37   1.429711 S    
O13   Cr5   1.954853 S    
C102  O71   1.222633 D    
C106  O79   1.223444 D    
C11   C44   1.481312 S    
C31   I3    2.110744 S    
O29   C13   1.282959 A    
Cr2   O50   1.994942 S    
C108  O84   1.399262 S    
O15   Cr7   1.954853 S    
C104  O76   1.391560 S    
C1    C32   1.419597 S    
Cr1   O49   1.991014 S    
C49   C50   1.386247 A    
C3    C30   1.419478 S    
Cr3   O51   1.991014 S    
C92   C100  1.497457 S    
O21   Cr9   1.954048 S    
C82   H22   1.086477 S    
C106  O80   1.399562 S    
O27   Cr3   2.060409 S    
C57   C61   1.418268 A    
C105  O78   1.399308 S    
C77   C81   1.472995 S    
C53   C54   1.419650 A    
C8    O20   1.276283 A    
C7    C27   1.438713 S    
C4    C29   1.414639 S    
C71   H27   1.083190 S    
C26   H6    1.084980 S    
C45   C49   1.386385 A    
O82   H47   1.013791 S    
C29   C33   1.330391 D    
C63   C67   1.391638 A    
C76   C96   1.500932 S    
O31   Cr3   1.963424 S    
O14   Cr6   1.936533 S    
C87   C92   1.347228 D    
O38   C18   1.297918 A    
C84   H24   1.087473 S    
C37   C101  1.497978 S    
O54   H33   1.014201 S    
C5    O17   1.277403 A    
C72   H28   1.085225 S    
C19   C71   1.452148 S    
O22   Cr10  1.966160 S    
O28   C24   1.272211 A    
C25   C37   1.347225 D    
O14   C6    1.267179 A    
O36   Cr8   2.055293 S    
O12   Cr8   2.076985 S    
C22   C86   1.457558 S    
C60   C64   1.411872 A    
O5    C1    1.267620 A    
C73   C77   1.360403 D    
C39   C103  1.498017 S    
O2    Cr2   2.076683 S    
Cr11  O51   1.995343 S    
O6    C2    1.269698 A    
O7    Cr3   1.942218 S    
C59   C60   1.408913 A    
O24   C12   1.280518 A    
C17   O41   1.269242 A    
C55   C56   1.419691 A    
C41   C54   1.417040 A    
C47   C51   1.386180 A    
C100  O68   1.396358 S    
C62   I5    2.158627 S    
C35   H3    1.089662 S    
C57   C58   1.408867 A    
C14   O34   1.286143 A    
C19   O43   1.267062 A    
C61   I6    2.154381 S    
C34   H2    1.089602 S    
C83   H23   1.087149 S    
C20   O44   1.267711 A    
O1    Cr1   2.083940 S    
C24   C88   1.449233 S    
O19   Cr11  2.065483 S    
C100  O67   1.223936 D    
C49   H9    1.067954 S    
C33   H1    1.089645 S    
C101  O70   1.387843 S    
O32   C16   1.286838 A    
O41   Cr9   2.071163 S    
Cr10  O50   1.991906 S    
C16   C73   1.485708 S    
Cr6   O50   2.001372 S    
C40   C104  1.498037 S    
C2    C31   1.414440 S    
O45   C21   1.277957 A    
C14   C75   1.482255 S    
C32   C36   1.332352 D    
O23   C11   1.283566 A    
C61   C65   1.391818 A    
C102  O72   1.391536 S    
O33   Cr5   2.074840 S    
C75   C79   1.357321 D    
O10   Cr6   2.076985 S    
O66   H39   1.014028 S    
O5    Cr1   1.942218 S    
C93   O53   1.223984 D    
O35   Cr7   2.074840 S    
O4    Cr4   2.076683 S    
C86   C89   1.347964 D    
C48   C52   1.380671 A    
C74   C78   1.362983 D    
O29   Cr1   1.963424 S    
O56   H34   1.014176 S    
O28   Cr4   2.065005 S    
C16   O36   1.284843 A    
C70   H26   1.082484 S    
C65   H17   1.067424 S    
O46   C22   1.313030 A    
O44   Cr12  2.085881 S    
C103  O74   1.387741 S    
C94   O55   1.223774 D    
C6    O18   1.276258 A    
C75   C95   1.500277 S    
C69   C81   1.348997 D    
O74   H43   1.012632 S    
C72   C84   1.350040 D    
C63   I8    2.156017 S    
C70   C82   1.340915 D    
O32   Cr4   1.954186 S    
O37   Cr5   1.940846 S    
C80   C108  1.489379 S    
C12   C43   1.485317 S    
O31   C15   1.289634 A    
C27   C39   1.347217 D    
O16   C8    1.267214 A    
Cr9   O49   1.995343 S    
O84   H48   1.013861 S    
O78   H45   1.013868 S    
C2    O10   1.268611 A    
C93   O54   1.398630 S    
O38   Cr6   1.958498 S    
C15   C74   1.482961 S    
O13   C5    1.271492 A    
