data_mof_unit_18989.cif
_audit_creation_date              2012-12-11T21:12:35-0500
_audit_creation_method            fapswitch 2.2
_symmetry_space_group_name_H-M    P1
_symmetry_Int_Tables_number       1
_space_group_crystal_system       triclinic
_cell_length_a                    8.548443
_cell_length_b                    18.904601
_cell_length_c                    27.227481
_cell_angle_alpha                 100.544679
_cell_angle_beta                  92.612709
_cell_angle_gamma                 88.59087
_cell_volume                      4320.69959907

loop_
_atom_site_label
_atom_site_type_symbol
_atom_type_description
_atom_site_fract_x
_atom_site_fract_y
_atom_site_fract_z
_atom_type_partial_charge
Ba1   Ba    Ba6+2 0.160810 0.465630 0.521640 1.832377
Ba2   Ba    Ba6+2 0.649380 0.534380 0.478400 1.787740
C1    C     C_3   0.538775 0.236252 0.675781 0.230799
C2    C     C_R   0.042017 0.091160 0.435786 -0.091698
C3    C     C_R   0.201091 0.957862 0.459999 0.028891
C4    C     C_3   0.029789 0.271771 0.637114 0.285939
C5    C     C_R   0.047861 0.977077 0.472830 0.077779
C6    C     C_R   0.267455 0.890545 0.463068 -0.000778
C7    C     C_R   0.179601 0.836888 0.479984 -0.046313
C8    C     C_R   0.030108 0.858759 0.499846 -0.061702
C9    C     C_R   0.968212 0.930035 0.497868 0.018418
C10   C     C_R   0.229961 0.762996 0.477121 0.029432
C11   C     C_R   0.128147 0.714260 0.493429 -0.290657
C12   C     C_3   0.484559 0.285729 0.639271 0.670365
C13   C     C_R   0.989022 0.735961 0.518191 -0.036477
C14   C     C_R   0.943436 0.810852 0.523023 -0.062130
C15   C     C_R   0.840374 0.069332 0.490660 0.067851
C16   C     C_3   0.107006 0.245499 0.682821 -0.252776
C17   C     C_R   0.780043 0.140922 0.491041 0.038619
C18   C     C_R   0.870630 0.191006 0.472016 -0.063660
C19   C     C_R   0.996446 0.164025 0.442483 -0.111900
C20   C     C_R   0.822265 0.841701 0.553792 0.417359
C21   C     C_R   0.766791 0.912851 0.554211 -0.118548
C22   C     C_R   0.827226 0.954285 0.521131 -0.085247
C23   C     C_3   0.425005 0.292463 0.370369 0.544510
C24   C     C_R   0.757881 0.021353 0.513512 0.040762
C25   C     C_R   0.600953 0.038661 0.523367 -0.088643
C26   C     C_R   0.629611 0.161966 0.510127 -0.033979
C27   C     C_R   0.536166 0.106646 0.522145 -0.034608
C28   C     C_3   0.791173 0.666301 0.642697 0.281770
C29   C     C_R   0.584004 0.236615 0.516563 -0.048896
C30   C     C_R   0.689653 0.286390 0.505632 -0.220471
C31   C     C_R   0.827431 0.265377 0.480842 0.065765
C32   C     C_R   0.405330 0.532539 0.188082 0.658453
C33   C     C_R   0.134142 0.542255 0.165399 0.676008
C34   C     C_3   0.406133 0.219683 0.333305 -0.158684
C35   C     C_2   0.080031 0.560501 0.274642 -0.082141
C36   C     C_3   0.030685 0.537723 0.321736 0.135980
C37   C     C_1   0.292562 0.491746 0.333527 -0.024206
C38   C     C_2   0.314595 0.485208 0.284091 -0.113816
C39   C     C_2   0.211512 0.529253 0.253034 0.193501
C40   C     C_3   0.722886 0.735732 0.675724 0.144845
C41   C     C_R   0.325478 0.532166 0.101097 -0.155480
C42   C     C_R   0.441665 0.519176 0.136947 -0.077378
C43   C     C_R   0.586737 0.488242 0.120985 0.482357
C44   C     C_R   0.172375 0.551045 0.116664 -0.011186
C45   C     C_3   0.845946 0.727236 0.366827 0.144927
C46   C     C_2   0.173191 0.529539 0.354769 -0.272151
C47   C     C_2   0.652735 0.477994 0.640641 0.097392
C48   C     C_R   0.554633 0.502241 0.984430 0.036893
C49   C     C_R   0.284246 0.535972 0.962817 0.008114
C50   C     C_R   0.437670 0.514826 0.948226 0.076204
C51   C     C_R   0.711726 0.496002 0.970026 -0.112842
C52   C     C_3   0.931388 0.366444 0.358721 0.909960
C53   C     C_R   0.750101 0.494299 0.920781 -0.034877
C54   C     C_R   0.633376 0.499069 0.883750 -0.040662
C55   C     C_R   0.476575 0.508387 0.897165 -0.070306
C56   C     C_3   0.779672 0.795225 0.347917 -0.237596
C57   C     C_R   0.360495 0.514623 0.859760 -0.081456
C58   C     C_R   0.400612 0.494039 0.808909 0.616628
C59   C     C_R   0.671415 0.499470 0.834033 0.732877
C60   C     C_2   0.727454 0.452529 0.725018 0.285057
C61   C     C_3   0.787910 0.468735 0.676608 -0.053130
C62   C     C_1   0.526844 0.516765 0.658479 -0.097555
C63   C     C_2   0.500643 0.529557 0.708170 -0.180335
C64   C     C_3   0.837065 0.346722 0.308693 0.308404
C65   C     C_2   0.597352 0.489471 0.743418 0.223648
C66   C     C_R   0.513168 0.500701 0.034403 -0.087822
C67   C     C_3   0.415157 0.680345 0.351327 0.272889
C68   C     C_R   0.362232 0.525737 0.049864 0.028554
C69   C     C_R   0.247183 0.543267 0.014392 0.070088
C70   C     C_R   0.616167 0.473239 0.069467 0.269025
C71   C     C_R   0.061006 0.573041 0.081987 -0.017421
C72   C     C_R   0.176697 0.553620 0.925560 -0.073734
C73   C     C_R   0.213460 0.544994 0.874864 -0.035902
C74   C     C_R   0.098893 0.567967 0.031975 -0.123380
C75   C     C_3   0.293633 0.693558 0.612560 0.692163
C76   C     C_3   0.226192 0.748148 0.655501 -0.369406
C77   C     C_2   0.629507 0.724065 0.719278 0.465387
C78   C     C_3   0.422003 0.696546 0.298289 -0.289727
C79   C     C_2   0.883791 0.273574 0.280503 0.634307
C80   C     C_2   0.584896 0.295917 0.393118 0.411113
C81   C     C_2   0.519289 0.211017 0.291388 0.501568
C82   C     C_2   0.239088 0.208498 0.313211 0.674026
C83   C     C_2   0.991036 0.220526 0.715534 0.659956
C84   C     C_2   0.020552 0.730649 0.376987 0.602175
C85   C     C_2   0.802280 0.862162 0.387156 0.666983
C86   C     C_2   0.838180 0.799623 0.296733 0.656770
C87   C     C_2   0.332290 0.763550 0.291766 0.615825
C88   C     C_2   0.164175 0.637539 0.483601 0.542191
C89   C     C_R   0.980185 0.045543 0.466492 0.050822
C90   C     C_2   0.433698 0.884427 0.451485 0.513229
C91   C     C_2   0.365973 0.111432 0.527184 0.518218
C92   C     C_2   0.138820 0.064969 0.392072 0.553060
C93   C     C_2   0.660996 0.945994 0.594549 0.490895
C94   C     C_2   0.969697 0.209070 0.599555 0.429295
C95   C     C_2   0.400442 0.421288 0.257664 0.722523
C96   C     C_2   0.907839 0.607879 0.096386 0.619995
C97   C     C_2   0.108987 0.580268 0.840733 0.641413
C98   C     C_2   0.400760 0.591839 0.730443 0.527625
C99   C     C_2   0.867342 0.620711 0.677155 0.435728
H1    H     H_    0.638532 0.760790 0.651708 0.146481
H2    H     H_    0.594781 0.187153 0.654602 0.119409
H3    H     H_    0.789192 0.724259 0.402364 0.033921
H4    H     H_    0.651674 0.790348 0.343031 0.055476
H5    H     H_    0.298136 0.659241 0.355150 -0.005259
H6    H     H_    0.503342 0.637572 0.355263 0.097357
H7    H     H_    0.373107 0.650545 0.271595 0.106973
H8    H     H_    0.544640 0.701211 0.288151 0.101299
H9    H     H_    0.120838 0.296499 0.618270 0.091176
H10   H     H_    0.054206 0.198267 0.421518 0.114962
H11   H     H_    0.657090 0.342619 0.512582 0.083001
H12   H     H_    0.711431 0.345185 0.316902 -0.054423
H13   H     H_    0.276781 0.997515 0.450207 0.040335
H14   H     H_    0.522541 0.997255 0.529114 0.068810
H15   H     H_    0.872004 0.487963 0.911582 0.116126
H16   H     H_    0.808152 0.494766 0.996773 0.119463
H17   H     H_    0.005992 0.597548 0.257683 0.154919
H18   H     H_    0.063783 0.576889 0.934970 0.114388
H19   H     H_    0.187875 0.199784 0.669907 0.038038
H20   H     H_    0.009323 0.585797 0.007812 0.046716
H21   H     H_    0.159072 0.533426 0.393927 0.022705
H22   H     H_    0.176217 0.289932 0.705328 0.158841
H23   H     H_    0.196518 0.660358 0.593524 0.053873
H24   H     H_    0.697702 0.635020 0.619635 -0.022311
H25   H     H_    0.477746 0.375211 0.686550 0.281025
H26   H     H_    0.503259 0.722550 0.715788 0.017566
H27   H     H_    0.918835 0.762220 0.713980 0.342707
H28   H     H_    0.140837 0.378611 0.381247 0.288063
H29   H     H_    0.959999 0.460110 0.403019 0.264938
H30   H     H_    0.874876 0.226629 0.297854 -0.091495
H31   H     H_    0.774102 0.393571 0.252775 0.344700
H32   H     H_    0.301849 0.772872 0.575352 0.268405
H33   H     H_    0.588590 0.295753 0.740222 0.338249
H34   H     H_    0.438049 0.218286 0.694422 0.035745
H35   H     H_    0.666328 0.250605 0.386350 -0.115222
H36   H     H_    0.350314 0.331044 0.436698 0.329092
H37   H     H_    0.610394 0.169704 0.289059 0.006317
H38   H     H_    0.144921 0.214169 0.339055 -0.021498
H39   H     H_    0.918596 0.174420 0.701123 0.050793
H40   H     H_    0.078344 0.687743 0.392320 -0.314257
H41   H     H_    0.779042 0.859504 0.425501 -0.056268
H42   H     H_    0.802887 0.758865 0.264933 0.027141
H43   H     H_    0.365740 0.815188 0.313754 0.106900
H44   H     H_    0.093358 0.603298 0.456451 -0.032114
H45   H     H_    0.183039 0.720093 0.684473 0.132555
H46   H     H_    0.520367 0.874317 0.479512 0.002120
H47   H     H_    0.795331 0.838909 0.621626 0.336664
H48   H     H_    0.292743 0.123854 0.496568 -0.018128
H49   H     H_    0.220566 0.100791 0.380186 -0.053518
H50   H     H_    0.676412 0.001633 0.612703 0.035761
H51   H     H_    0.036254 0.188495 0.566885 0.041166
H52   H     H_    0.505176 0.401458 0.274711 0.006307
H53   H     H_    0.784955 0.443594 0.139782 0.382832
H54   H     H_    0.912632 0.398705 0.741729 0.352819
H55   H     H_    0.701980 0.394699 0.022213 0.328999
H56   H     H_    0.127749 0.779242 0.641281 0.120155
H57   H     H_    0.809811 0.602953 0.069285 -0.052203
H58   H     H_    0.128363 0.574007 0.801205 0.071714
H59   H     H_    0.300601 0.609234 0.709836 0.053246
H60   H     H_    0.612782 0.435597 0.573047 0.303198
H61   H     H_    0.799874 0.604054 0.705552 -0.040194
H62   H     H_    0.317470 0.786733 0.672859 0.126114
H63   H     H_    0.591727 0.303781 0.623328 -0.028473
H64   H     H_    0.433148 0.175588 0.354590 -0.073681
N1    N     N_R   0.250670 0.536630 0.201917 -0.432003
N2    N     N_R   0.555955 0.492593 0.795879 -0.392279
O1    O     O_2   0.106080 0.324280 0.466820 -0.455662
O2    O     O_2   0.710647 0.539117 0.328273 -0.411925
O3    O     O_3   0.806898 0.666169 0.330588 -0.638664
O4    O     O_3   0.859130 0.413620 0.470620 -0.406525
O5    O     O_3   0.459240 0.537930 0.559910 -0.379407
O6    O     O_2   0.583120 0.462390 0.379940 -0.374563
O7    O     O_3   0.396195 0.349716 0.343946 -0.627699
O8    O     O_2   0.564009 0.752499 0.478867 -0.469581
O9    O     O_3   0.445695 0.742128 0.387815 -0.607566
O10   O     O_2   0.511408 0.539746 0.220117 -0.544424
O11   O     O_2   0.807560 0.507339 0.825059 -0.544650
O12   O     O_3   0.409618 0.652958 0.632997 -0.696956
O13   O     O_2   0.997385 0.535449 0.174180 -0.535528
O14   O     O_2   0.298188 0.476072 0.776627 -0.584202
O15   O     O_3   0.376230 0.370290 0.556910 -0.478334
O16   O     O_2   0.252316 0.246825 0.515519 -0.496942
O17   O     O_3   0.917834 0.310722 0.386748 -0.699841
O18   O     O_3   0.383003 0.246886 0.602558 -0.626872
O19   O     O_2   0.227190 0.537650 0.620070 -0.438167
O20   O     O_3   0.971110 0.406970 0.583250 -0.440266
O21   O     O_2   0.110790 0.424639 0.673851 -0.427264
O22   O     O_3   0.401388 0.345175 0.664338 -0.717406
O23   O     O_3   0.904934 0.319708 0.652124 -0.607836
O24   O     O_2   0.694340 0.718286 0.759309 -0.490316
O25   O     O_3   0.841513 0.785523 0.693466 -0.688976
O26   O     O_3   0.087102 0.371503 0.348011 -0.754231
O27   O     O_3   0.873630 0.433156 0.383060 -0.651757
O28   O     O_2   0.929686 0.266069 0.238005 -0.442804
O29   O     O_3   0.858307 0.399578 0.279469 -0.668638
O30   O     O_3   0.365815 0.729537 0.579049 -0.680384
O31   O     O_3   0.648296 0.270744 0.711473 -0.684101
O32   O     O_2   0.619337 0.350112 0.422302 -0.584178
O33   O     O_3   0.318471 0.293496 0.407795 -0.767586
O34   O     O_2   0.704230 0.675760 0.533200 -0.374314
O35   O     O_2   0.509592 0.249756 0.260033 -0.504337
O36   O     O_2   0.207573 0.191178 0.268468 -0.483753
O37   O     O_2   0.979115 0.251177 0.758765 -0.511472
O38   O     O_2   0.097292 0.780850 0.369373 -0.576738
O39   O     O_2   0.837357 0.919634 0.376651 -0.485150
O40   O     O_2   0.924785 0.847187 0.290202 -0.429810
O41   O     O_2   0.222195 0.760590 0.261338 -0.516113
O42   O     O_2   0.260745 0.611217 0.509397 -0.519561
O43   O     O_2   0.475561 0.897114 0.411765 -0.567263
O44   O     O_3   0.773996 0.806184 0.589380 -0.677771
O45   O     O_3   0.951180 0.586390 0.529420 -0.481674
O46   O     O_2   0.306423 0.095872 0.563651 -0.579386
O47   O     O_2   0.122376 0.004643 0.367386 -0.462757
O48   O     O_2   0.553471 0.912277 0.606643 -0.540126
O49   O     O_2   0.849984 0.179010 0.606285 -0.616713
O50   O     O_2   0.354015 0.390037 0.216513 -0.500981
O51   O     O_3   0.689205 0.465068 0.155871 -0.625399
O52   O     O_3   0.802511 0.404636 0.751343 -0.640182
O53   O     O_3   0.736268 0.425158 0.054347 -0.730813
O54   O     O_2   0.892285 0.646351 0.137135 -0.517596
O55   O     O_2   0.002333 0.620737 0.857082 -0.524698
O56   O     O_3   0.434080 0.629720 0.443130 -0.459079
O57   O     O_2   0.430612 0.625195 0.772486 -0.563700
O58   O     O_3   0.688697 0.470166 0.591339 -0.708528
O59   O     O_2   0.005885 0.604418 0.675428 -0.576367
O60   O     O_3   0.908445 0.686160 0.613152 -0.595533
O61   O     O_3   0.351080 0.462080 0.440130 -0.462685
O62   O     O_3   0.839200 0.593040 0.416790 -0.507043
P1    P     P_3+3 0.929380 0.335110 0.452880 1.063513
P2    P     P_3+3 0.398530 0.559060 0.613740 1.075142
P3    P     P_3+3 0.948376 0.408279 0.646818 1.064311
P4    P     P_3+3 0.880940 0.664900 0.547160 1.101228
P5    P     P_3+3 0.852093 0.584847 0.351371 1.015654
P6    P     P_3+3 0.400657 0.276295 0.545851 0.945973
P7    P     P_3+3 0.404655 0.441221 0.376073 1.030568
P8    P     P_3+3 0.416890 0.722937 0.447500 1.024402

loop_
_geom_bond_atom_site_label_1
_geom_bond_atom_site_label_2
_ccdc_geom_bond_type
C57   C58   A    
C53   C54   A    
C15   C24   A    
C52   O27   S    
C64   H12   S    
C97   H58   S    
C3    H13   S    
C25   C27   A    
C93   O48   D    
C91   H48   S    
C17   C18   A    
C15   C89   A    
C49   C72   A    
C56   C85   S    
C33   N1    Am   
O45   P4    S    
C67   H6    S    
Ba2   O61   S    
Ba1   O19   S    
C75   C76   S    
C5    C9    A    
C72   H18   S    
O3    P5    S    
C24   C25   A    
C75   O12   S    
C67   C78   S    
C60   C65   D    
C47   C61   S    
C74   H20   S    
C26   C27   A    
C22   C24   A    
C88   H44   S    
Ba2   O6    S    
C46   H21   S    
C69   C74   A    
C11   C88   S    
H32   O30   S    
C51   H16   S    
C79   H30   S    
C87   O41   D    
C45   C56   S    
C53   H15   S    
C98   O57   D    
C34   C81   S    
C1    H2    S    
C13   C14   A    
C94   H51   S    
C96   O54   D    
C9    C22   A    
O62   P5    S    
C1    O31   S    
C54   C55   A    
Ba1   Ba2   S    
C78   C87   S    
Ba1   P2    S    
C34   H64   S    
Ba2   P4    S    
C83   O37   D    
C48   C66   A    
C12   O22   S    
C90   O43   D    
C23   O7    S    
O12   P2    S    
C35   H17   S    
C96   H57   S    
C82   H38   S    
C6    C7    A    
C63   C65   S    
C78   H8    S    
C48   C50   A    
C21   C22   A    
H54   O52   S    
C68   C69   A    
C6    C90   S    
C67   O9    S    
C95   H52   S    
C75   H23   S    
H53   O51   S    
C62   P2    S    
C7    C8    A    
C86   H42   S    
C36   C46   S    
Ba2   O62   S    
O6    P7    D    
C16   H22   S    
C2    C89   A    
Ba1   O20   S    
O9    P8    S    
C28   H24   S    
C59   O11   D    
C52   O26   S    
C77   O24   D    
C20   O44   S    
C90   H46   S    
C80   H35   S    
C43   O51   S    
C4    H9    S    
C4    O23   S    
Ba2   O34   S    
C49   C69   A    
C81   O35   D    
C70   O53   S    
C40   H1    S    
C84   O38   D    
C19   H10   S    
O5    P2    S    
C32   N1    Am   
H60   O58   S    
C51   C53   A    
C1    H34   S    
C71   C96   S    
O60   P4    S    
C4    C16   S    
C92   O47   D    
C16   C83   S    
O61   P7    S    
O2    P5    D    
C91   O46   D    
C49   C50   A    
C48   C51   A    
C45   C84   S    
C32   C42   A    
C64   O29   S    
C72   C73   A    
H47   O44   S    
C38   C95   S    
C3    C5    A    
C12   O18   S    
O19   P2    D    
Ba1   O1    S    
O8    P8    D    
C29   P6    S    
Ba1   O4    S    
C12   H63   S    
C52   O17   S    
O7    P7    S    
C99   O59   D    
H27   O25   S    
H25   O22   S    
C41   C42   A    
C85   O39   D    
O4    P1    S    
C35   C36   S    
C79   O28   D    
C98   H59   S    
C76   H56   S    
O34   P4    D    
C29   C30   A    
H36   O33   S    
C66   C70   A    
Ba2   O4    S    
C5    C89   A    
C39   N1    S    
C13   P4    S    
C60   C61   S    
C73   C97   S    
H55   O53   S    
C10   C11   A    
C17   C26   A    
C83   H39   S    
C99   H61   S    
C1    C12   S    
O15   P6    S    
C2    C92   S    
C18   C31   A    
Ba1   O61   S    
C38   C39   S    
O18   P6    S    
Ba1   P1    S    
C41   C68   A    
C4    C94   S    
C8    C9    A    
C11   C13   A    
O56   P8    S    
C23   C80   S    
C71   C74   A    
C95   O50   D    
C3    C6    A    
C93   H50   S    
O20   P3    S    
C86   O40   D    
C47   O58   S    
C31   P1    S    
C16   H19   S    
C37   C38   D    
C45   O3    S    
C42   C43   A    
C82   O36   D    
H31   O29   S    
C65   N2    S    
C33   O13   D    
H33   O31   S    
C77   H26   S    
C10   P8    S    
C14   C20   A    
C45   H3    S    
C30   H11   S    
C54   C59   A    
C28   O60   S    
C26   C29   A    
C34   C82   S    
C63   C98   S    
H29   O27   S    
C56   C86   S    
C58   N2    Am   
C36   P5    S    
C88   O42   D    
H28   O26   S    
C67   H5    S    
C52   C64   S    
C92   H49   S    
C87   H43   S    
C78   H7    S    
Ba1   O5    S    
Ba2   O45   S    
C94   O49   D    
C61   P3    S    
C56   H4    S    
C60   O52   S    
O17   P1    S    
C80   O32   D    
C76   H62   S    
C23   O33   S    
C8    C14   A    
C62   C63   D    
C64   C79   S    
C27   C91   S    
C2    C19   A    
C37   P7    S    
C41   C44   A    
C58   O14   D    
C28   C99   S    
Ba2   O56   S    
C15   C17   A    
C21   C93   S    
O23   P3    S    
C44   C71   A    
C85   H41   S    
C35   C39   D    
C30   C31   A    
C7    C10   A    
Ba1   O15   S    
C97   O55   D    
C57   C73   A    
C55   C57   A    
C50   C55   A    
C76   H45   S    
C23   C34   S    
O1    P1    D    
C40   O25   S    
C40   C77   S    
C18   C19   A    
C66   C68   A    
Ba2   O5    S    
C47   C62   D    
C43   C70   A    
C20   C21   A    
C28   C40   S    
C32   O10   D    
C59   N2    Am   
O21   P3    D    
C33   C44   A    
C75   O30   S    
C81   H37   S    
C84   H40   S    
O16   P6    D    
C37   C46   D    
Ba1   O45   S    
C25   H14   S    
