data_mof_unit_21468.cif
_audit_creation_date              2012-12-10T18:56:24-0500
_audit_creation_method            fapswitch 2.2
_symmetry_space_group_name_H-M    P1
_symmetry_Int_Tables_number       1
_space_group_crystal_system       triclinic
_cell_length_a                    10.716322
_cell_length_b                    9.814878
_cell_length_c                    19.350337
_cell_angle_alpha                 90.228616
_cell_angle_beta                  90.07058
_cell_angle_gamma                 89.959615
_cell_volume                      2035.23845645

loop_
_atom_site_label
_atom_site_type_symbol
_atom_type_description
_atom_site_fract_x
_atom_site_fract_y
_atom_site_fract_z
_atom_type_partial_charge
C1    C     C_R   0.872597 0.499971 0.500015 -0.007167
C2    C     C_R   0.127403 0.500029 0.499984 -0.007167
C3    C     C_R   0.612975 0.511281 0.964324 -0.195401
C4    C     C_R   0.387025 0.488719 0.035676 -0.195401
C5    C     C_R   0.612912 0.512321 0.035879 -0.194206
C6    C     C_R   0.387087 0.487678 0.964121 -0.194207
C7    C     C_R   0.499939 0.501018 0.071635 0.146285
C8    C     C_R   0.500060 0.498982 0.928365 0.146285
C9    C     C_R   0.259798 0.500025 0.499979 0.866476
C10   C     C_R   0.740202 0.499975 0.500021 0.866476
C11   C     C_R   0.500106 0.499801 0.365772 0.909844
C12   C     C_R   0.499894 0.500199 0.634228 0.909845
C13   C     C_R   0.064032 0.378464 0.512975 -0.199029
C14   C     C_R   0.935968 0.621536 0.487025 -0.199029
C15   C     C_R   0.936214 0.378440 0.512996 -0.203591
C16   C     C_R   0.063786 0.621560 0.487004 -0.203591
C17   C     C_R   0.434033 0.397712 0.745462 0.167594
C18   C     C_R   0.565967 0.602288 0.254538 0.167594
C19   C     C_R   0.434952 0.397624 0.253747 0.169383
C20   C     C_R   0.565048 0.602376 0.746252 0.169384
C21   C     C_R   0.433432 0.399438 0.817315 -0.246392
C22   C     C_R   0.566568 0.600562 0.182685 -0.246393
C23   C     C_R   0.433745 0.400749 0.181932 -0.245174
C24   C     C_R   0.566255 0.599251 0.818068 -0.245174
C25   C     C_R   0.500042 0.499034 0.853373 0.046581
C26   C     C_R   0.499957 0.500966 0.146627 0.046581
C27   C     C_R   0.595505 0.072156 0.529947 -0.094247
C28   C     C_R   0.404495 0.927844 0.470053 -0.094247
C29   C     C_R   0.404337 0.071863 0.470235 -0.077274
C30   C     C_R   0.595663 0.928137 0.529765 -0.077274
C31   C     C_R   0.499528 0.500310 0.709468 -0.130448
C32   C     C_R   0.500472 0.499690 0.290531 -0.130448
H1    H     H_    0.671623 0.126875 0.554083 0.120223
H2    H     H_    0.328376 0.873125 0.445916 0.120223
H3    H     H_    0.327859 0.126405 0.446510 0.136087
H4    H     H_    0.672141 0.873595 0.553490 0.136087
H5    H     H_    0.112821 0.284029 0.523505 0.154183
H6    H     H_    0.887179 0.715971 0.476495 0.154183
H7    H     H_    0.887626 0.284002 0.523543 0.148103
H8    H     H_    0.112374 0.715997 0.476457 0.148103
H9    H     H_    0.382555 0.321442 0.845017 0.142097
H10   H     H_    0.617444 0.678558 0.154983 0.142097
H11   H     H_    0.382799 0.323114 0.153622 0.142430
H12   H     H_    0.617200 0.676885 0.846378 0.142430
H13   H     H_    0.700902 0.518580 0.937017 0.131239
H14   H     H_    0.299097 0.481420 0.062983 0.131239
H15   H     H_    0.700800 0.520165 0.063337 0.131422
H16   H     H_    0.299199 0.479834 0.936663 0.131422
N1    N     N_R   0.500000 0.857200 0.500000 -0.071097
N2    N     N_R   0.500000 0.142800 0.500000 -0.071097
O1    O     O_R   0.316770 0.614620 0.500000 -0.638252
O2    O     O_R   0.683230 0.385380 0.500000 -0.638252
O3    O     O_R   0.683230 0.614620 0.500000 -0.625164
O4    O     O_R   0.316770 0.385380 0.500000 -0.625164
O5    O     O_R   0.500030 0.614710 0.398180 -0.598096
O6    O     O_R   0.499970 0.385290 0.601820 -0.598097
O7    O     O_R   0.499970 0.614710 0.601820 -0.595506
O8    O     O_R   0.500030 0.385290 0.398180 -0.595506
Zn1   Zn    Zn3+2 0.500000 0.653120 0.500000 0.955357
Zn2   Zn    Zn3+2 0.500000 0.346880 0.500000 0.955357
N3    N     N_2   0.364222 0.296143 0.709728 -0.289607
H17   H     H_    0.273569 0.288432 0.727153 0.213707
C33   C     C_3   0.424828 0.164429 0.706464 -0.742760
H18   H     H_    0.430540 0.118738 0.758835 0.217723
H19   H     H_    0.520384 0.173912 0.684789 0.254085
H20   H     H_    0.370217 0.095328 0.672401 0.234180
N4    N     N_2   0.635778 0.703857 0.290272 -0.289607
H21   H     H_    0.726431 0.711568 0.272847 0.213707
C34   C     C_3   0.575172 0.835571 0.293536 -0.742760
H22   H     H_    0.569459 0.881261 0.241165 0.217723
H23   H     H_    0.629783 0.904672 0.327599 0.234180
H24   H     H_    0.479616 0.826087 0.315211 0.254085
N5    N     N_2   0.365876 0.294917 0.288531 -0.292852
H25   H     H_    0.274721 0.288601 0.271617 0.214231
C35   C     C_3   0.425956 0.162791 0.288722 -0.761683
H26   H     H_    0.435667 0.123077 0.235126 0.222748
H27   H     H_    0.368563 0.089819 0.318644 0.221012
H28   H     H_    0.519644 0.169562 0.313146 0.262958
N6    N     N_2   0.634124 0.705082 0.711469 -0.292852
H29   H     H_    0.725278 0.711399 0.728383 0.214231
C36   C     C_3   0.574044 0.837209 0.711278 -0.761685
H30   H     H_    0.564332 0.876923 0.764874 0.222749
H31   H     H_    0.480356 0.830438 0.686854 0.262958
H32   H     H_    0.631437 0.910181 0.681355 0.221012

loop_
_geom_bond_atom_site_label_1
_geom_bond_atom_site_label_2
_ccdc_geom_bond_type
C33   H19   S    
O4    Zn2   S    
O5    Zn1   S    
N5    H25   S    
C9    O1    A    
C10   O2    A    
C36   H30   S    
O3    Zn1   S    
C4    H14   S    
C27   H1    S    
C5    H15   S    
C7    C26   S    
C6    H16   S    
C2    C13   A    
C28   C29   A    
O7    Zn1   S    
O8    Zn2   S    
C23   H11   S    
N3    C33   S    
C23   C26   A    
C34   H23   S    
C10   O3    A    
O2    Zn2   S    
C17   N3    S    
C20   C24   A    
C1    C15   A    
C11   O8    A    
C2    C16   A    
C13   H5    S    
C27   N2    A    
C33   H20   S    
C28   H2    S    
C27   C30   A    
C8    C25   S    
N5    C35   S    
N3    H17   S    
C4    C7    A    
C19   C32   A    
C36   H31   S    
C29   N2    A    
N4    H21   S    
C19   N5    S    
C24   C25   A    
C4    C6    A    
C3    C8    A    
C5    C7    A    
C6    C8    A    
C18   N4    S    
C3    H13   S    
C17   C21   A    
O6    Zn2   S    
N4    C34   S    
C34   H24   S    
C19   C23   A    
C35   H26   S    
C14   H6    S    
C28   N1    A    
C35   H27   S    
C15   H7    S    
C12   O6    A    
C16   H8    S    
C21   H9    S    
C12   O7    A    
C30   N1    A    
C11   C32   S    
C13   C15   A    
C12   C31   S    
C17   C31   A    
C14   C16   A    
N6    H29   S    
O1    Zn1   S    
C36   H32   S    
C11   O5    A    
N6    C36   S    
C21   C25   A    
C20   N6    S    
C18   C22   A    
C1    C10   S    
C3    C5    A    
C9    O4    A    
C29   H3    S    
N1    Zn1   S    
C30   H4    S    
N2    Zn2   S    
C22   H10   S    
C24   H12   S    
C34   H22   S    
C35   H28   S    
C33   H18   S    
C18   C32   A    
C22   C26   A    
C1    C14   A    
C2    C9    S    
C20   C31   A    
