data_mof_unit_24142.cif
_audit_creation_date              2012-10-26T18:28:23-0400
_audit_creation_method            fapswitch 2.2
_symmetry_space_group_name_H-M    P1
_symmetry_Int_Tables_number       1
_space_group_crystal_system       triclinic
_cell_length_a                    27.766026
_cell_length_b                    11.02949
_cell_length_c                    9.813929
_cell_angle_alpha                 111.117858
_cell_angle_beta                  97.870151
_cell_angle_gamma                 91.083644
_cell_volume                      2769.63233335

loop_
_atom_site_label
_atom_site_type_symbol
_atom_type_description
_atom_site_fract_x
_atom_site_fract_y
_atom_site_fract_z
_atom_type_partial_charge
C1    C     C_R   0.496484 0.254088 0.440633 0.564556
C2    C     C_R   0.872153 0.400059 0.494983 0.030673
C3    C     C_R   0.354663 0.500974 0.506308 0.002833
C4    C     C_R   0.645422 0.500552 0.495388 0.004528
C5    C     C_R   0.974979 0.409917 0.533793 0.020140
C6    C     C_R   0.027127 0.621052 0.511857 0.045958
C7    C     C_R   0.977137 0.631087 0.529118 0.036138
C8    C     C_R   0.026735 0.418920 0.563553 0.006407
C9    C     C_R   0.950432 0.519553 0.526053 -0.001900
C10   C     C_R   0.052293 0.518235 0.536935 -0.001506
C11   C     C_R   0.947010 0.292595 0.502522 -0.148855
C12   C     C_R   0.503519 0.745912 0.559367 0.564620
C13   C     C_R   0.052139 0.705931 0.462492 -0.108187
C14   C     C_R   0.896489 0.288025 0.485119 -0.110330
C15   C     C_R   0.101566 0.699168 0.454188 -0.112683
C16   C     C_R   0.407476 0.500120 0.501736 0.554476
C17   C     C_R   0.592526 0.499999 0.498397 0.554517
C18   C     C_R   0.054096 0.333707 0.618771 0.088701
C19   C     C_R   0.953036 0.747645 0.550507 0.083740
C20   C     C_2   0.494571 0.114728 0.407130 -0.120801
C21   C     C_2   0.505439 0.885272 0.592870 -0.120618
C22   C     C_2   0.500910 0.069573 0.516606 -0.153879
C23   C     C_R   0.103105 0.514256 0.533417 -0.065932
C24   C     C_2   0.499115 0.930428 0.483392 -0.153886
C25   C     C_2   0.504211 0.510525 0.081172 -0.023739
C26   C     C_2   0.495790 0.489475 0.918830 -0.024351
C27   C     C_R   0.179760 0.416492 0.560689 0.417669
C28   C     C_R   0.822803 0.620838 0.508632 0.420755
C29   C     C_R   0.177729 0.600564 0.487290 0.400329
C30   C     C_R   0.821361 0.397664 0.484657 0.397275
C31   C     C_R   0.271314 0.476032 0.380800 -0.052675
C32   C     C_R   0.727878 0.508277 0.619835 -0.055842
C33   C     C_R   0.321277 0.474666 0.376014 -0.138400
C34   C     C_R   0.898958 0.516490 0.513890 -0.066443
C35   C     C_R   0.677800 0.506609 0.621422 -0.136693
C36   C     C_R   0.337121 0.528466 0.641278 -0.142824
C37   C     C_R   0.664144 0.496127 0.367693 -0.141014
C38   C     C_R   0.287170 0.530221 0.645836 -0.055684
C39   C     C_R   0.714392 0.498438 0.366679 -0.053616
C40   C     C_R   0.254058 0.504076 0.515725 0.235742
C41   C     C_R   0.746323 0.504461 0.492786 0.240704
C42   C     C_R   0.129307 0.418753 0.569725 0.032745
C43   C     C_R   0.874290 0.628790 0.519988 0.037313
C44   C     C_R   0.104767 0.331886 0.618149 0.143581
C45   C     C_R   0.901755 0.745737 0.542615 0.111221
C46   C     C_R   0.127624 0.605724 0.492145 0.029521
Cu1   Cu    Cu3+1 0.508480 0.521810 0.644910 0.946202
Cu2   Cu    Cu3+1 0.491520 0.478190 0.355090 0.947461
H1    H     H_    0.361944 0.549237 0.743488 0.132848
H2    H     H_    0.728542 0.495435 0.268126 0.129148
H3    H     H_    0.664495 0.509888 0.721300 0.136210
H4    H     H_    0.333702 0.452883 0.270401 0.137407
H5    H     H_    0.752481 0.513080 0.717611 0.128776
H6    H     H_    0.245942 0.455269 0.279656 0.138759
H7    H     H_    0.876590 0.196005 0.463944 0.164688
H8    H     H_    0.119197 0.767155 0.416538 0.166886
H9    H     H_    0.963631 0.201848 0.485423 0.114499
H10   H     H_    0.033566 0.774230 0.422138 0.150197
H11   H     H_    0.492546 0.864565 0.368297 0.157564
H12   H     H_    0.640058 0.491749 0.269153 0.128586
H13   H     H_    0.507486 0.135435 0.631701 0.157687
H14   H     H_    0.116620 0.148513 0.609324 0.243404
H15   H     H_    0.127233 0.264730 0.781959 0.259179
H16   H     H_    0.885282 0.897155 0.477065 0.229563
H17   H     H_    0.890873 0.933920 0.662948 0.232257
H18   H     H_    0.024506 0.166026 0.627471 0.225994
H19   H     H_    0.003413 0.306539 0.743225 0.249357
H20   H     H_    0.969810 0.917069 0.522836 0.213310
H21   H     H_    0.974769 0.928858 0.702005 0.241126
H22   H     H_    0.512023 0.951421 0.707766 0.107176
H23   H     H_    0.487980 0.048578 0.292233 0.106848
H24   H     H_    0.467426 0.417192 0.846123 0.147892
H25   H     H_    0.532576 0.582805 0.153880 0.146187
H26   H     H_    0.547938 0.622539 0.934171 0.205095
H27   H     H_    0.452061 0.377462 0.065829 0.205393
H28   H     H_    0.274131 0.552492 0.750644 0.136501
N1    N     N_R   0.202636 0.506888 0.520960 -0.406799
N2    N     N_R   0.797958 0.507183 0.492998 -0.409853
N3    N     N_2   0.478780 0.445430 0.137360 -0.351958
N4    N     N_2   0.521220 0.554570 0.862640 -0.352879
N5    N     N_3   0.131409 0.243501 0.671637 -0.533259
N6    N     N_3   0.877751 0.863360 0.559215 -0.545546
N7    N     N_3   0.033475 0.262976 0.697487 -0.651404
N8    N     N_3   0.980977 0.870459 0.596318 -0.654292
O1    O     O_R   0.504520 0.332330 0.577400 -0.496788
O2    O     O_2   0.797525 0.725383 0.514528 -0.439362
O3    O     O_2   0.795425 0.286867 0.467084 -0.485468
O4    O     O_2   0.201558 0.689253 0.450368 -0.489417
O5    O     O_R   0.495480 0.667670 0.422600 -0.496711
O6    O     O_R   0.490210 0.295500 0.332650 -0.486913
O7    O     O_R   0.509790 0.704500 0.667350 -0.486800
O8    O     O_R   0.437420 0.518430 0.622370 -0.500513
O9    O     O_R   0.562580 0.481570 0.377630 -0.499502
O10   O     O_R   0.423110 0.481600 0.377610 -0.492788
O11   O     O_R   0.576890 0.518400 0.622390 -0.493581
O12   O     O_2   0.205859 0.324069 0.589111 -0.446649

loop_
_geom_bond_atom_site_label_1
_geom_bond_atom_site_label_2
_ccdc_geom_bond_type
H19   N7    S    
C1    O6    A    
C26   H24   S    
Cu1   O8    S    
C12   O7    A    
C45   N6    S    
C39   C41   A    
C38   H28   S    
C33   H4    S    
C23   C42   A    
Cu2   O10   S    
H15   N5    S    
Cu1   O1    S    
Cu2   N3    S    
C5    C11   A    
C11   C14   A    
C3    C33   A    
C31   C40   A    
C29   O4    S    
H18   N7    S    
C32   C41   A    
C31   C33   A    
C20   H23   S    
C17   O11   A    
C28   N2    A    
C2    C34   A    
C14   H7    S    
C4    C35   A    
C23   C46   A    
Cu2   O6    S    
C27   O12   S    
C42   C44   A    
Cu1   N4    S    
C1    O1    A    
Cu2   O9    S    
H20   N8    S    
C32   C35   A    
C12   O5    A    
C44   N5    S    
C41   N2    S    
C13   H10   S    
C25   C26   S    
C12   C21   S    
C8    C18   A    
C5    C9    A    
C18   C44   A    
Cu1   Cu2   S    
C18   N7    S    
C43   C45   A    
H16   N6    S    
C4    C17   S    
H14   N5    S    
C20   C22   D    
C16   O8    A    
C28   O2    S    
C7    C19   A    
Cu2   O5    S    
C13   C15   A    
C35   H3    S    
C9    C34   A    
C22   C24   S    
C17   O9    A    
C19   N8    S    
C32   H5    S    
C7    C9    A    
C1    C20   S    
C25   N3    D    
Cu1   O7    S    
C34   C43   A    
C27   N1    A    
C6    C10   A    
C5    C8    A    
C19   C45   A    
C6    C7    A    
C10   C23   A    
C21   H22   S    
C28   C43   A    
C16   O10   A    
C29   C46   A    
C2    C30   A    
C15   H8    S    
C36   C38   A    
C37   C39   A    
H21   N8    S    
C22   H13   S    
C38   C40   A    
C27   C42   A    
H17   N6    S    
C3    C36   A    
C24   H11   S    
C25   H25   S    
C31   H6    S    
C2    C14   A    
C26   N4    D    
C37   H12   S    
C3    C16   S    
C30   N2    A    
C39   H2    S    
C29   N1    A    
C4    C37   A    
C8    C10   A    
C21   C24   D    
Cu1   O11   S    
C40   N1    S    
H26   N4    S    
C15   C46   A    
C30   O3    S    
C11   H9    S    
H27   N3    S    
C36   H1    S    
C6    C13   A    
