data_mof_unit_63616.cif
_audit_creation_date              2012-12-11T15:51:27-0500
_audit_creation_method            fapswitch 2.2
_symmetry_space_group_name_H-M    P1
_symmetry_Int_Tables_number       1
_space_group_crystal_system       triclinic
_cell_length_a                    6.945897
_cell_length_b                    17.380645
_cell_length_c                    18.745557
_cell_angle_alpha                 106.212364
_cell_angle_beta                  89.63235
_cell_angle_gamma                 90.438718
_cell_volume                      2172.9631862

loop_
_atom_site_label
_atom_site_type_symbol
_atom_type_description
_atom_site_fract_x
_atom_site_fract_y
_atom_site_fract_z
_atom_type_partial_charge
O1    O     O_R   0.494360 0.415660 0.413760 -0.506131
O2    O     O_R   0.818840 0.432910 0.557230 -0.528365
O3    O     O_R   0.994290 0.584340 0.586240 -0.530243
C1    C     C_R   0.649753 0.415700 0.580418 0.724336
O4    O     O_R   0.823740 0.406430 0.412520 -0.499196
O5    O     O_R   0.999220 0.557660 0.440500 -0.531701
C2    C     C_R   0.654734 0.383284 0.384419 0.778401
O6    O     O_R   0.489430 0.442340 0.559500 -0.531341
O7    O     O_3   0.662490 0.549650 0.509350 -0.356156
V1    V     V_3+5 0.935340 0.490790 0.498270 1.585299
O8    O     O_R   0.329240 0.567090 0.442770 -0.525881
C3    C     C_R   0.161134 0.584069 0.419382 0.736537
O9    O     O_R   0.324340 0.593570 0.587480 -0.499340
C4    C     C_R   0.154776 0.615596 0.616438 0.761575
V2    V     V_3+5 0.435970 0.509210 0.501730 1.594546
O10   O     O_3   0.158950 0.450350 0.490650 -0.347044
C5    C     C_R   0.291636 0.741078 0.704252 0.626170
C6    C     C_R   0.281718 0.805291 0.768883 -0.215900
H1    H     H_    0.398649 0.848523 0.780960 0.154153
C7    C     C_R   0.121365 0.814922 0.816456 -0.177100
C8    C     C_R   0.972575 0.758048 0.798906 -0.158178
H2    H     H_    0.849572 0.763549 0.835773 0.159435
C9    C     C_R   0.982541 0.692205 0.735607 0.137455
C10   C     C_R   0.142329 0.683322 0.686105 -0.221047
C11   C     C_1   0.111549 0.863881 0.132620 -0.202920
C12   C     C_1   0.119027 0.821312 0.176180 0.010630
C13   C     C_1   0.128428 0.771103 0.228072 0.009832
C14   C     C_1   0.136465 0.728827 0.271875 0.011224
C15   C     C_1   0.145864 0.678621 0.323770 0.015104
C16   C     C_1   0.153337 0.636057 0.367334 -0.191766
C17   C     C_1   0.641106 0.363880 0.632540 -0.178119
C18   C     C_1   0.636953 0.321377 0.676178 0.018183
C19   C     C_1   0.633643 0.271195 0.728112 0.012471
C20   C     C_1   0.631188 0.228896 0.771942 0.010961
C21   C     C_1   0.627868 0.178663 0.823834 0.010477
C22   C     C_1   0.623699 0.136072 0.867402 -0.203196
C23   C     C_R   0.803074 0.264439 0.290553 0.602009
C24   C     C_R   0.791906 0.200891 0.225500 -0.232859
H3    H     H_    0.917201 0.163441 0.208202 0.164546
C25   C     C_R   0.621084 0.184876 0.184008 -0.233808
C26   C     C_R   0.461478 0.234410 0.208890 -0.220487
H4    H     H_    0.328075 0.224034 0.177954 0.170507
C27   C     C_R   0.472315 0.298842 0.273271 0.609756
C28   C     C_R   0.643374 0.314761 0.315490 -0.327885
O11   O     O_R   0.775430 0.057750 0.940570 -0.521882
O12   O     O_R   0.440960 0.093590 0.087490 -0.540981
O13   O     O_R   0.265640 0.942320 0.059480 -0.522227
C29   C     C_R   0.609896 0.116637 0.115450 0.760681
O14   O     O_R   0.446010 0.067110 0.942790 -0.527054
O15   O     O_R   0.270710 0.915650 0.913740 -0.536897
C30   C     C_R   0.615047 0.084121 0.919417 0.719087
O16   O     O_R   0.770350 0.084410 0.086310 -0.538887
O17   O     O_3   0.602410 0.950400 0.990690 -0.361393
V3    V     V_3+5 0.329510 0.009200 0.001730 1.424717
O18   O     O_R   0.940670 0.906340 0.912450 -0.539241
C31   C     C_R   0.110046 0.883518 0.884552 0.737756
O19   O     O_R   0.935630 0.932820 0.057160 -0.526127
C32   C     C_R   0.103737 0.915879 0.080579 0.718612
V4    V     V_3+5 0.828890 0.990680 0.998180 1.425771
O20   O     O_3   0.105860 0.049600 0.009310 -0.362675
F1    F     F_    0.446525 0.736753 0.658792 -0.666845
I1    I     I_    0.753847 0.607690 0.725559 -0.366145
F2    F     F_    0.969824 0.275324 0.329526 -0.628734
F3    F     F_    0.315579 0.346348 0.293054 -0.632479

loop_
_geom_bond_atom_site_label_1
_geom_bond_atom_site_label_2
_ccdc_geom_bond_type
O5    V1    S    
O2    C1    A    
O8    C3    A    
C23   C24   A    
O1    V2    S    
O16   V4    S    
O18   V4    S    
C26   H4    S    
C21   C22   T    
C7    C31   S    
C1    O6    A    
C22   C30   S    
C18   C19   S    
O12   V3    S    
C23   C28   A    
O9    V2    S    
C19   C20   T    
O17   V4    S    
V4    O20   S    
O15   V3    S    
O3    V1    S    
V3    O20   S    
O17   V3    S    
O13   C32   A    
C24   C25   A    
C26   C27   A    
C14   C15   S    
O19   C32   A    
C15   C16   T    
O3    C4    A    
O8    V2    S    
O13   V3    S    
O1    C2    A    
O5    C3    A    
C8    H2    S    
C25   C26   A    
C23   F2    S    
C27   F3    S    
C5    C6    A    
O6    V2    S    
C6    C7    A    
C8    C9    A    
C27   C28   A    
O7    V2    S    
C24   H3    S    
C17   C18   T    
O12   C29   A    
O18   C31   A    
O19   V4    S    
C5    C10   A    
C11   C32   S    
O11   C30   A    
C9    C10   A    
O14   V3    S    
C1    C17   S    
O4    V1    S    
C29   O16   A    
C7    C8    A    
C25   C29   S    
C20   C21   S    
O7    V1    S    
C4    C10   S    
C13   C14   T    
O4    C2    A    
C6    H1    S    
O11   V4    S    
C12   C13   S    
V1    O10   S    
O9    C4    A    
C5    F1    S    
C11   C12   T    
C2    C28   S    
C3    C16   S    
C9    I1    S    
O15   C31   A    
V2    O10   S    
O14   C30   A    
O2    V1    S    
