data_mof_unit_53511.cif
_audit_creation_date              2012-12-10T17:22:38-0500
_audit_creation_method            fapswitch 2.2
_symmetry_space_group_name_H-M    P1
_symmetry_Int_Tables_number       1
_space_group_crystal_system       triclinic
_cell_length_a                    10.615954
_cell_length_b                    10.876254
_cell_length_c                    9.620368
_cell_angle_alpha                 90.762107
_cell_angle_beta                  89.485918
_cell_angle_gamma                 95.26034
_cell_volume                      1105.97556389

loop_
_atom_site_label
_atom_site_type_symbol
_atom_type_description
_atom_site_fract_x
_atom_site_fract_y
_atom_site_fract_z
_atom_type_partial_charge
C1    C     C_R   0.486855 0.262034 0.498763 0.841766
C2    C     C_3   0.959929 0.495214 0.367639 -0.096295
C3    C     C_3   0.032353 0.397023 0.438827 -0.218790
C4    C     C_3   0.122333 0.501030 0.501249 0.022803
C5    C     C_R   0.361523 0.108852 0.727427 0.311598
C6    C     C_R   0.366931 0.059238 0.860678 -0.185580
C7    C     C_R   0.432863 0.956714 0.881690 -0.190567
C8    C     C_R   0.482126 0.895652 0.768126 -0.170121
C9    C     C_R   0.472801 0.940982 0.631368 0.046152
C10   C     C_R   0.434286 0.060695 0.618165 0.016310
C11   C     C_R   0.466861 0.126339 0.495241 -0.216719
C12   C     C_R   0.259410 0.499903 0.500501 0.789406
C13   C     C_R   0.493553 0.060881 0.372733 0.467109
C14   C     C_R   0.497971 0.933754 0.378765 -0.310828
C15   C     C_R   0.495836 0.873229 0.506763 -0.190285
C16   C     C_R   0.708124 0.639498 0.133999 0.421836
C17   C     C_R   0.819400 0.663712 0.051322 0.410788
C18   C     C_R   0.803562 0.678806 0.909976 -0.375116
C19   C     C_R   0.688965 0.641864 0.850543 -0.251842
C20   C     C_R   0.595352 0.568645 0.923512 0.150119
C21   C     C_R   0.599370 0.568036 0.072915 0.036256
C22   C     C_R   0.406918 0.437242 0.073999 -0.042808
C23   C     C_R   0.501009 0.738369 0.502038 0.840663
C24   C     C_R   0.406879 0.437938 0.926609 -0.059576
C25   C     C_R   0.740506 0.500774 0.499490 0.803623
C26   C     C_3   0.039631 0.507449 0.632231 -0.121694
C27   C     C_3   0.947526 0.403259 0.569791 -0.179181
C28   C     C_3   0.877459 0.501531 0.498515 0.030602
C29   C     C_3   0.967206 0.605831 0.560618 -0.177986
C30   C     C_3   0.052156 0.599455 0.429792 -0.141663
Cu1   Cu    Cu3+1 0.499990 0.499990 0.640660 0.942940
Cu2   Cu    Cu3+1 0.500010 0.500010 0.359340 0.989440
H1    H     H_    0.900999 0.323252 0.626953 0.127298
H2    H     H_    0.439586 0.920091 0.985221 0.161926
H3    H     H_    0.530639 0.816755 0.792440 0.171415
H4    H     H_    0.507425 0.883203 0.282074 0.189842
H5    H     H_    0.330396 0.385535 0.128748 0.131605
H6    H     H_    0.878390 0.723748 0.846701 0.173883
H7    H     H_    0.678723 0.670358 0.746124 0.219345
H8    H     H_    0.329131 0.389559 0.872314 0.124601
H9    H     H_    0.074799 0.512300 0.740659 0.126687
H10   H     H_    0.937346 0.691997 0.608341 0.112703
H11   H     H_    0.098076 0.680089 0.373266 0.145613
H12   H     H_    0.923289 0.487291 0.260088 0.160643
H13   H     H_    0.061782 0.312356 0.387009 0.130253
H14   H     H_    0.316915 0.097620 0.947231 0.142556
N1    N     N_R   0.501210 0.501210 0.147910 -0.171681
N2    N     N_R   0.501250 0.501290 0.852040 -0.173942
O1    O     O_R   0.499990 0.319640 0.618810 -0.566972
O2    O     O_R   0.500000 0.319660 0.381240 -0.535840
O3    O     O_R   0.316850 0.499960 0.618770 -0.580950
O4    O     O_R   0.316860 0.499980 0.381190 -0.599983
O5    O     O_R   0.500000 0.680340 0.618760 -0.623791
O6    O     O_R   0.500010 0.680360 0.381190 -0.521376
O7    O     O_R   0.683140 0.500020 0.618810 -0.599687
O8    O     O_R   0.683150 0.500040 0.381230 -0.538762
O9    O     O_3   0.701438 0.691340 0.266179 -0.540204
C31   C     C_3   0.773037 0.806740 0.284828 -0.289162
H15   H     H_    0.773245 0.865986 0.191437 0.146282
H16   H     H_    0.870265 0.793343 0.319025 0.209875
H17   H     H_    0.731487 0.857341 0.371628 0.146898
O10   O     O_3   0.936114 0.694339 0.113429 -0.593166
C32   C     C_3   0.034173 0.640631 0.040831 -0.358000
H18   H     H_    0.067224 0.697896 0.950637 0.177973
H19   H     H_    0.005790 0.543723 0.007044 0.149025
H20   H     H_    0.115852 0.638055 0.111456 0.190281
O11   O     O_3   0.500782 0.119325 0.245273 -0.563213
C33   C     C_3   0.622171 0.113011 0.186150 -0.307899
H21   H     H_    0.630874 0.020662 0.138513 0.145581
H22   H     H_    0.699009 0.136440 0.262881 0.141271
H23   H     H_    0.634925 0.181581 0.101652 0.195408
N3    N     N_2   0.268048 0.191409 0.699669 -0.420561
H24   H     H_    0.225599 0.223546 0.787991 0.228265
C34   C     C_3   0.173256 0.144072 0.600445 -0.739393
H25   H     H_    0.094297 0.203700 0.601477 0.223541
H26   H     H_    0.133953 0.049314 0.628707 0.226082
H27   H     H_    0.213672 0.143256 0.493768 0.233371

loop_
_geom_bond_atom_site_label_1
_geom_bond_atom_site_label_2
_ccdc_geom_bond_type
C32   H19   S    
C16   C21   A    
C29   H10   S    
C19   C20   A    
C1    C11   S    
C25   O8    A    
C7    C8    A    
C27   H1    S    
C25   C28   S    
C26   C27   S    
O10   C32   S    
C34   H26   S    
C28   C29   S    
C5    N3    S    
C14   H4    S    
C5    C6    A    
C31   H16   S    
C18   C19   A    
Cu2   O4    S    
C24   H8    S    
C2    H12   S    
C8    C9    A    
C34   H27   S    
C4    C12   S    
C1    O2    A    
C31   H17   S    
C15   C23   S    
C22   N1    A    
C32   H20   S    
C13   C14   A    
Cu1   O1    S    
Cu2   O6    S    
C12   O4    A    
C23   O5    A    
C34   H25   S    
O11   C33   S    
C24   N2    A    
N3    C34   S    
C33   H21   S    
C31   H15   S    
C22   H5    S    
C3    H13   S    
C8    H3    S    
C29   C30   S    
C17   O10   S    
Cu1   Cu2   S    
C17   C18   A    
Cu1   O5    S    
Cu2   O2    S    
C20   N2    A    
C19   H7    S    
Cu1   N2    S    
Cu2   N1    S    
C22   C24   A    
C30   H11   S    
C3    C4    S    
C12   O3    A    
C23   O6    A    
C9    C10   A    
C6    H14   S    
C13   O11   S    
C25   O7    A    
Cu1   O3    S    
N3    H24   S    
C4    C26   S    
C6    C7    A    
C2    C30   S    
C3    C27   S    
C2    C3    S    
C18   H6    S    
C5    C10   A    
C11   C13   A    
O9    C31   S    
C16   C17   A    
C33   H23   S    
C7    H2    S    
C16   O9    S    
C9    C15   A    
C10   C11   A    
C32   H18   S    
C20   C21   A    
C26   C29   S    
C33   H22   S    
C27   C28   S    
C14   C15   A    
C2    C28   S    
Cu1   O7    S    
C1    O1    A    
Cu2   O8    S    
C4    C30   S    
C26   H9    S    
C21   N1    A    
