data_mof_unit_51473.cif
_audit_creation_date              2012-10-26T21:19:21-0400
_audit_creation_method            fapswitch 2.2
_symmetry_space_group_name_H-M    P1
_symmetry_Int_Tables_number       1
_space_group_crystal_system       triclinic
_cell_length_a                    15.853438
_cell_length_b                    15.847692
_cell_length_c                    17.064969
_cell_angle_alpha                 91.270828
_cell_angle_beta                  96.568738
_cell_angle_gamma                 92.977087
_cell_volume                      4251.80697952

loop_
_atom_site_label
_atom_site_type_symbol
_atom_type_description
_atom_site_fract_x
_atom_site_fract_y
_atom_site_fract_z
_atom_type_partial_charge
C1    C     C_R   0.510489 0.499767 0.651535 0.551791
C2    C     C_R   0.403884 0.513089 0.133956 0.226219
C3    C     C_R   0.594992 0.503458 0.784010 -0.149652
C4    C     C_R   0.407042 0.502537 0.215188 -0.156993
C5    C     C_R   0.248984 0.525527 0.549423 -0.039625
C6    C     C_R   0.750412 0.474366 0.450155 -0.038938
C7    C     C_R   0.159681 0.523670 0.545979 -0.155909
C8    C     C_R   0.839670 0.474954 0.453368 -0.156154
C9    C     C_R   0.108130 0.488113 0.479173 0.181797
C10   C     C_R   0.891695 0.508471 0.520716 0.179571
C11   C     C_R   0.149105 0.454760 0.417397 -0.014388
C12   C     C_R   0.489612 0.500627 0.348516 0.552644
C13   C     C_R   0.851324 0.541475 0.582991 -0.002169
C14   C     C_R   0.239165 0.450954 0.426571 0.405600
C15   C     C_R   0.761763 0.547978 0.573668 0.415560
C16   C     C_R   0.500312 0.660205 0.501098 0.534298
C17   C     C_R   0.499735 0.339708 0.499132 0.533267
C18   C     C_3   0.553748 0.034875 0.563019 0.296958
C19   C     C_3   0.450893 0.965492 0.441163 0.248665
C20   C     C_3   0.475702 0.974033 0.571974 -0.073474
C21   C     C_3   0.529388 0.025660 0.433164 -0.058955
C22   C     C_1   0.501405 0.749766 0.503926 -0.043188
C23   C     C_R   0.441414 0.486146 0.774278 -0.158235
C24   C     C_1   0.499185 0.250004 0.497798 -0.037930
C25   C     C_3   0.581702 0.976976 0.497805 0.299463
C26   C     C_3   0.422009 0.021847 0.506722 0.243793
C27   C     C_3   0.503882 0.917026 0.505928 0.003789
C28   C     C_3   0.500610 0.082767 0.498672 0.003333
C29   C     C_1   0.502903 0.825298 0.505810 -0.019152
C30   C     C_1   0.499353 0.174460 0.497451 -0.014052
C31   C     C_R   0.515894 0.496981 0.737781 -0.093763
C32   C     C_R   0.485254 0.506139 0.262546 -0.090142
C33   C     C_3   0.450046 0.933562 0.646799 -0.428302
C34   C     C_R   0.560619 0.519171 0.227895 -0.171224
C35   C     C_3   0.555556 0.062946 0.357376 -0.420242
C36   C     C_3   0.096217 0.426019 0.341225 -0.397382
C37   C     C_3   0.904422 0.566961 0.659871 -0.386627
C38   C     C_3   0.272301 0.324764 0.374051 0.013571
C39   C     C_3   0.328654 0.286068 0.317461 -0.247865
C40   C     C_3   0.324195 0.189925 0.320078 -0.498715
C41   C     C_3   0.715359 0.675481 0.613171 0.029716
C42   C     C_3   0.780852 0.733341 0.664430 -0.322733
C43   C     C_3   0.759810 0.825914 0.657016 -0.456252
C44   C     C_3   0.590870 0.092569 0.691908 0.014269
C45   C     C_R   0.445358 0.480310 0.855867 0.245747
C46   C     C_3   0.524771 0.160143 0.691332 -0.275198
C47   C     C_3   0.504958 0.181619 0.774618 -0.490913
C48   C     C_3   0.354934 0.968934 0.327809 0.007843
C49   C     C_3   0.292712 0.913414 0.271206 -0.264528
C50   C     C_3   0.240831 0.966414 0.211813 -0.497782
C51   C     C_3   0.283581 0.010165 0.544222 0.004517
C52   C     C_3   0.254396 0.924044 0.504343 -0.260810
C53   C     C_3   0.189037 0.877559 0.549109 -0.494358
C54   C     C_3   0.696681 0.931231 0.434360 0.001223
C55   C     C_3   0.654215 0.850471 0.392725 -0.280474
C56   C     C_R   0.559295 0.524242 0.146011 0.248756
C57   C     C_3   0.697401 0.826481 0.320609 -0.484854
C58   C     C_3   0.696934 0.485337 0.134039 0.013621
C59   C     C_3   0.774918 0.532488 0.179413 -0.272781
C60   C     C_3   0.843868 0.472151 0.205962 -0.488297
C61   C     C_3   0.360117 0.380358 0.908205 0.035588
C62   C     C_3   0.307283 0.330211 0.840211 -0.285112
C63   C     C_3   0.289531 0.238662 0.862043 -0.490370
C64   C     C_3   0.696389 0.594780 0.939075 0.036855
C65   C     C_3   0.736052 0.649168 0.878162 -0.293067
C66   C     C_3   0.765668 0.736792 0.912706 -0.492216
C67   C     C_R   0.525089 0.491896 0.902782 0.205926
C68   C     C_3   0.302555 0.592932 0.070286 0.033479
C69   C     C_3   0.256888 0.631590 0.135932 -0.282301
C70   C     C_3   0.224998 0.718086 0.113752 -0.491372
C71   C     C_R   0.479811 0.520239 0.098501 0.223734
C72   C     C_R   0.599824 0.503330 0.866171 0.232493
Cu1   Cu    Cu3+1 0.584780 0.504040 0.503820 0.967819
Cu2   Cu    Cu3+1 0.415220 0.495960 0.496180 0.977224
H1    H     H_    0.620969 0.526269 0.264601 0.138012
H2    H     H_    0.396548 0.885994 0.631555 0.132126
H3    H     H_    0.504462 0.900624 0.676493 0.133028
H4    H     H_    0.564217 0.011569 0.314276 0.129038
H5    H     H_    0.505989 0.104183 0.331293 0.120109
H6    H     H_    0.615413 0.102656 0.370780 0.138168
H7    H     H_    0.135522 0.411049 0.293529 0.152919
H8    H     H_    0.055361 0.369231 0.351516 0.127139
H9    H     H_    0.055074 0.477213 0.319542 0.137730
H10   H     H_    0.865389 0.584913 0.706867 0.153783
H11   H     H_    0.941293 0.512830 0.681752 0.143214
H12   H     H_    0.379691 0.480006 0.739507 0.148361
H13   H     H_    0.949622 0.620706 0.650589 0.122344
H14   H     H_    0.205736 0.299677 0.357379 0.110861
H15   H     H_    0.293039 0.304924 0.435134 0.159558
H16   H     H_    0.307745 0.305236 0.256320 0.168556
H17   H     H_    0.395654 0.310184 0.333442 0.176027
H18   H     H_    0.347425 0.169548 0.380132 0.188795
H19   H     H_    0.257814 0.164261 0.303838 0.143576
H20   H     H_    0.364778 0.163964 0.277517 0.129140
H21   H     H_    0.651281 0.691909 0.626886 0.167591
H22   H     H_    0.719125 0.689290 0.549669 0.130848
H23   H     H_    0.653298 0.510307 0.756749 0.188654
H24   H     H_    0.782376 0.715751 0.727113 0.167555
H25   H     H_    0.844761 0.726298 0.645458 0.152757
H26   H     H_    0.761149 0.845357 0.595076 0.195821
H27   H     H_    0.807783 0.866131 0.695498 0.149458
H28   H     H_    0.695963 0.835897 0.675381 0.160976
H29   H     H_    0.648182 0.116550 0.731252 0.157860
H30   H     H_    0.569866 0.033319 0.718616 0.124317
H31   H     H_    0.549864 0.218509 0.665139 0.181567
H32   H     H_    0.464708 0.137417 0.655489 0.170773
H33   H     H_    0.477721 0.124740 0.801573 0.139444
H34   H     H_    0.348098 0.493501 0.241117 0.183354
H35   H     H_    0.457983 0.231294 0.772115 0.150887
H36   H     H_    0.563496 0.205902 0.812057 0.154101
H37   H     H_    0.399101 0.003671 0.292471 0.133910
H38   H     H_    0.318111 0.014255 0.358704 0.176878
H39   H     H_    0.328620 0.868351 0.238818 0.174461
H40   H     H_    0.248720 0.876333 0.305296 0.166218
H41   H     H_    0.202556 0.010304 0.242869 0.144251
H42   H     H_    0.196988 0.924178 0.171168 0.145711
H43   H     H_    0.283518 0.003495 0.176502 0.145773
H44   H     H_    0.226516 0.047856 0.544994 0.148979
H45   H     H_    0.711857 0.444976 0.399530 0.131194
H46   H     H_    0.308496 0.004615 0.606986 0.130718
H47   H     H_    0.225403 0.933701 0.443054 0.169053
H48   H     H_    0.309195 0.883665 0.502158 0.198388
H49   H     H_    0.216973 0.866111 0.610413 0.142980
H50   H     H_    0.169191 0.815658 0.519045 0.155395
H51   H     H_    0.131988 0.915114 0.550740 0.145453
H52   H     H_    0.765545 0.921098 0.448141 0.148600
H53   H     H_    0.693776 0.985903 0.395260 0.132902
H54   H     H_    0.658253 0.797596 0.434447 0.171107
H55   H     H_    0.586331 0.860040 0.372899 0.184058
H56   H     H_    0.287133 0.555923 0.599781 0.133268
H57   H     H_    0.693664 0.878137 0.277599 0.144401
H58   H     H_    0.664917 0.768244 0.291633 0.159650
H59   H     H_    0.765153 0.814103 0.338353 0.143886
H60   H     H_    0.716068 0.457412 0.078889 0.181853
H61   H     H_    0.675267 0.430918 0.168590 0.110436
H62   H     H_    0.801123 0.580598 0.140991 0.160262
H63   H     H_    0.756402 0.565877 0.232192 0.160508
H64   H     H_    0.819587 0.424701 0.246034 0.138626
H65   H     H_    0.899501 0.508355 0.238266 0.148363
H66   H     H_    0.864817 0.439095 0.154065 0.150459
H67   H     H_    0.867302 0.447275 0.404348 0.128546
H68   H     H_    0.325176 0.377420 0.961010 0.189547
H69   H     H_    0.421505 0.350100 0.924699 0.123735
H70   H     H_    0.245869 0.360218 0.825317 0.177353
H71   H     H_    0.341942 0.330883 0.787227 0.152615
H72   H     H_    0.350114 0.207321 0.877067 0.143484
H73   H     H_    0.252407 0.203736 0.811224 0.149424
H74   H     H_    0.252180 0.236090 0.913266 0.149823
H75   H     H_    0.743107 0.593026 0.992627 0.168490
H76   H     H_    0.639500 0.624672 0.957956 0.163402
H77   H     H_    0.791263 0.617622 0.858366 0.175368
H78   H     H_    0.131591 0.551844 0.594492 0.130150
H79   H     H_    0.688461 0.656562 0.826072 0.160147
H80   H     H_    0.711107 0.769805 0.931943 0.149706
H81   H     H_    0.793510 0.774925 0.867271 0.144572
H82   H     H_    0.814907 0.731667 0.963941 0.146616
H83   H     H_    0.258016 0.588588 0.014958 0.170426
H84   H     H_    0.357552 0.635561 0.058097 0.134569
H85   H     H_    0.202044 0.588710 0.147027 0.175058
H86   H     H_    0.301153 0.639204 0.191275 0.162189
H87   H     H_    0.279106 0.762350 0.103655 0.145294
H88   H     H_    0.192718 0.744419 0.162534 0.147976
H89   H     H_    0.430561 0.982167 0.687822 0.116004
H90   H     H_    0.178907 0.712480 0.059500 0.146120
N1    N     N_2   0.532584 0.489814 0.986152 -0.189208
N2    N     N_2   0.473391 0.523263 0.015132 -0.180813
N3    N     N_R   0.287870 0.489880 0.490440 -0.220915
N4    N     N_R   0.712130 0.510120 0.509560 -0.225519
N5    N     N_2   0.016402 0.486277 0.470153 -0.239906
N6    N     N_2   0.983368 0.509678 0.529537 -0.240301
O1    O     O_R   0.579470 0.503780 0.617500 -0.447409
O2    O     O_3   0.724446 0.589365 0.631886 -0.566519
O3    O     O_3   0.617275 0.077937 0.616789 -0.536832
O4    O     O_3   0.400096 0.916697 0.381421 -0.579007
O5    O     O_3   0.341134 0.056687 0.502298 -0.600539
O6    O     O_3   0.665592 0.948915 0.506938 -0.557202
O7    O     O_3   0.633593 0.543256 0.112422 -0.560593
O8    O     O_3   0.370325 0.466502 0.889039 -0.545613
O9    O     O_3   0.678821 0.510436 0.910304 -0.565702
O10   O     O_3   0.325611 0.509851 0.088590 -0.562678
O11   O     O_R   0.420530 0.496220 0.382500 -0.440497
O12   O     O_R   0.436280 0.496950 0.611050 -0.522466
O13   O     O_R   0.563720 0.503050 0.388950 -0.523537
O14   O     O_R   0.571580 0.624340 0.503230 -0.514112
O15   O     O_R   0.428420 0.375660 0.496770 -0.495740
O16   O     O_R   0.428390 0.617510 0.496780 -0.489008
O17   O     O_R   0.571610 0.382490 0.503220 -0.490139
O18   O     O_3   0.278748 0.413582 0.367867 -0.555182

loop_
_geom_bond_atom_site_label_1
_geom_bond_atom_site_label_2
_ccdc_geom_bond_type
C49   H39   S    
C41   C42   S    
C34   C56   A    
N1    N2    D    
C23   C45   A    
C22   C29   T    
C27   C29   S    
C50   H43   S    
N5    N6    D    
C59   H62   S    
C57   H58   S    
C9    N5    S    
C40   H19   S    
C51   H44   S    
C44   H30   S    
Cu2   O11   S    
C58   H60   S    
C23   H12   S    
C38   H15   S    
C37   H11   S    
C11   C36   S    
C33   H89   S    
C50   H41   S    
C42   H24   S    
C66   H81   S    
Cu1   O13   S    
C11   C14   A    
C41   H22   S    
C59   H63   S    
C36   H9    S    
C54   O6    S    
C46   H31   S    
C35   H6    S    
C1    C31   S    
C69   H86   S    
C7    C9    A    
C67   C72   A    
Cu1   Cu2   S    
C39   H17   S    
C19   C26   S    
C65   H79   S    
C46   C47   S    
C52   H48   S    
C61   H69   S    
C17   O15   A    
C68   C69   S    
C55   H55   S    
C62   H71   S    
C45   C67   A    
C10   C13   A    
C37   H10   S    
C8    H67   S    
Cu1   O1    S    
C19   C27   S    
C39   H16   S    
C13   C37   S    
C34   H1    S    
Cu2   O15   S    
C67   N1    S    
C49   H40   S    
C59   C60   S    
C12   C32   S    
C57   H59   S    
C61   C62   S    
C18   C25   S    
C2    O10   S    
Cu1   N4    S    
C68   H84   S    
C70   H88   S    
C63   H73   S    
Cu2   N3    S    
Cu1   O17   S    
C44   H29   S    
C44   C46   S    
C48   O4    S    
C56   O7    S    
C38   C39   S    
C41   O2    S    
C6    N4    A    
C17   C24   S    
C51   O5    S    
C51   C52   S    
C18   C28   S    
C44   O3    S    
C53   H49   S    
C36   H8    S    
C39   C40   S    
C66   H80   S    
Cu1   O14   S    
C6    C8    A    
C23   C31   A    
C58   C59   S    
C47   H35   S    
C71   N2    S    
C40   H18   S    
C38   H14   S    
C32   C34   A    
C65   H77   S    
C2    C4    A    
C43   H27   S    
C62   C63   S    
C1    O1    A    
C14   O18   S    
C52   H47   S    
C3    H23   S    
C33   H2    S    
C12   O11   A    
C36   H7    S    
C56   C71   A    
C50   H42   S    
C51   H46   S    
C43   H26   S    
C3    C31   A    
C9    C11   A    
C4    C32   A    
C53   H51   S    
C45   O8    S    
C60   H66   S    
C21   C35   S    
C20   C33   S    
C48   C49   S    
C48   H38   S    
C21   C28   S    
C49   C50   S    
C47   H33   S    
C55   C57   S    
C15   N4    A    
C35   H5    S    
C10   N6    S    
C42   C43   S    
C68   H83   S    
C70   H87   S    
C63   H74   S    
C52   C53   S    
C5    C7    A    
C64   O9    S    
C21   C25   S    
C54   C55   S    
C5    H56   S    
C16   C22   S    
C63   H72   S    
C19   C21   S    
C6    H45   S    
C37   H13   S    
C57   H57   S    
C40   H20   S    
C53   H50   S    
C70   H90   S    
C1    O12   A    
C16   O14   A    
Cu2   O12   S    
C20   C27   S    
C58   H61   S    
C25   C27   S    
C47   H36   S    
C54   H53   S    
C35   H4    S    
C26   C28   S    
C64   H75   S    
C64   C65   S    
C13   C15   A    
C3    C72   A    
C19   O4    S    
C16   O16   A    
C42   H25   S    
C66   H82   S    
C54   H52   S    
C25   O6    S    
C33   H3    S    
C41   H21   S    
C20   C26   S    
C26   O5    S    
C17   O17   A    
C38   O18   S    
C46   H32   S    
C28   C30   S    
C69   H85   S    
C68   O10   S    
C15   O2    S    
C58   O7    S    
C18   C20   S    
C5    N3    A    
C69   C70   S    
C24   C30   T    
C43   H28   S    
C60   H65   S    
C7    H78   S    
C12   O13   A    
C18   O3    S    
C61   H68   S    
C61   O8    S    
C48   H37   S    
C55   H54   S    
C8    C10   A    
C65   C66   S    
C64   H76   S    
C4    H34   S    
C72   O9    S    
C14   N3    A    
C2    C71   A    
C62   H70   S    
Cu2   O16   S    
C60   H64   S    
