data_mof_unit_23671.cif
_audit_creation_date              2013-03-05T15:46:22-0500
_audit_creation_method            fapswitch 2.2
_symmetry_space_group_name_H-M    P1
_symmetry_Int_Tables_number       1
_space_group_crystal_system       triclinic
_cell_length_a                    10.142193
_cell_length_b                    10.664821
_cell_length_c                    10.706558
_cell_angle_alpha                 90.787057
_cell_angle_beta                  95.073957
_cell_angle_gamma                 84.754658
_cell_volume                      1148.6840689

loop_
_atom_site_label
_atom_site_type_symbol
_atom_site_description
_atom_site_fract_x
_atom_site_fract_y
_atom_site_fract_z
_atom_type_partial_charge
O1    O     O_R   0.568950 0.489660 0.307530 -0.549773
O2    O     O_R   0.348880 0.522640 0.340350 -0.634103
C1    C     C_R   0.444671 0.512211 0.267216 0.914914
O3    O     O_R   0.610060 0.300270 0.483590 -0.611687
O4    O     O_R   0.389990 0.333260 0.516410 -0.649659
C2    C     C_R   0.494181 0.260651 0.494698 0.914242
Zn1   Zn    Zn3+2 0.646940 0.477980 0.478090 1.094905
Zn2   Zn    Zn3+2 0.353060 0.522020 0.521910 1.075440
O5    O     O_R   0.651120 0.477360 0.659650 -0.624991
O6    O     O_R   0.431050 0.510340 0.692470 -0.572827
O7    O     O_R   0.610010 0.666740 0.483590 -0.594916
O8    O     O_R   0.389940 0.699730 0.516410 -0.577917
C3    C     C_R   0.555437 0.497547 0.733835 0.894763
C4    C     C_R   0.507359 0.739468 0.510999 0.889781
C5    C     C_R   0.614105 0.094191 0.304924 0.254635
C6    C     C_R   0.732064 0.032095 0.264398 0.184182
C7    C     C_R   0.800893 0.934276 0.337693 -0.280303
C8    C     C_R   0.739459 0.883776 0.437404 0.295770
C9    C     C_R   0.609338 0.932926 0.460323 -0.114303
C10   C     C_R   0.564804 0.051894 0.415548 -0.099637
C11   C     C_R   0.482226 0.127592 0.491143 -0.096574
C12   C     C_R   0.415718 0.074146 0.585073 -0.170463
C13   C     C_R   0.429800 0.944153 0.599390 0.282767
C14   C     C_R   0.522954 0.872465 0.531362 -0.128314
H1    H     H_    0.386643 0.600460 0.884639 0.249765
C15   C     C_2   0.413542 0.526730 0.133420 -0.216307
C16   C     C_2   0.493916 0.588007 0.066461 -0.079109
C17   C     C_2   0.583922 0.519353 0.868271 -0.208652
C18   C     C_2   0.484602 0.574725 0.931215 -0.115868
N1    N     N_2   0.157290 0.551390 0.551110 0.001518
C19   C     C_2   0.082628 0.467825 0.498918 0.028552
N2    N     N_2   0.842740 0.448550 0.448960 -0.024398
C20   C     C_2   0.944105 0.450994 0.532484 0.033347
C21   C     C_1   0.341031 0.151059 0.672412 0.326676
N3    N     N_1   0.281636 0.212309 0.742085 -0.099993
C22   C     C_1   0.304838 0.461172 0.074841 0.341369
N4    N     N_1   0.218094 0.408594 0.028582 -0.049564
C23   C     C_1   0.930343 0.407453 0.656528 0.283125
N5    N     N_1   0.921847 0.369020 0.755582 -0.115496
C24   C     C_1   0.131731 0.387096 0.400815 0.281968
N6    N     N_1   0.168523 0.321417 0.321723 -0.080209
N7    N     N_R   0.865631 0.465286 0.324277 0.278357
O9    O     O_R   0.898466 0.572576 0.286202 -0.373390
O10   O     O_R   0.833353 0.380296 0.241949 -0.306153
N8    N     N_R   0.130260 0.590021 0.671516 0.302619
O11   O     O_R   0.171172 0.516898 0.765944 -0.408936
O12   O     O_R   0.095613 0.707982 0.693234 -0.221951
N9    N     N_R   0.538802 0.191655 0.230107 0.210659
O13   O     O_R   0.597178 0.265154 0.160986 -0.319298
O14   O     O_R   0.409606 0.199139 0.221551 -0.403738
N10   N     N_R   0.781496 0.067444 0.149573 0.257853
O15   O     O_R   0.898996 0.107372 0.150178 -0.314885
O16   O     O_R   0.711867 0.052760 0.043221 -0.295805
C25   C     C_1   0.931985 0.884904 0.307273 0.475864
N11   N     N_1   0.036859 0.845635 0.282809 -0.104544
N12   N     N_R   0.815098 0.800794 0.527622 0.245425
O17   O     O_R   0.792053 0.807300 0.645360 -0.324624
O18   O     O_R   0.911123 0.722385 0.494382 -0.369177
N13   N     N_R   0.359683 0.886029 0.690774 0.230158
O19   O     O_R   0.234944 0.920524 0.702343 -0.303882
O20   O     O_R   0.423696 0.805615 0.769471 -0.387217
C26   C     C_1   0.589822 0.669034 0.123632 0.325725
N14   N     N_1   0.666096 0.734245 0.168447 -0.141070
C27   C     C_1   0.714430 0.484566 0.930255 0.325998
N15   N     N_1   0.818296 0.457939 0.981439 -0.030643

loop_
_geom_bond_atom_site_label_1
_geom_bond_atom_site_label_2
_geom_bond_distance
_ccdc_geom_bond_type
O4    Zn2   2.014715 S    
C13   N13   1.437907 S    
C13   C14   1.407826 A    
C19   C20   1.507442 S    
C3    C17   1.462466 S    
C26   N14   1.155805 T    
C16   C26   1.449620 S    
C16   C18   1.448571 S    
C22   N4    1.157248 T    
C25   N11   1.157657 T    
N1    N8    1.390696 S    
C1    C15   1.446667 S    
C9    C10   1.384646 A    
C6    N10   1.435667 S    
C8    N12   1.439792 S    
Zn2   O8    1.967717 S    
Zn2   N1    2.032634 S    
N2    C20   1.303434 D    
N9    O14   1.300611 A    
C7    C8    1.418725 A    
N13   O19   1.300993 A    
O1    Zn1   1.925772 S    
C11   C12   1.413248 A    
C19   C24   1.442827 S    
Zn1   O7    2.014716 S    
C17   C18   1.348316 D    
C15   C16   1.348757 D    
N1    C19   1.309494 D    
N7    O10   1.298830 A    
C5    N9    1.440453 S    
O3    Zn1   1.967717 S    
O4    C2    1.288113 A    
C17   C27   1.446255 S    
C27   N15   1.156773 T    
C15   C22   1.450615 S    
C24   N6    1.157057 T    
O8    C4    1.306266 A    
C9    C14   1.412976 A    
O2    C1    1.296828 A    
N8    O12   1.298377 A    
H1    C18   1.085063 S    
C5    C10   1.420206 A    
C12   C21   1.453153 S    
O7    C4    1.292968 A    
N13   O20   1.299315 A    
N7    O9    1.301093 A    
C5    C6    1.413208 A    
Zn1   O5    1.940681 S    
C23   N5    1.155300 T    
C10   C11   1.409461 A    
O3    C2    1.300314 A    
C8    C9    1.415581 A    
C4    C14   1.452859 S    
N12   O17   1.302012 A    
O5    C3    1.308584 A    
C12   C13   1.389836 A    
N9    O13   1.300348 A    
C20   C23   1.435437 S    
N2    N7    1.391659 S    
Zn1   N2    2.032793 S    
C21   N3    1.157665 T    
N10   O16   1.301113 A    
N8    O11   1.300282 A    
C2    C11   1.434933 S    
C7    C25   1.447398 S    
Zn2   O6    1.925772 S    
O2    Zn2   1.940681 S    
N10   O15   1.301117 A    
N12   O18   1.295615 A    
C6    C7    1.408500 A    
O1    C1    1.297727 A    
O6    C3    1.295240 A    
