data_mof_unit_24560.cif
_audit_creation_date              2012-12-11T15:48:54-0500
_audit_creation_method            fapswitch 2.2
_symmetry_space_group_name_H-M    P1
_symmetry_Int_Tables_number       1
_space_group_crystal_system       triclinic
_cell_length_a                    10.935799
_cell_length_b                    10.996299
_cell_length_c                    18.817141
_cell_angle_alpha                 90.760837
_cell_angle_beta                  90.498231
_cell_angle_gamma                 60.814772
_cell_volume                      1975.37265864

loop_
_atom_site_label
_atom_site_type_symbol
_atom_type_description
_atom_site_fract_x
_atom_site_fract_y
_atom_site_fract_z
_atom_type_partial_charge
C1    C     C_R   0.238772 0.646296 0.609830 0.539260
C2    C     C_R   0.579433 0.130741 0.704423 -0.152398
C3    C     C_R   0.570832 0.136039 0.778436 -0.027051
C4    C     C_R   0.653309 0.620708 0.601222 0.539195
C5    C     C_3   0.919738 0.151329 0.787897 -0.258438
C6    C     C_3   0.915653 0.163029 0.706286 -0.259834
C7    C     C_R   0.676504 0.155247 0.668718 -0.018865
C8    C     C_R   0.166820 0.679639 0.832383 0.012461
C9    C     C_R   0.142782 0.587009 0.791646 -0.002414
C10   C     C_R   0.155427 0.580613 0.718144 -0.022000
C11   C     C_R   0.203065 0.772467 0.723611 -0.162586
C12   C     C_3   0.639738 0.567884 0.800943 -0.255774
C13   C     C_R   0.196542 0.773760 0.797342 -0.167617
C14   C     C_3   0.220117 0.434287 0.797893 -0.249932
C15   C     C_3   0.232048 0.425751 0.717751 -0.226723
C16   C     C_R   0.631322 0.223509 0.600584 0.535751
C17   C     C_R   0.188918 0.670925 0.682944 0.014752
C18   C     C_R   0.654130 0.677190 0.169615 0.018757
C19   C     C_R   0.747500 0.556193 0.203705 0.001167
C20   C     C_R   0.751540 0.545460 0.276300 0.056946
C21   C     C_R   0.565121 0.781257 0.287042 -0.146680
C22   C     C_R   0.560612 0.792064 0.212382 0.195505
C23   C     C_3   0.697079 0.669360 0.812897 0.028570
C24   C     C_3   0.767556 0.413972 0.191603 -0.267438
C25   C     C_3   0.771300 0.401580 0.271464 -0.216016
C26   C     C_R   0.659126 0.655232 0.319519 -0.034461
C27   C     C_R   0.661354 0.165302 0.174230 0.028476
C28   C     C_R   0.217072 0.651742 0.403268 0.540716
C29   C     C_R   0.533495 0.253348 0.204836 -0.024911
C30   C     C_R   0.522168 0.257270 0.277048 0.003686
C31   C     C_R   0.770109 0.120588 0.291982 -0.170262
C32   C     C_R   0.781831 0.112025 0.218123 -0.150124
C33   C     C_3   0.387992 0.280043 0.193766 -0.225287
C34   C     C_3   0.668348 0.643770 0.676860 0.047779
C35   C     C_3   0.379802 0.272593 0.274351 -0.193591
C36   C     C_R   0.636974 0.185871 0.322141 0.024420
C37   C     C_R   0.058061 0.718698 0.196036 -0.023778
C38   C     C_R   0.075977 0.819469 0.232883 -0.025696
C39   C     C_R   0.108211 0.807812 0.303437 0.003943
C40   C     C_R   0.642172 0.622220 0.392314 0.541289
C41   C     C_R   0.082216 0.604134 0.310316 -0.133988
C42   C     C_R   0.056127 0.609246 0.236312 -0.021148
C43   C     C_3   0.170914 0.877777 0.216484 -0.219482
C44   C     C_3   0.204842 0.867115 0.294367 -0.236027
C45   C     C_3   0.822735 0.598840 0.693967 -0.244370
C46   C     C_R   0.127195 0.691582 0.341068 -0.012909
C47   C     C_R   0.701437 0.098729 0.894966 0.528683
C48   C     C_R   0.721560 0.686271 0.889041 0.534591
C49   C     C_R   0.115439 0.708549 0.905056 0.551055
C50   C     C_R   0.676412 0.108358 0.103460 0.547984
C51   C     C_R   0.695029 0.691604 0.097636 0.558589
C52   C     C_R   0.616654 0.227752 0.395522 0.538306
C53   C     C_R   0.032442 0.742563 0.119490 0.546604
C54   C     C_3   0.593150 0.811061 0.779786 -0.202239
C55   C     C_3   0.576866 0.797522 0.699414 -0.224614
C56   C     C_3   0.620152 0.554551 0.720468 -0.218409
C57   C     C_3   0.838659 0.614730 0.773500 -0.221110
C58   C     C_2   0.440663 0.140602 0.807653 0.198087
C59   C     C_2   0.048311 0.488511 0.204311 0.195718
C60   C     C_R   0.683187 0.137267 0.819787 -0.019156
C61   C     C_R   0.788450 0.142737 0.781130 -0.004452
C62   C     C_R   0.785484 0.151527 0.709068 0.007031
Cl1   Cl    Cl    0.426971 0.944602 0.175249 -0.676113
Cr1   Cr    Cr6+3 0.392960 0.397920 0.502240 1.011674
Cr2   Cr    Cr6+3 0.398340 0.708480 0.501250 1.007043
Cr3   Cr    Cr6+3 0.708670 0.393570 0.496460 1.011548
Cr4   Cr    Cr6+3 0.937650 0.938540 0.007610 1.021201
Cr5   Cr    Cr6+3 0.625330 0.937370 0.994520 1.052046
Cr6   Cr    Cr6+3 0.937940 0.625230 0.001190 0.997545
H1    H     H_    0.636371 0.882077 0.788783 0.159809
H2    H     H_    0.229864 0.845017 0.699300 0.143780
H3    H     H_    0.489349 0.853813 0.806131 0.171970
H4    H     H_    0.213529 0.849461 0.826835 0.138511
H5    H     H_    0.155245 0.391298 0.819713 0.152396
H6    H     H_    0.320705 0.403515 0.825856 0.119969
H7    H     H_    0.341311 0.382383 0.698858 0.173169
H8    H     H_    0.170570 0.381137 0.692107 0.150463
H9    H     H_    0.489545 0.867624 0.318950 0.151515
H10   H     H_    0.869429 0.343130 0.165895 0.175937
H11   H     H_    0.674504 0.415594 0.166395 0.127583
H12   H     H_    0.679208 0.443618 0.704271 0.138231
H13   H     H_    0.678691 0.398901 0.292852 0.147874
H14   H     H_    0.464526 0.834830 0.687085 0.158618
H15   H     H_    0.874503 0.322106 0.292620 0.186740
H16   H     H_    0.863209 0.078721 0.324927 0.128518
H17   H     H_    0.884375 0.058432 0.195230 0.148008
H18   H     H_    0.379553 0.197916 0.163784 0.237966
H19   H     H_    0.321571 0.386285 0.172480 0.132460
H20   H     H_    0.304299 0.370573 0.300123 0.169285
H21   H     H_    0.377999 0.177715 0.292638 0.185334
H22   H     H_    0.086288 0.520612 0.341961 0.170754
H23   H     H_    0.917240 0.511765 0.794549 0.143449
H24   H     H_    0.115360 0.987065 0.197776 0.172046
H25   H     H_    0.609500 0.863949 0.669976 0.121282
H26   H     H_    0.261943 0.805136 0.183440 0.197255
H27   H     H_    0.315929 0.790239 0.305088 0.170329
H28   H     H_    0.165439 0.970075 0.321257 0.150399
H29   H     H_    0.877058 0.690486 0.782175 0.133886
H30   H     H_    0.856834 0.663731 0.663994 0.119380
H31   H     H_    0.712849 0.464491 0.823340 0.124877
H32   H     H_    0.537622 0.607028 0.828626 0.117117
H33   H     H_    0.507878 0.589156 0.709333 0.126754
H34   H     H_    0.892973 0.488350 0.678329 0.136110
H35   H     H_    0.401227 0.180403 0.860256 0.153668
H36   H     H_    0.029348 0.480871 0.148906 0.182009
H37   H     H_    0.497828 0.124471 0.674220 0.188910
H38   H     H_    0.007806 0.053738 0.808188 0.161772
H39   H     H_    0.904230 0.247171 0.815899 0.128720
H40   H     H_    0.897932 0.265275 0.687205 0.141864
H41   H     H_    0.002495 0.071543 0.679370 0.145943
O1    O     O_R   0.507380 0.255700 0.581440 -0.537753
O2    O     O_R   0.837170 0.593410 0.915250 -0.525807
O3    O     O_R   0.065200 0.635530 0.931570 -0.497406
O4    O     O_R   0.280320 0.527350 0.578930 -0.504971
O5    O     O_R   0.068260 0.828890 0.091840 -0.509205
O6    O     O_R   0.798870 0.057410 0.079340 -0.533307
O7    O     O_R   0.584930 0.080350 0.076780 -0.480355
O8    O     O_R   0.626960 0.809650 0.067060 -0.435248
O9    O     O_R   0.816040 0.596610 0.076510 -0.554731
O10   O     O_R   0.045610 0.638500 0.081060 -0.534980
O11   O     O_3   0.833640 0.833710 0.001100 -0.274507
O12   O     O_R   0.524480 0.695810 0.424040 -0.510561
O13   O     O_R   0.260510 0.739590 0.584590 -0.531038
O14   O     O_R   0.532300 0.695080 0.573820 -0.510305
O15   O     O_R   0.744840 0.503500 0.576370 -0.528868
O16   O     O_R   0.699120 0.276560 0.571960 -0.499605
O17   O     O_R   0.498940 0.256500 0.419860 -0.519753
O18   O     O_R   0.272500 0.528080 0.429150 -0.510840
O19   O     O_R   0.252060 0.740380 0.423010 -0.520027
O20   O     O_2   0.367943 0.108314 0.770954 -0.581032
O21   O     O_2   0.066802 0.389805 0.240748 -0.557607
O22   O     O_R   0.736390 0.504290 0.414790 -0.510349
O23   O     O_R   0.691300 0.277290 0.422170 -0.512074
O24   O     O_3   0.499990 0.499990 0.499980 -0.252600
O25   O     O_R   0.089400 0.825690 0.930570 -0.517987
O26   O     O_R   0.818460 0.054440 0.929850 -0.492839
O27   O     O_R   0.606060 0.077150 0.915510 -0.555521
O28   O     O_R   0.646550 0.806680 0.917570 -0.509874

loop_
_geom_bond_atom_site_label_1
_geom_bond_atom_site_label_2
_ccdc_geom_bond_type
C49   O3    A    
C21   C26   A    
C34   C56   S    
C8    C13   A    
C31   H16   S    
C57   H23   S    
C47   O26   A    
C27   C29   A    
C50   O7    A    
C41   C42   A    
Cr5   O28   S    
C2    C7    A    
Cr4   O6    S    
C53   O10   A    
C56   H12   S    
C15   H8    S    
C12   C23   S    
C59   O21   D    
C37   C38   A    
C4    O15   A    
C14   H5    S    
C33   H19   S    
C28   O19   A    
C2    C3    A    
C10   C15   S    
C31   C36   A    
C5    C6    S    
C33   C35   S    
Cr6   O2    S    
C11   H2    S    
C20   C25   S    
C10   C17   A    
C29   C33   S    
C51   O8    A    
C4    O14   A    
C18   C19   A    
Cr2   O14   S    
C37   C42   A    
Cr4   O5    S    
C45   H34   S    
Cr5   O8    S    
C22   Cl1   S    
Cr3   O24   S    
C24   H11   S    
C19   C20   A    
C8    C9    A    
Cr1   O18   S    
C21   H9    S    
C25   H15   S    
C43   H26   S    
C41   C46   A    
C9    C10   A    
Cr2   O24   S    
C36   C52   S    
C27   C50   S    
C3    C58   S    
C37   C53   S    
C3    C60   A    
C15   H7    S    
C49   O25   A    
C32   H17   S    
C34   C55   S    
C21   C22   A    
C52   O23   A    
C6    H41   S    
Cr5   O27   S    
C55   H25   S    
Cr4   O11   S    
C52   O17   A    
C18   C51   S    
Cr3   O22   S    
Cr1   O24   S    
Cr1   O4    S    
C24   C25   S    
C45   H30   S    
C9    C14   S    
Cr1   O1    S    
C2    H37   S    
Cr3   O16   S    
C60   C61   A    
Cr5   O11   S    
Cr4   O25   S    
C43   C44   S    
C1    O13   A    
C7    C62   A    
C29   C30   A    
C44   H27   S    
Cr5   O7    S    
Cr3   O23   S    
C44   H28   S    
C24   H10   S    
C51   O9    A    
C31   C32   A    
C54   H1    S    
Cr6   O11   S    
Cr1   O17   S    
C45   C57   S    
C47   O27   A    
C5    C61   S    
C34   C45   S    
C59   H36   S    
Cr2   O12   S    
C12   H32   S    
C12   C56   S    
C39   C46   A    
C35   H20   S    
C7    C16   S    
C41   H22   S    
C13   H4    S    
C25   H13   S    
C6    H40   S    
C58   H35   S    
C1    O4    A    
C55   H14   S    
C47   C60   S    
C40   O12   A    
C23   C54   S    
C5    H38   S    
C23   C57   S    
C54   C55   S    
C11   C17   A    
C23   C48   S    
C48   O2    A    
C27   C32   A    
C18   C22   A    
C42   C59   S    
Cr2   O19   S    
C39   C44   S    
C30   C36   A    
C30   C35   S    
Cr6   O10   S    
C1    C17   S    
Cr3   O15   S    
C48   O28   A    
C28   C46   S    
C14   H6    S    
C6    C62   S    
C19   C24   S    
C33   H18   S    
C56   H33   S    
C38   C43   S    
C11   C13   A    
C26   C40   S    
C38   C39   A    
C20   C26   A    
C58   O20   D    
C57   H29   S    
C43   H24   S    
Cr6   O9    S    
Cr4   O26   S    
C50   O6    A    
Cr2   O13   S    
C4    C34   S    
C40   O22   A    
C61   C62   A    
C12   H31   S    
C35   H21   S    
C28   O18   A    
Cr6   O3    S    
C54   H3    S    
C14   C15   S    
C16   O16   A    
C8    C49   S    
C53   O5    A    
C16   O1    A    
C5    H39   S    
