data_mof_unit_6893.cif
_audit_creation_date              2012-12-11T14:17:46-0500
_audit_creation_method            fapswitch 2.2
_symmetry_space_group_name_H-M    P1
_symmetry_Int_Tables_number       1
_space_group_crystal_system       triclinic
_cell_length_a                    11.13053
_cell_length_b                    11.130672
_cell_length_c                    18.72193
_cell_angle_alpha                 90.000452
_cell_angle_beta                  90.000165
_cell_angle_gamma                 119.999491
_cell_volume                      2008.72602306

loop_
_atom_site_label
_atom_site_type_symbol
_atom_type_description
_atom_site_fract_x
_atom_site_fract_y
_atom_site_fract_z
_atom_type_partial_charge
C1    C     C_R   0.520730 0.454242 0.145982 0.547573
C2    C     C_R   0.545757 0.066492 0.145980 0.547573
C3    C     C_R   0.933518 0.479269 0.145983 0.547579
C4    C     C_R   0.459817 0.519664 0.851975 0.564003
C5    C     C_R   0.059843 0.540183 0.851974 0.564002
C6    C     C_R   0.480339 0.940160 0.851973 0.564004
C7    C     C_R   0.397118 0.008927 0.463063 -0.132890
C8    C     C_R   0.991067 0.388190 0.463065 -0.132903
C9    C     C_R   0.611805 0.602884 0.463063 -0.132902
C10   C     C_R   0.009020 0.397170 0.536911 -0.132615
C11   C     C_R   0.388145 0.990970 0.536909 -0.132613
C12   C     C_R   0.602822 0.611855 0.536909 -0.132624
C13   C     C_R   0.748526 0.066981 0.566620 0.253858
C14   C     C_R   0.932990 0.681522 0.566628 0.253856
C15   C     C_R   0.318467 0.251475 0.566618 0.253859
C16   C     C_R   0.067120 0.748572 0.433306 0.254009
C17   C     C_R   0.681438 0.932856 0.433295 0.254001
C18   C     C_R   0.251419 0.318560 0.433296 0.254002
C19   C     C_R   0.840200 0.037241 0.532045 -0.173069
C20   C     C_R   0.962743 0.802944 0.532062 -0.173054
C21   C     C_R   0.197052 0.159803 0.532045 -0.173069
C22   C     C_R   0.037296 0.840217 0.467847 -0.172782
C23   C     C_R   0.802919 0.962693 0.467828 -0.172776
C24   C     C_R   0.159781 0.197084 0.467830 -0.172779
C25   C     C_R   0.518604 0.458023 0.353612 0.615325
C26   C     C_R   0.541977 0.060582 0.353612 0.615330
C27   C     C_R   0.939416 0.481394 0.353613 0.615333
C28   C     C_R   0.458004 0.518617 0.646374 0.613933
C29   C     C_R   0.060610 0.541995 0.646376 0.613920
C30   C     C_R   0.481383 0.939386 0.646374 0.613930
C31   C     C_R   0.498513 0.006667 0.921971 0.004244
C32   C     C_R   0.993344 0.491862 0.921975 0.004239
C33   C     C_R   0.508141 0.501496 0.921977 0.004244
C34   C     C_R   0.973379 0.493423 0.070910 0.004366
C35   C     C_R   0.520065 0.026658 0.070903 0.004373
C36   C     C_R   0.506571 0.479935 0.070909 0.004381
C37   C     C_R   0.381861 0.985449 0.963628 0.022842
C38   C     C_R   0.014531 0.396403 0.963628 0.022834
C39   C     C_R   0.603556 0.618150 0.963639 0.022844
C40   C     C_R   0.019432 0.408905 0.038903 0.012961
C41   C     C_R   0.389478 0.980556 0.038901 0.012958
C42   C     C_R   0.591039 0.610524 0.038912 0.012969
C43   C     C_R   0.638113 0.069553 0.027785 -0.140858
C44   C     C_R   0.930571 0.568651 0.027798 -0.140839
C45   C     C_R   0.431415 0.361890 0.027788 -0.140851
C46   C     C_R   0.943287 0.570288 0.954696 -0.141537
C47   C     C_R   0.627018 0.056806 0.954683 -0.141543
C48   C     C_R   0.429770 0.372989 0.954686 -0.141537
C49   C     C_R   0.257353 0.966869 0.933152 -0.086425
C50   C     C_R   0.033100 0.290475 0.933147 -0.086445
C51   C     C_R   0.709470 0.742670 0.933170 -0.086425
C52   C     C_R   0.068167 0.335014 0.079745 -0.088890
C53   C     C_R   0.266858 0.931817 0.079749 -0.088873
C54   C     C_R   0.664887 0.733138 0.079766 -0.088869
C55   C     C_R   0.139137 0.923868 0.974622 -0.141702
C56   C     C_R   0.076133 0.215276 0.974609 -0.141678
C57   C     C_R   0.784651 0.860885 0.974646 -0.141687
C58   C     C_R   0.095527 0.238615 0.047595 -0.128941
C59   C     C_R   0.143101 0.904489 0.047609 -0.128955
C60   C     C_R   0.761288 0.856910 0.047632 -0.128915
C61   C     C_R   0.501842 0.001076 0.574851 0.062952
C62   C     C_R   0.998907 0.500755 0.574854 0.062955
C63   C     C_R   0.499236 0.498157 0.574851 0.062953
C64   C     C_R   0.001192 0.501886 0.425115 0.062090
C65   C     C_R   0.500686 0.998797 0.425112 0.062097
C66   C     C_R   0.498108 0.499314 0.425112 0.062096
C67   C     C_R   0.617723 0.021214 0.535794 -0.005042
C68   C     C_R   0.978756 0.596491 0.535799 -0.005039
C69   C     C_R   0.403496 0.382276 0.535793 -0.005041
C70   C     C_R   0.021405 0.617803 0.464160 -0.005329
C71   C     C_R   0.596383 0.978569 0.464154 -0.005323
C72   C     C_R   0.382187 0.403615 0.464154 -0.005323
Cr1   Cr    Cr6+3 0.768550 0.541320 0.250660 1.081122
Cr2   Cr    Cr6+3 0.458680 0.227230 0.250660 1.081113
Cr3   Cr    Cr6+3 0.772770 0.231450 0.250660 1.081109
Cr4   Cr    Cr6+3 0.541320 0.768550 0.749340 1.082499
Cr5   Cr    Cr6+3 0.227230 0.458680 0.749340 1.082506
Cr6   Cr    Cr6+3 0.231450 0.772770 0.749340 1.082498
H1    H     H_    0.741167 0.114126 0.050448 0.150514
H2    H     H_    0.886086 0.627205 0.050465 0.150523
H3    H     H_    0.372931 0.258837 0.050448 0.150521
H4    H     H_    0.919548 0.638193 0.923863 0.142092
H5    H     H_    0.718667 0.080595 0.923841 0.142066
H6    H     H_    0.361910 0.281340 0.923844 0.142080
H7    H     H_    0.250173 0.989658 0.877788 0.152310
H8    H     H_    0.010303 0.260510 0.877782 0.152310
H9    H     H_    0.739453 0.749866 0.877808 0.152319
H10   H     H_    0.087173 0.351926 0.136482 0.162519
H11   H     H_    0.264775 0.912808 0.136484 0.162517
H12   H     H_    0.647951 0.735206 0.136500 0.162517
H13   H     H_    0.043944 0.904588 0.949549 0.107182
H14   H     H_    0.095432 0.139386 0.949527 0.107209
H15   H     H_    0.860544 0.956087 0.949576 0.107215
H16   H     H_    0.130030 0.180573 0.079561 0.129627
H17   H     H_    0.050567 0.870016 0.079583 0.129598
H18   H     H_    0.819316 0.949441 0.079609 0.129646
H19   H     H_    0.323933 0.030199 0.436155 0.180767
H20   H     H_    0.969804 0.293739 0.436155 0.180766
H21   H     H_    0.706259 0.676072 0.436154 0.180764
H22   H     H_    0.030247 0.323961 0.563826 0.180770
H23   H     H_    0.293712 0.969750 0.563826 0.180766
H24   H     H_    0.676030 0.706289 0.563826 0.180761
H25   H     H_    0.937554 0.068970 0.557356 0.139029
H26   H     H_    0.931024 0.868573 0.557378 0.139040
H27   H     H_    0.131428 0.062451 0.557355 0.139022
H28   H     H_    0.068963 0.937539 0.442513 0.139277
H29   H     H_    0.868586 0.931050 0.442484 0.139299
H30   H     H_    0.062471 0.131425 0.442488 0.139295
O1    O     O_R   0.910960 0.572410 0.171010 -0.508526
O2    O     O_R   0.427590 0.338550 0.171010 -0.508530
O3    O     O_R   0.661450 0.089040 0.171010 -0.508533
O4    O     O_R   0.572410 0.910960 0.828990 -0.502695
O5    O     O_R   0.338550 0.427590 0.828990 -0.502683
O6    O     O_R   0.089040 0.661450 0.828990 -0.502695
O7    O     O_R   0.639750 0.528530 0.175600 -0.510182
O8    O     O_R   0.471470 0.111220 0.175600 -0.510196
O9    O     O_R   0.888780 0.360250 0.175600 -0.510200
O10   O     O_R   0.528530 0.639750 0.824400 -0.509831
O11   O     O_R   0.111220 0.471470 0.824400 -0.509819
O12   O     O_R   0.360250 0.888780 0.824400 -0.509827
O13   O     O_R   0.909330 0.572400 0.331540 -0.469008
O14   O     O_R   0.427600 0.336930 0.331540 -0.469015
O15   O     O_R   0.663070 0.090670 0.331540 -0.469014
O16   O     O_R   0.572400 0.909330 0.668460 -0.471181
O17   O     O_R   0.336930 0.427600 0.668460 -0.471178
O18   O     O_R   0.090670 0.663070 0.668460 -0.471185
O19   O     O_R   0.638240 0.528520 0.324410 -0.488576
O20   O     O_R   0.471480 0.109720 0.324410 -0.488577
O21   O     O_R   0.890280 0.361760 0.324410 -0.488575
O22   O     O_R   0.528520 0.638240 0.675590 -0.490366
O23   O     O_R   0.109720 0.471480 0.675590 -0.490369
O24   O     O_R   0.361760 0.890280 0.675590 -0.490371
O25   O     O_3   0.666667 0.333333 0.250630 -0.299500
O26   O     O_3   0.333333 0.666667 0.749370 -0.296717
Cl1   Cl    Cl    0.802620 0.166503 0.646228 -0.583576
Cl2   Cl    Cl    0.833473 0.636091 0.646238 -0.583562
Cl3   Cl    Cl    0.363902 0.197387 0.646225 -0.583571
Cl4   Cl    Cl    0.166572 0.802616 0.353670 -0.583154
Cl5   Cl    Cl    0.636028 0.833414 0.353654 -0.583153
Cl6   Cl    Cl    0.197379 0.363966 0.353657 -0.583152

loop_
_geom_bond_atom_site_label_1
_geom_bond_atom_site_label_2
_ccdc_geom_bond_type
C2    C35   S    
C39   C51   A    
C55   C59   A    
C5    O6    A    
C19   C23   A    
Cr3   O9    S    
C53   C59   A    
C54   C60   A    
C7    C11   A    
C17   C23   A    
C5    O11   A    
C34   C40   A    
C54   H12   S    
C16   Cl4   S    
C4    C33   S    
C43   H1    S    
Cr2   O25   S    
Cr5   O23   S    
Cr6   O24   S    
C9    C66   A    
C8    H20   S    
C3    O9    A    
C46   H4    S    
C19   H25   S    
C66   C72   A    
C63   C69   A    
C65   C71   A    
C55   H13   S    
C51   C57   A    
C64   C70   A    
C35   C43   A    
C25   O14   A    
C28   O22   A    
C5    C32   S    
C32   C46   A    
C6    C31   S    
C23   H29   S    
C9    H21   S    
C31   C47   A    
C29   O18   A    
C37   C41   A    
C13   Cl1   S    
C4    O10   A    
C10   C62   A    
C59   H17   S    
Cr5   O5    S    
C6    O12   A    
C44   C46   A    
C39   C42   A    
C18   C72   A    
C15   C69   A    
Cr2   O20   S    
C2    O3    A    
C38   C50   A    
C13   C19   A    
Cr4   O16   S    
C14   C20   A    
C4    O5    A    
C52   H10   S    
C16   C70   A    
C18   C24   A    
C17   Cl5   S    
C51   H9    S    
C12   C63   A    
Cr4   O26   S    
C10   H22   S    
C57   C60   A    
C26   O20   A    
C3    C34   S    
C11   C61   A    
C40   C52   A    
Cr4   O10   S    
C31   C37   A    
C69   C72   A    
Cr6   O12   S    
C12   H24   S    
C49   H7    S    
C1    O2    A    
C7    C65   A    
C37   C49   A    
C61   C67   A    
C44   H2    S    
Cr4   O4    S    
Cr2   O8    S    
C34   C44   A    
C36   C45   A    
C11   H23   S    
C33   C39   A    
C18   Cl6   S    
Cr6   O26   S    
C41   C53   A    
C52   C58   A    
C8    C64   A    
C24   H30   S    
C60   H18   S    
C22   H28   S    
Cr2   O14   S    
Cr1   O25   S    
C17   C71   A    
C32   C38   A    
C53   H11   S    
C27   O21   A    
Cr3   O15   S    
C21   C24   A    
C26   O15   A    
C20   C22   A    
Cr6   O18   S    
Cr5   O17   S    
C28   O17   A    
C13   C67   A    
C45   C48   A    
C33   C48   A    
C29   C62   S    
Cr6   O6    S    
C16   C22   A    
C7    H19   S    
C26   C65   S    
C6    O4    A    
C45   H3    S    
C25   C66   S    
C30   O16   A    
Cr5   O11   S    
C49   C55   A    
C36   C42   A    
Cr2   O2    S    
C2    O8    A    
Cr3   O25   S    
Cr1   O1    S    
C20   H26   S    
Cr3   O3    S    
Cr1   O7    S    
C62   C68   A    
C25   O19   A    
Cr1   O19   S    
C42   C54   A    
C38   C40   A    
C29   O23   A    
C14   Cl2   S    
C3    O1    A    
C30   O24   A    
C56   C58   A    
C67   C71   A    
C58   H16   S    
C35   C41   A    
C9    C12   A    
C50   C56   A    
C27   C64   S    
C50   H8    S    
C47   H5    S    
C28   C63   S    
C48   H6    S    
C15   C21   A    
C8    C10   A    
Cr5   O26   S    
C30   C61   S    
C27   O13   A    
C68   C70   A    
C14   C68   A    
C57   H15   S    
C1    O7    A    
C56   H14   S    
C43   C47   A    
C21   H27   S    
Cr4   O22   S    
Cr3   O21   S    
C1    C36   S    
Cr1   O13   S    
C15   Cl3   S    
