data_mof_unit_59448.cif
_audit_creation_date              2012-10-26T19:46:32-0400
_audit_creation_method            fapswitch 2.2
_symmetry_space_group_name_H-M    P1
_symmetry_Int_Tables_number       1
_space_group_crystal_system       triclinic
_cell_length_a                    10.919385
_cell_length_b                    9.701113
_cell_length_c                    15.14257
_cell_angle_alpha                 89.681375
_cell_angle_beta                  95.700862
_cell_angle_gamma                 88.323674
_cell_volume                      1595.38085174

loop_
_atom_site_label
_atom_site_type_symbol
_atom_type_description
_atom_site_fract_x
_atom_site_fract_y
_atom_site_fract_z
_atom_type_partial_charge
C1    C     C_R   0.262686 0.502231 0.504162 0.555269
C2    C     C_R   0.927191 0.617889 0.463469 0.006235
C3    C     C_R   0.941123 0.372827 0.500157 -0.014387
C4    C     C_R   0.055091 0.627036 0.481517 -0.007156
C5    C     C_R   0.520102 0.620465 0.095088 -0.109095
C6    C     C_R   0.441950 0.398915 0.900431 -0.115925
C7    C     C_R   0.580196 0.590702 0.908099 -0.108982
C8    C     C_R   0.507345 0.371589 0.096357 -0.112612
C9    C     C_R   0.519425 0.621668 0.186810 -0.103853
C10   C     C_R   0.439741 0.399369 0.808417 -0.113005
C11   C     C_R   0.575165 0.593332 0.816025 -0.123286
C12   C     C_R   0.736115 0.498053 0.492680 0.561693
C13   C     C_R   0.503501 0.373303 0.187875 -0.115514
C14   C     C_R   0.507788 0.498674 0.233818 0.030907
C15   C     C_R   0.504925 0.497853 0.765890 0.024223
C16   C     C_R   0.513649 0.495425 0.048804 0.035458
C17   C     C_R   0.512408 0.494549 0.951279 0.033123
C18   C     C_R   0.869453 0.494602 0.481828 -0.057637
C19   C     C_R   0.127294 0.506372 0.507441 -0.068519
C20   C     C_3   0.335923 0.152300 0.369454 -0.322630
C21   C     C_3   0.665179 0.848742 0.630210 -0.328807
C22   C     C_3   0.653198 0.142257 0.635923 -0.318747
C23   C     C_R   0.501883 0.500005 0.330289 0.549183
C24   C     C_3   0.357840 0.856959 0.359481 -0.316827
C25   C     C_2   0.136460 0.265881 0.572270 0.643041
C26   C     C_2   0.853141 0.735636 0.421467 0.656840
C27   C     C_2   0.887033 0.237462 0.478400 0.629065
C28   C     C_2   0.107820 0.766022 0.479060 0.628544
C29   C     C_R   0.501402 0.499493 0.669516 0.541238
C30   C     C_R   0.424399 0.076999 0.438287 0.133136
C31   C     C_R   0.575620 0.923261 0.561704 0.135064
C32   C     C_R   0.574903 0.071493 0.562039 0.126310
C33   C     C_R   0.426633 0.928689 0.437103 0.128155
C34   C     C_R   0.068032 0.381877 0.523453 -0.005144
Cu1   Cu    Cu3+1 0.500000 0.640660 0.500000 0.973584
Cu2   Cu    Cu3+1 0.500000 0.359340 0.500000 0.959225
H1    H     H_    0.524144 0.717948 0.060541 0.108831
H2    H     H_    0.360831 0.128092 0.301820 0.080673
H3    H     H_    0.240524 0.121104 0.375976 0.134787
H4    H     H_    0.669957 0.737260 0.626892 0.190998
H5    H     H_    0.760774 0.877681 0.622009 0.162716
H6    H     H_    0.642818 0.876307 0.697932 0.086769
H7    H     H_    0.673140 0.248756 0.621766 0.198224
H8    H     H_    0.607416 0.137792 0.698104 0.111363
H9    H     H_    0.746513 0.094805 0.648437 0.138732
H10   H     H_    0.321801 0.757893 0.377758 0.204289
H11   H     H_    0.275543 0.913629 0.328670 0.108207
H12   H     H_    0.386893 0.325140 0.931429 0.116232
H13   H     H_    0.419832 0.844401 0.306683 0.112765
H14   H     H_    0.204319 0.071270 0.570743 0.368085
H15   H     H_    0.773989 0.920601 0.438884 0.328080
H16   H     H_    0.782513 0.129131 0.386795 0.332757
H17   H     H_    0.109447 0.947006 0.413567 0.362666
H18   H     H_    0.638101 0.663197 0.945307 0.114384
H19   H     H_    0.505953 0.273111 0.063062 0.108084
H20   H     H_    0.528591 0.719023 0.220446 0.138964
H21   H     H_    0.385175 0.324737 0.770381 0.175640
H22   H     H_    0.628438 0.667776 0.784192 0.107726
H23   H     H_    0.497584 0.276166 0.222457 0.131770
H24   H     H_    0.329389 0.263556 0.373841 0.198540
N1    N     N_R   0.500000 0.852070 0.500000 -0.218980
N2    N     N_R   0.500000 0.147930 0.500000 -0.225308
O1    O     O_R   0.319640 0.618740 0.499990 -0.483457
O2    O     O_R   0.150428 0.138503 0.531627 -0.669185
O3    O     O_2   0.796549 0.722041 0.348329 -0.500430
O4    O     O_R   0.842118 0.858118 0.468008 -0.646352
O5    O     O_2   0.899889 0.141258 0.531210 -0.477534
O6    O     O_R   0.819782 0.222624 0.395585 -0.664898
O7    O     O_2   0.165536 0.811209 0.545432 -0.478316
O8    O     O_R   0.082755 0.848976 0.403340 -0.687967
O9    O     O_R   0.680360 0.381260 0.500010 -0.494754
O10   O     O_R   0.680360 0.618740 0.500010 -0.505537
O11   O     O_R   0.319640 0.381260 0.499990 -0.498466
O12   O     O_R   0.499990 0.618780 0.371460 -0.515933
O13   O     O_R   0.500010 0.381220 0.628540 -0.515501
O14   O     O_R   0.500010 0.618780 0.628540 -0.506798
O15   O     O_R   0.499990 0.381220 0.371460 -0.519274
O16   O     O_2   0.184479 0.284345 0.647529 -0.520754

loop_
_geom_bond_atom_site_label_1
_geom_bond_atom_site_label_2
_ccdc_geom_bond_type
Cu1   O12   S    
C8    C13   A    
C5    H1    S    
C2    C18   A    
H14   O2    S    
C31   N1    A    
C28   O7    D    
C29   O14   A    
C20   C30   S    
C7    C11   A    
C21   C31   S    
C6    H12   S    
Cu2   O15   S    
C3    C18   A    
C5    C16   A    
C27   O6    S    
C4    C19   A    
C11   C15   A    
C22   H8    S    
Cu1   Cu2   S    
C16   C17   S    
C7    C17   A    
C20   H24   S    
C11   H22   S    
H16   O6    S    
Cu2   O9    S    
C25   C34   S    
C12   O10   A    
C8    C16   A    
C13   C14   A    
C26   O3    D    
Cu2   N2    S    
H17   O8    S    
C1    O1    A    
C8    H19   S    
C4    C28   S    
C15   C29   S    
Cu1   O14   S    
C1    C19   S    
C25   O16   D    
C26   O4    S    
C10   H21   S    
Cu1   N1    S    
C20   H3    S    
C3    C34   A    
H15   O4    S    
C14   C23   S    
C2    C4    A    
C9    C14   A    
C5    C9    A    
Cu2   O13   S    
C20   H2    S    
C31   C32   A    
C2    C26   S    
C9    H20   S    
C23   O15   A    
C22   C32   S    
C21   H5    S    
C12   O9    A    
Cu1   O10   S    
C30   N2    A    
C23   O12   A    
C24   H13   S    
C6    C17   A    
C30   C33   A    
C24   H11   S    
C28   O8    S    
C19   C34   A    
C6    C10   A    
C29   O13   A    
C24   C33   S    
C10   C15   A    
C24   H10   S    
C3    C27   S    
C1    O11   A    
C21   H4    S    
C27   O5    D    
Cu2   O11   S    
C32   N2    A    
C21   H6    S    
C22   H9    S    
C33   N1    A    
C12   C18   S    
Cu1   O1    S    
C7    H18   S    
C13   H23   S    
C25   O2    S    
C22   H7    S    
