data_mof_unit_8941.cif
_audit_creation_date              2012-12-10T22:11:11-0500
_audit_creation_method            fapswitch 2.2
_symmetry_space_group_name_H-M    P1
_symmetry_Int_Tables_number       1
_space_group_crystal_system       triclinic
_cell_length_a                    12.116225
_cell_length_b                    12.327387
_cell_length_c                    23.078372
_cell_angle_alpha                 90.335591
_cell_angle_beta                  91.022653
_cell_angle_gamma                 91.909878
_cell_volume                      3444.4824113

loop_
_atom_site_label
_atom_site_type_symbol
_atom_type_description
_atom_site_fract_x
_atom_site_fract_y
_atom_site_fract_z
_atom_type_partial_charge
C1    C     C_R   0.657485 0.998780 0.579119 0.862727
C2    C     C_R   0.342514 0.001220 0.420881 0.862725
C3    C     C_R   0.894489 0.765609 0.147071 -0.242638
C4    C     C_R   0.105510 0.234393 0.852928 -0.242633
C5    C     C_R   0.081772 0.891007 0.174769 -0.247059
C6    C     C_R   0.918228 0.108992 0.825231 -0.247059
C7    C     C_R   0.086416 0.815095 0.131001 0.392352
C8    C     C_R   0.913585 0.184903 0.869000 0.392351
C9    C     C_R   0.903416 0.128452 0.176806 -0.188979
C10   C     C_R   0.096583 0.871552 0.823196 -0.188981
C11   C     C_R   0.901746 0.211158 0.136993 -0.156741
C12   C     C_R   0.098253 0.788845 0.863009 -0.156741
C13   C     C_R   0.147688 0.906972 0.302507 -0.162392
C14   C     C_R   0.852309 0.093027 0.697495 -0.162391
C15   C     C_R   0.230274 0.906777 0.344724 -0.153822
C16   C     C_R   0.769724 0.093222 0.655277 -0.153822
C17   C     C_R   0.840652 0.101422 0.302231 -0.257376
C18   C     C_R   0.159353 0.898580 0.697772 -0.257375
C19   C     C_R   0.758022 0.101393 0.342787 0.402317
C20   C     C_R   0.241984 0.898610 0.657215 0.402314
C21   C     C_3   0.993009 0.005063 0.248602 -0.059178
C22   C     C_3   0.006990 0.994938 0.751398 -0.059178
C23   C     C_R   0.653383 0.003113 0.420184 0.899821
C24   C     C_R   0.346617 0.996887 0.579816 0.899822
C25   C     C_R   0.090705 0.002539 0.291013 0.168314
C26   C     C_R   0.909295 0.997461 0.708987 0.168313
C27   C     C_R   0.255362 0.000888 0.377170 -0.025959
C28   C     C_R   0.744637 0.999112 0.622830 -0.025957
C29   C     C_R   0.898154 0.006677 0.290730 0.060792
C30   C     C_R   0.101846 0.993323 0.709270 0.060799
C31   C     C_R   0.736904 0.007161 0.375884 -0.119039
C32   C     C_R   0.263096 0.992839 0.624116 -0.119035
C33   C     C_R   0.000475 0.104202 0.208293 0.001358
C34   C     C_R   0.999524 0.895799 0.791708 0.001357
C35   C     C_R   0.998464 0.270132 0.125475 -0.108386
C36   C     C_R   0.001536 0.729869 0.874525 -0.108386
C37   C     C_R   0.984878 0.908036 0.206126 0.027436
C38   C     C_R   0.015122 0.091965 0.793873 0.027433
C39   C     C_R   0.992514 0.749614 0.117833 -0.171371
C40   C     C_R   0.007486 0.250386 0.882167 -0.171371
C41   C     C_R   0.993802 0.663126 0.074715 0.911545
C42   C     C_R   0.006198 0.336874 0.925286 0.911546
C43   C     C_R   0.998709 0.352746 0.081229 0.886041
C44   C     C_R   0.001291 0.647254 0.918771 0.886041
C45   C     C_R   0.112990 0.094761 0.326431 -0.074679
C46   C     C_R   0.887011 0.905240 0.673568 -0.074680
C47   C     C_R   0.195756 0.094510 0.368275 -0.142612
C48   C     C_R   0.804245 0.905490 0.631725 -0.142611
C49   C     C_R   0.878916 0.914954 0.325641 -0.146483
C50   C     C_R   0.121079 0.085043 0.674356 -0.146492
C51   C     C_R   0.798698 0.914894 0.367233 -0.255887
C52   C     C_R   0.201296 0.085103 0.632764 -0.255891
C53   C     C_R   0.100644 0.162300 0.193680 0.374109
C54   C     C_R   0.899357 0.837699 0.806319 0.374108
C55   C     C_R   0.096905 0.245917 0.153923 -0.187310
C56   C     C_R   0.903096 0.754082 0.846076 -0.187310
C57   C     C_R   0.886399 0.846428 0.189157 0.213551
C58   C     C_R   0.113599 0.153576 0.810841 0.213547
H1    H     H_    0.212205 0.167258 0.393977 0.159965
H2    H     H_    0.787798 0.832744 0.606021 0.159964
H3    H     H_    0.925622 0.842396 0.319925 0.151678
H4    H     H_    0.074370 0.157600 0.680069 0.151679
H5    H     H_    0.156113 0.938723 0.183968 0.237456
H6    H     H_    0.843888 0.061274 0.816034 0.237454
H7    H     H_    0.827097 0.083419 0.182968 0.174806
H8    H     H_    0.172901 0.916588 0.817036 0.174805
H9    H     H_    0.127264 0.831331 0.280309 0.141942
H10   H     H_    0.872731 0.168668 0.719693 0.141943
H11   H     H_    0.860065 0.177040 0.280719 0.183523
H12   H     H_    0.139944 0.822963 0.719285 0.183524
H13   H     H_    0.785705 0.842420 0.392889 0.182942
H14   H     H_    0.214286 0.157575 0.607105 0.182940
H15   H     H_    0.172939 0.289930 0.143658 0.205628
H16   H     H_    0.827062 0.710067 0.856340 0.205628
H17   H     H_    0.822024 0.714880 0.136401 0.192388
H18   H     H_    0.177974 0.285124 0.863597 0.192385
H19   H     H_    0.825005 0.226950 0.114248 0.191962
H20   H     H_    0.174993 0.773055 0.885755 0.191962
H21   H     H_    0.274083 0.832794 0.352103 0.165076
H22   H     H_    0.725913 0.167204 0.647899 0.165076
H23   H     H_    0.066930 0.167858 0.320763 0.134854
H24   H     H_    0.933073 0.832144 0.679235 0.134855
O1    O     O_R   0.621380 0.090460 0.561410 -0.631189
O2    O     O_R   0.378620 0.909540 0.438590 -0.631189
O3    O     O_R   0.617150 0.909540 0.438590 -0.638425
O4    O     O_R   0.382850 0.090460 0.561410 -0.638424
O5    O     O_R   0.619720 0.093230 0.440890 -0.559644
O6    O     O_R   0.380280 0.906770 0.559110 -0.559646
O7    O     O_R   0.618800 0.906770 0.559110 -0.610196
O8    O     O_R   0.381200 0.093230 0.440890 -0.610198
O9    O     O_R   0.087590 0.627480 0.058790 -0.563242
O10   O     O_R   0.912410 0.372520 0.941210 -0.563243
O11   O     O_R   0.905660 0.383870 0.059980 -0.615857
O12   O     O_R   0.094340 0.616130 0.940020 -0.615858
O13   O     O_R   0.092570 0.390420 0.063230 -0.624083
O14   O     O_R   0.907430 0.609580 0.936770 -0.624083
O15   O     O_R   0.900680 0.620930 0.055550 -0.633915
O16   O     O_R   0.099320 0.379070 0.944450 -0.633915
Zn1   Zn    Zn3+2 0.501730 0.123520 0.501540 1.036451
Zn2   Zn    Zn3+2 0.498270 0.876480 0.498460 1.036450
Zn3   Zn    Zn3+2 0.125690 0.504390 0.002180 1.047728
Zn4   Zn    Zn3+2 0.874310 0.495610 0.997820 1.047727
Cl1   Cl    Cl    0.236805 0.132497 0.216077 -0.607061
Cl2   Cl    Cl    0.763195 0.867500 0.783922 -0.607057
C59   C     C_3   0.770453 0.859351 0.211544 -0.841301
H25   H     H_    0.707578 0.834416 0.177972 0.244247
H26   H     H_    0.756541 0.805427 0.249181 0.246955
H27   H     H_    0.749959 0.943257 0.222191 0.246517
C60   C     C_3   0.229544 0.140657 0.788451 -0.841291
H28   H     H_    0.292424 0.165610 0.822017 0.244242
H29   H     H_    0.250043 0.056748 0.777812 0.246516
H30   H     H_    0.243445 0.194569 0.750808 0.246955
Cl3   Cl    Cl    0.211603 0.810725 0.093100 -0.546507
Cl4   Cl    Cl    0.788399 0.189270 0.906903 -0.546507
Cl5   Cl    Cl    0.683179 0.221420 0.348317 -0.573145
Cl6   Cl    Cl    0.316834 0.778586 0.651689 -0.573142

loop_
_geom_bond_atom_site_label_1
_geom_bond_atom_site_label_2
_ccdc_geom_bond_type
C16   C28   A    
C57   C59   S    
C17   H11   S    
C5    C37   A    
C58   C60   S    
C17   C29   A    
C2    O2    A    
C19   C31   A    
C39   C41   S    
C29   C49   A    
C59   H26   S    
C36   C56   A    
C54   Cl2   S    
O14   Zn4   S    
C60   H29   S    
C20   C32   A    
C21   C33   S    
C22   C38   S    
C5    H5    S    
C45   C47   A    
C6    H6    S    
C50   C52   A    
C2    O8    A    
C32   C52   A    
C11   H19   S    
C17   C19   A    
C46   H24   S    
C15   H21   S    
C4    C40   A    
O12   Zn3   S    
C49   C51   A    
C12   H20   S    
C1    C28   S    
C43   O13   A    
C6    C38   A    
C2    C27   S    
C18   C30   A    
C14   C16   A    
C12   C36   A    
C3    H17   S    
C42   O10   A    
O15   Zn4   S    
O10   Zn4   S    
C10   H8    S    
C30   C50   A    
C3    C39   A    
C23   O5    A    
C9    C33   A    
C13   C25   A    
C51   H13   S    
O9    Zn3   S    
C48   H2    S    
C46   C48   A    
C53   C55   A    
C33   C53   A    
C22   C34   S    
C59   H27   S    
C54   C56   A    
C56   H16   S    
O7    Zn2   S    
C35   C55   A    
O2    Zn2   S    
C49   H3    S    
C60   H30   S    
C5    C7    A    
C6    C8    A    
C21   C29   S    
C16   H22   S    
C23   C31   S    
C24   C32   S    
C52   H14   S    
C24   O6    A    
C15   C27   A    
C19   Cl5   S    
C10   C34   A    
C38   C58   A    
C14   C26   A    
O4    Zn1   S    
C9    C11   A    
O6    Zn2   S    
C10   C12   A    
C3    C57   A    
C41   O9    A    
C34   C54   A    
C13   C15   A    
C23   O3    A    
C50   H4    S    
C41   O15   A    
C36   C44   S    
C25   C45   A    
O8    Zn1   S    
C35   C43   S    
C20   Cl6   S    
C13   H9    S    
C27   C47   A    
C21   C25   S    
C28   C48   A    
C1    O7    A    
C44   O14   A    
C22   C30   S    
C45   H23   S    
C31   C51   A    
C40   C42   S    
O11   Zn4   S    
C8    Cl4   S    
C1    O1    A    
O16   Zn3   S    
C59   H25   S    
C18   H12   S    
C7    Cl3   S    
C42   O16   A    
O3    Zn2   S    
C60   H28   S    
C53   Cl1   S    
C11   C35   A    
C43   O11   A    
C18   C20   A    
C14   H10   S    
C9    H7    S    
C4    H18   S    
C44   O12   A    
C26   C46   A    
C47   H1    S    
C55   H15   S    
O5    Zn1   S    
C21   C37   S    
C22   C26   S    
C4    C58   A    
C7    C39   A    
O1    Zn1   S    
C8    C40   A    
C24   O4    A    
C37   C57   A    
O13   Zn3   S    
