data_mof_unit_49533.cif
_audit_creation_date              2012-12-11T15:39:29-0500
_audit_creation_method            fapswitch 2.2
_symmetry_space_group_name_H-M    P1
_symmetry_Int_Tables_number       1
_space_group_crystal_system       triclinic
_cell_length_a                    14.320481
_cell_length_b                    14.768349
_cell_length_c                    33.021683
_cell_angle_alpha                 97.243715
_cell_angle_beta                  90.790228
_cell_angle_gamma                 118.751266
_cell_volume                      6051.60996138

loop_
_atom_site_label
_atom_site_type_symbol
_atom_type_description
_atom_site_fract_x
_atom_site_fract_y
_atom_site_fract_z
_atom_type_partial_charge
C1    C     C_R   0.618618 0.908558 0.437542 0.562304
C2    C     C_R   0.711352 0.435334 0.949505 0.588660
C3    C     C_R   0.531170 0.819124 0.777378 0.124749
C4    C     C_R   0.537465 0.830128 0.735860 -0.107642
C5    C     C_R   0.563824 0.767406 0.708202 -0.011670
C6    C     C_R   0.563902 0.679323 0.720716 0.230076
C7    C     C_R   0.553236 0.664721 0.762210 0.145465
C8    C     C_R   0.544717 0.739074 0.790933 0.025146
C9    C     C_R   0.538795 0.727893 0.631830 -0.033563
C10   C     C_R   0.560525 0.756310 0.592507 0.133450
C11   C     C_R   0.693683 0.932307 0.624192 0.122672
C12   C     C_3   0.470888 0.370958 0.098268 -0.216169
C13   C     C_R   0.709970 0.740641 0.950254 0.537861
C14   C     C_3   0.471398 0.356302 0.434425 -0.215915
C15   C     C_3   0.093196 0.580357 0.103802 -0.153278
C16   C     C_3   0.309717 0.725820 0.285204 -0.212400
C17   C     C_3   0.202225 0.113683 0.203962 -0.247216
C18   C     C_3   0.094561 0.045626 0.100537 -0.197019
C19   C     C_3   0.931344 0.997968 0.216619 -0.250808
C20   C     C_3   0.433392 0.696110 0.189314 -0.234833
C21   C     C_3   0.869101 0.228182 0.348270 -0.171951
C22   C     C_3   0.844759 0.236200 0.811546 -0.274493
C23   C     C_3   0.916822 0.417629 0.711474 -0.214044
C24   C     C_R   0.785252 0.339423 0.145189 0.217019
C25   C     C_3   0.369317 0.219285 0.618600 -0.217876
C26   C     C_3   0.479420 0.417767 0.898463 -0.226893
C27   C     C_3   0.172348 0.602529 0.913011 -0.244637
C28   C     C_3   0.866469 0.712682 0.684770 -0.245535
C29   C     C_3   0.123293 0.054084 0.674623 -0.293677
C30   C     C_3   0.066994 0.909309 0.538159 -0.265581
C31   C     C_3   0.458406 0.695051 0.962429 -0.261909
C32   C     C_3   0.643060 0.070832 0.192881 -0.239813
C33   C     C_3   0.822310 0.943957 0.714606 -0.301334
C34   C     C_3   0.595050 0.997613 0.810349 -0.258790
C35   C     C_R   0.786038 0.374239 0.107481 0.201810
C36   C     C_3   0.651808 0.581427 0.784434 -0.216498
C37   C     C_3   0.461039 0.570275 0.559170 -0.259293
C38   C     C_3   0.872346 0.052224 0.609566 -0.249160
C39   C     C_3   0.762872 0.565298 0.325487 -0.256059
C40   C     C_3   0.955205 0.553982 0.226038 -0.273326
C41   C     C_R   0.670169 0.235619 0.230221 0.181754
C42   C     C_R   0.665693 0.231385 0.272404 0.274612
C43   C     C_R   0.717615 0.324144 0.300882 0.016089
C44   C     C_R   0.777827 0.421574 0.287554 0.125085
C45   C     C_R   0.786452 0.425583 0.245472 0.187393
C46   C     C_R   0.730226 0.333436 0.216923 0.070154
C47   C     C_R   0.717034 0.345932 0.174128 -0.004533
C48   C     C_R   0.600131 0.309649 0.356830 0.277548
C49   C     C_R   0.594576 0.206715 0.456573 0.557559
C50   C     C_R   0.569472 0.284666 0.395695 0.094117
C51   C     C_R   0.742391 0.296629 0.411874 0.229324
C52   C     C_R   0.770260 0.315713 0.372097 0.111435
C53   C     C_R   0.697413 0.319362 0.344273 -0.007235
C54   C     C_R   0.637048 0.268591 0.422437 -0.049044
C55   C     C_R   0.237947 0.878174 0.393545 -0.041434
C56   C     C_R   0.222281 0.959188 0.381358 0.202663
C57   C     C_R   0.214618 0.967313 0.339477 0.266977
C58   C     C_R   0.678287 0.899374 0.663051 0.133223
C59   C     C_R   0.216809 0.891992 0.309555 -0.027949
C60   C     C_R   0.214602 0.802575 0.321684 0.101258
C61   C     C_R   0.292398 0.892024 0.434702 0.575487
C62   C     C_R   0.220263 0.793851 0.363373 0.229301
C63   C     C_R   0.189886 0.795582 0.164006 0.233404
C64   C     C_R   0.161182 0.769709 0.121882 0.135860
C65   C     C_R   0.165296 0.935884 0.120747 0.119907
C66   C     C_R   0.204204 0.965643 0.162898 0.121362
C67   C     C_R   0.203467 0.889774 0.185284 -0.015971
C68   C     C_1   0.214900 0.904428 0.229777 0.058593
C69   C     C_R   0.594658 0.798582 0.667168 0.012169
C70   C     C_1   0.217512 0.903411 0.266399 0.087481
C71   C     C_R   0.131588 0.832408 0.101384 -0.049819
C72   C     C_R   0.645278 0.872165 0.397258 -0.014771
C73   C     C_R   0.613906 0.904689 0.552001 0.538030
C74   C     C_R   0.565292 0.787010 0.369841 0.176846
C75   C     C_R   0.580279 0.775890 0.328224 -0.139866
C76   C     C_R   0.675099 0.845524 0.313472 -0.034130
C77   C     C_R   0.761467 0.919229 0.340919 0.255886
C78   C     C_R   0.747750 0.931521 0.382962 0.214671
C79   C     C_R   0.767630 0.923520 0.173431 0.095020
C80   C     C_R   0.629132 0.863015 0.589078 0.003932
C81   C     C_R   0.773079 0.916323 0.130573 0.178715
C82   C     C_R   0.614038 0.745493 0.121383 0.193632
C83   C     C_R   0.606211 0.753857 0.163918 0.114872
C84   C     C_R   0.686541 0.839823 0.189884 0.000968
C85   C     C_R   0.591775 0.202845 0.570540 0.563376
C86   C     C_1   0.683901 0.842205 0.233600 0.065355
C87   C     C_1   0.680773 0.843006 0.269998 0.055297
C88   C     C_R   0.705539 0.820965 0.105109 0.004841
C89   C     C_R   0.629666 0.261591 0.613101 -0.033888
C90   C     C_R   0.560431 0.285865 0.636871 0.117032
C91   C     C_R   0.057015 0.782658 0.062919 0.530771
C92   C     C_R   0.576142 0.302876 0.679802 0.265195
C93   C     C_R   0.663777 0.302703 0.699086 -0.002728
C94   C     C_R   0.743394 0.298369 0.675902 0.100900
C95   C     C_R   0.726981 0.278888 0.632718 0.197024
C96   C     C_R   0.763094 0.330746 0.846958 0.112619
C97   C     C_R   0.290821 0.887002 0.549259 0.574002
C98   C     C_R   0.767134 0.352148 0.889959 0.181618
C99   C     C_R   0.589337 0.335515 0.884560 0.093581
C100  C     C_R   0.582040 0.305121 0.841941 0.220230
C101  C     C_R   0.671921 0.312036 0.823113 0.000503
C102  C     C_R   0.741391 0.481477 0.065023 0.585586
C103  C     C_1   0.672645 0.307302 0.779315 0.105507
C104  C     C_1   0.670715 0.305582 0.742811 0.099343
C105  C     C_R   0.686244 0.368009 0.908573 0.002500
C106  C     C_R   0.082695 0.767019 0.911005 -0.018495
C107  C     C_R   0.111906 0.867872 0.901389 0.193515
C108  C     C_R   0.131351 0.887801 0.861594 -0.084414
C109  C     C_R   0.723833 0.422293 0.099994 -0.032706
C110  C     C_R   0.130490 0.812159 0.831662 0.035293
C111  C     C_R   0.123409 0.720329 0.842518 0.322963
C112  C     C_R   0.097931 0.696226 0.881997 0.109034
C113  C     C_R   0.740188 0.789955 0.065720 0.585065
C114  C     C_R   0.219063 0.907310 0.774519 0.226103
C115  C     C_R   0.218955 0.917771 0.733399 -0.115293
C116  C     C_R   0.130991 0.847983 0.705874 -0.031055
C117  C     C_R   0.039020 0.768774 0.719803 0.169583
C118  C     C_R   0.037294 0.760583 0.761661 0.266489
C119  C     C_R   0.129139 0.827211 0.788700 0.040447
C120  C     C_R   0.129812 0.904768 0.637314 0.151327
C121  C     C_R   0.645917 0.416177 0.127337 0.093481
C122  C     C_R   0.168286 0.912029 0.597863 0.096087
C123  C     C_R   0.237395 0.794024 0.610193 0.200648
C124  C     C_R   0.024493 0.734364 0.947898 0.558056
C125  C     C_R   0.198175 0.786944 0.648223 -0.128299
C126  C     C_R   0.149317 0.844816 0.662540 -0.016193
C127  C     C_R   0.228481 0.861590 0.585355 0.026173
C128  C     C_R   0.658353 0.749389 0.912767 0.040273
C129  C     C_R   0.546925 0.689346 0.901151 0.113437
C130  C     C_R   0.508124 0.686625 0.861231 -0.086521
C131  C     C_R   0.577821 0.748315 0.834408 0.016969
C132  C     C_R   0.685191 0.815678 0.847773 -0.138778
C133  C     C_R   0.643239 0.378199 0.164295 0.201114
C134  C     C_R   0.725259 0.815414 0.886198 -0.139258
Cl1   Cl    Cl    0.873725 0.292773 0.156936 -0.551962
Cl2   Cl    Cl    0.861417 0.019632 0.416847 -0.435877
Cl3   Cl    Cl    0.445214 0.690774 0.385505 -0.497333
Cl4   Cl    Cl    0.504624 0.643723 0.088909 -0.625456
Cl5   Cl    Cl    0.870671 0.352001 0.919883 -0.577521
Cl6   Cl    Cl    0.832496 0.284670 0.603879 -0.570286
Cl7   Cl    Cl    0.461991 0.264697 0.811587 -0.522206
Cl8   Cl    Cl    0.484827 0.324150 0.709522 -0.534168
Cl9   Cl    Cl    0.123792 0.972734 0.937475 -0.567139
Cl10  Cl    Cl    0.584191 0.110299 0.289481 -0.597288
Cl11  Cl    Cl    0.336570 0.990385 0.806710 -0.552935
Cl12  Cl    Cl    0.843177 0.310996 0.447978 -0.449945
Cl13  Cl    Cl    0.921490 0.662764 0.779597 -0.663426
Cl14  Cl    Cl    0.140213 0.631861 0.806026 -0.561181
Cl15  Cl    Cl    0.304697 0.721953 0.597898 -0.569547
Cl16  Cl    Cl    0.584808 0.591041 0.685816 -0.659036
Cl17  Cl    Cl    0.549810 0.375571 0.199541 -0.592190
Cl18  Cl    Cl    0.510766 0.319953 0.322463 -0.447019
Cl19  Cl    Cl    0.214453 0.710451 0.189442 -0.750287
Cl20  Cl    Cl    0.197015 0.672670 0.376636 -0.443384
Cl21  Cl    Cl    0.203902 0.046596 0.417874 -0.476644
Cl22  Cl    Cl    0.859691 0.350400 0.069105 -0.485017
Cl23  Cl    Cl    0.204722 0.073457 0.324568 -0.422502
Cl24  Cl    Cl    0.858708 0.028284 0.108993 -0.562578
Cl25  Cl    Cl    0.886334 0.997839 0.322529 -0.535779
Cr1   Cr    Cr6+3 0.424820 0.846020 0.489780 1.167157
Cr2   Cr    Cr6+3 0.657880 0.078580 0.505700 1.176744
Cr3   Cr    Cr6+3 0.417280 0.075360 0.504550 1.058075
Cr4   Cr    Cr6+3 0.903360 0.812540 0.006510 1.100526
Cr5   Cr    Cr6+3 0.914630 0.587050 0.006280 1.093927
Cr6   Cr    Cr6+3 0.673560 0.582680 0.008540 1.091051
H1    H     H_    0.516373 0.714235 0.307061 0.160320
H2    H     H_    0.565020 0.498194 0.142730 0.294629
H3    H     H_    0.388888 0.546332 0.576398 0.203463
H4    H     H_    0.519013 0.552275 0.574051 0.151691
H5    H     H_    0.775633 0.091531 0.645357 0.282519
H6    H     H_    0.913680 0.038930 0.634905 0.122884
H7    H     H_    0.922444 0.133506 0.603521 0.200309
H8    H     H_    0.863090 0.997902 0.581344 0.153743
H9    H     H_    0.867014 0.513390 0.341817 0.273486
H10   H     H_    0.706079 0.525468 0.348070 0.175554
H11   H     H_    0.717265 0.563130 0.297543 0.195781
H12   H     H_    0.815177 0.648206 0.339112 0.166072
H13   H     H_    0.421558 0.406410 0.090103 0.190034
H14   H     H_    0.835718 0.583517 0.246840 0.281707
H15   H     H_    0.995102 0.631800 0.215821 0.166967
H16   H     H_    0.961472 0.497245 0.202440 0.216152
H17   H     H_    0.996301 0.557923 0.255495 0.188075
H18   H     H_    0.427088 0.312684 0.118825 0.183135
H19   H     H_    0.482910 0.330802 0.069666 0.168443
H20   H     H_    0.412773 0.197739 0.410506 0.327337
H21   H     H_    0.510636 0.362813 0.464706 0.131706
H22   H     H_    0.388658 0.341532 0.438487 0.198637
H23   H     H_    0.515834 0.431262 0.422215 0.175410
H24   H     H_    0.201523 0.697179 0.071478 0.263582
H25   H     H_    0.054180 0.536650 0.073090 0.194942
H26   H     H_    0.210803 0.739630 0.667943 0.176462
H27   H     H_    0.030724 0.578358 0.123917 0.175249
H28   H     H_    0.133072 0.540651 0.116740 0.211618
H29   H     H_    0.161399 0.706330 0.265885 0.285578
H30   H     H_    0.359838 0.794389 0.269926 0.168906
H31   H     H_    0.296228 0.653310 0.265510 0.180327
H32   H     H_    0.352782 0.732521 0.314531 0.213198
H33   H     H_    0.333775 0.093601 0.195488 0.297763
H34   H     H_    0.166511 0.067296 0.229009 0.172797
H35   H     H_    0.139311 0.113458 0.184137 0.145704
H36   H     H_    0.256782 0.195992 0.217819 0.216319
H37   H     H_    0.290819 0.976192 0.722217 0.171494
H38   H     H_    0.193599 0.002729 0.067189 0.266152
H39   H     H_    0.134092 0.131316 0.110495 0.181863
H40   H     H_    0.037322 0.005441 0.122978 0.174531
H41   H     H_    0.048995 0.027157 0.070379 0.204267
H42   H     H_    0.873795 0.082648 0.189550 0.318933
H43   H     H_    0.989978 0.070541 0.236685 0.194465
H44   H     H_    0.971787 0.978678 0.191251 0.123767
H45   H     H_    0.899849 0.933238 0.235100 0.199961
H46   H     H_    0.492489 0.599465 0.165925 0.296863
H47   H     H_    0.398499 0.702830 0.160314 0.236140
H48   H     H_    0.143418 0.961434 0.853578 0.189095
H49   H     H_    0.462424 0.769881 0.211049 0.161480
H50   H     H_    0.370295 0.631278 0.203127 0.183363
H51   H     H_    0.905103 0.377047 0.339206 0.260388
H52   H     H_    0.816950 0.185402 0.319516 0.163459
H53   H     H_    0.840096 0.178645 0.372837 0.238626
H54   H     H_    0.951534 0.243513 0.343074 0.217260
H55   H     H_    0.926648 0.387331 0.843264 0.314876
H56   H     H_    0.775160 0.191298 0.788465 0.137817
H57   H     H_    0.836518 0.190596 0.836862 0.173569
H58   H     H_    0.917739 0.248841 0.796245 0.162030
H59   H     H_    0.810434 0.863764 0.894230 0.169966
H60   H     H_    0.871012 0.268424 0.681483 0.284855
H61   H     H_    0.947488 0.462125 0.685497 0.190693
H62   H     H_    0.984667 0.419286 0.728875 0.186904
H63   H     H_    0.881739 0.455834 0.732400 0.223291
H64   H     H_    0.496870 0.334653 0.591867 0.261954
H65   H     H_    0.333674 0.182090 0.586847 0.156313
H66   H     H_    0.322831 0.255460 0.632574 0.177529
H67   H     H_    0.362964 0.157603 0.636350 0.165336
H68   H     H_    0.430934 0.260450 0.897061 0.308226
H69   H     H_    0.439699 0.405735 0.867677 0.186723
H70   H     H_    0.527044 0.891561 0.725363 0.141710
H71   H     H_    0.555235 0.493259 0.902655 0.180653
H72   H     H_    0.426050 0.421776 0.921813 0.166130
H73   H     H_    0.008719 0.549728 0.899669 0.308888
H74   H     H_    0.154967 0.522054 0.916160 0.176139
H75   H     H_    0.187583 0.648366 0.944057 0.147499
H76   H     H_    0.245154 0.638857 0.896215 0.163173
H77   H     H_    0.975816 0.666622 0.664960 0.260040
H78   H     H_    0.800079 0.644013 0.665487 0.203687
H79   H     H_    0.836217 0.728050 0.714190 0.195570
H80   H     H_    0.893495 0.780929 0.668342 0.145736
H81   H     H_    0.424223 0.636682 0.851095 0.137800
H82   H     H_    0.011639 0.944860 0.628396 0.241048
H83   H     H_    0.065221 0.076107 0.688174 0.145999
H84   H     H_    0.171677 0.112212 0.654857 0.133064
H85   H     H_    0.176204 0.056263 0.699967 0.192671
H86   H     H_    0.142249 0.033678 0.585438 0.245617
H87   H     H_    0.988323 0.865960 0.550666 0.130910
H88   H     H_    0.085992 0.853063 0.519580 0.173324
H89   H     H_    0.061848 0.961353 0.517770 0.189852
H90   H     H_    0.401856 0.572046 0.914832 0.234718
H91   H     H_    0.403147 0.643816 0.983089 0.171661
H92   H     H_    0.476181 0.650895 0.635368 0.190378
H93   H     H_    0.422964 0.739849 0.950437 0.131394
H94   H     H_    0.535244 0.750164 0.980653 0.183269
H95   H     H_    0.571669 0.155475 0.176065 0.268328
H96   H     H_    0.708355 0.101013 0.172320 0.209848
H97   H     H_    0.577524 0.995045 0.177147 0.158367
H98   H     H_    0.672931 0.056701 0.221316 0.204596
H99   H     H_    0.709468 0.995005 0.719266 0.241688
H100  H     H_    0.780777 0.873596 0.729828 0.148205
H101  H     H_    0.879504 0.010094 0.737713 0.144850
H102  H     H_    0.868158 0.929734 0.690179 0.163723
H103  H     H_    0.739651 0.864015 0.827306 0.118834
H104  H     H_    0.485234 0.864005 0.832708 0.278530
H105  H     H_    0.573511 0.045209 0.833056 0.202946
H106  H     H_    0.603542 0.028774 0.780953 0.147654
H107  H     H_    0.672400 0.005304 0.821566 0.119137
H108  H     H_    0.496501 0.505933 0.757351 0.343872
H109  H     H_    0.639485 0.512036 0.798179 0.185665
H110  H     H_    0.703855 0.652302 0.806614 0.169250
H111  H     H_    0.692375 0.582767 0.755964 0.233417
H112  H     H_    0.552893 0.699422 0.530758 0.250000
H113  H     H_    0.434638 0.524029 0.527970 0.148978
N1    N     N_2   0.572702 0.451892 0.118469 -0.448949
N2    N     N_2   0.853618 0.336054 0.827481 -0.472264
N3    N     N_2   0.838054 0.310487 0.696350 -0.526963
N4    N     N_2   0.479140 0.300061 0.618022 -0.440304
N5    N     N_2   0.499134 0.332232 0.903377 -0.466612
N6    N     N_2   0.082548 0.598302 0.890582 -0.459051
N7    N     N_2   0.953015 0.690989 0.691807 -0.476726
N8    N     N_2   0.066059 0.950922 0.650769 -0.538629
N9    N     N_2   0.149311 0.971366 0.571183 -0.518027
N10   N     N_2   0.473850 0.631598 0.928935 -0.526193
N11   N     N_2   0.603145 0.143755 0.201895 -0.462022
N12   N     N_2   0.468178 0.271723 0.406007 -0.418712
N13   N     N_2   0.746474 0.970235 0.697571 -0.530589
N14   N     N_2   0.512282 0.889363 0.805325 -0.454333
N15   N     N_2   0.549418 0.574910 0.775463 -0.493818
N16   N     N_2   0.510498 0.680690 0.556242 -0.457075
N17   N     N_2   0.769384 0.037549 0.620923 -0.449699
N18   N     N_2   0.828154 0.516341 0.315952 -0.523889
N19   N     N_2   0.844619 0.523605 0.231211 -0.511059
N20   N     N_2   0.172559 0.686329 0.099917 -0.470663
N21   N     N_2   0.207875 0.720372 0.292283 -0.457816
N22   N     N_2   0.261668 0.073478 0.180090 -0.470388
N23   N     N_2   0.174939 0.013265 0.096865 -0.494930
N24   N     N_2   0.845989 0.012364 0.200300 -0.500507
N25   N     N_2   0.519601 0.674084 0.181053 -0.506154
N26   N     N_2   0.869858 0.326302 0.359946 -0.462112
O1    O     O_R   0.318160 0.824460 0.443680 -0.421047
O2    O     O_R   0.668160 0.499860 0.053480 -0.464500
O3    O     O_R   0.689170 0.693840 0.050110 -0.447210
O4    O     O_R   0.525040 0.857250 0.449830 -0.451933
O5    O     O_R   0.803860 0.812940 0.962540 -0.494200
O6    O     O_R   0.982950 0.787950 0.964120 -0.440599
O7    O     O_R   0.007050 0.649970 0.960540 -0.515845
O8    O     O_R   0.807910 0.482370 0.965590 -0.437249
O9    O     O_R   0.643310 0.460980 0.963840 -0.493135
O10   O     O_R   0.666140 0.657800 0.967020 -0.481455
O11   O     O_3   0.830520 0.660760 0.007110 -0.286083
O12   O     O_R   0.645130 0.163230 0.552140 -0.421139
O13   O     O_R   0.684760 0.998800 0.456360 -0.448976
O14   O     O_R   0.647540 0.166310 0.470260 -0.433524
O15   O     O_R   0.500960 0.181750 0.467450 -0.521665
O16   O     O_R   0.331100 0.981120 0.457080 -0.467280
O17   O     O_R   0.315560 0.821140 0.532010 -0.433987
O18   O     O_R   0.522630 0.854180 0.531710 -0.468739
O19   O     O_R   0.682160 0.995480 0.544690 -0.461558
O20   O     O_R   0.498360 0.178430 0.555780 -0.531025
O21   O     O_R   0.328690 0.978040 0.538950 -0.484954
O22   O     O_3   0.499990 0.999990 0.500010 -0.301596
O23   O     O_R   0.828710 0.851830 0.052170 -0.466558
O24   O     O_R   0.005980 0.823990 0.047210 -0.489931
O25   O     O_R   0.031900 0.688850 0.050170 -0.516777
O26   O     O_R   0.830940 0.518420 0.048680 -0.461954

loop_
_geom_bond_atom_site_label_1
_geom_bond_atom_site_label_2
_ccdc_geom_bond_type
C61   O16   A    
C29   N8    S    
H2    N1    S    
H38   N23   S    
C31   N10   S    
C133  Cl17  S    
C114  C115  A    
C7    N15   S    
C38   H6    S    
Cr5   O7    S    
Cr6   O2    S    
C16   N21   S    
C31   H91   S    
Cr3   O15   S    
C84   C86   S    
C5    C6    A    
C57   C59   A    
C90   N4    S    
Cr5   O25   S    
Cr3   O20   S    
C55   C62   A    
C56   C57   A    
C60   C62   A    
C110  C111  A    
C40   H15   S    
Cr6   O9    S    
C1    O13   A    
C14   N12   S    
C108  H48   S    
C35   C109  A    
C37   H113  S    
C48   C50   A    
C17   N22   S    
C59   C60   A    
C101  C103  S    
C34   H107  S    
H86   N9    S    
C36   H109  S    
C27   H75   S    
C37   H3    S    
C73   O19   A    
C74   Cl3   S    
C25   H65   S    
C51   C52   A    
C24   C35   A    
C20   H50   S    
C63   Cl19  S    
H104  N14   S    
C3    C8    A    
C10   C80   A    
Cr1   O4    S    
C45   C46   A    
H90   N10   S    
C43   C44   A    
H77   N7    S    
C90   C92   A    
C30   H88   S    
C125  H26   S    
C76   C77   A    
C17   H36   S    
C77   Cl25  S    
C58   N13   S    
Cr4   O11   S    
C134  H59   S    
C30   N9    S    
C107  Cl9   S    
C97   O21   A    
C40   H16   S    
C26   H71   S    
H33   N22   S    
C81   Cl24  S    
C121  N1    S    
C4    C5    A    
C61   O1    A    
C6    C7    A    
C83   N25   S    
C33   H101  S    
C130  C131  A    
C82   Cl4   S    
C16   H30   S    
C111  Cl14  S    
C14   H22   S    
C26   H72   S    
C109  C121  A    
Cr6   O11   S    
C66   N22   S    
C17   H34   S    
C13   O5    A    
C20   H47   S    
C81   C88   A    
H29   N21   S    
C132  C134  A    
C44   N18   S    
C106  C124  S    
C34   H105  S    
C102  C109  S    
C28   H79   S    
C36   H111  S    
C20   H49   S    
C12   H13   S    
C25   H67   S    
C19   H45   S    
C111  C112  A    
Cr3   O21   S    
C128  C129  A    
C85   O12   A    
C7    C8    A    
C11   N17   S    
Cr2   O22   S    
C118  Cl13  S    
C96   N2    S    
C37   H4    S    
C79   C84   A    
C22   N2    S    
C12   H18   S    
C115  C116  A    
C124  O7    A    
Cr2   O13   S    
C112  N6    S    
C88   C113  S    
C72   C78   A    
Cr1   O17   S    
C96   C98   A    
C107  C108  A    
C75   H1    S    
C11   C58   A    
C9    C10   A    
C114  C119  A    
Cr5   O11   S    
C32   N11   S    
C26   H69   S    
C66   C67   A    
C21   H52   S    
C15   H28   S    
C91   O25   A    
C3    N14   S    
C48   C53   A    
C1    C72   S    
H14   N19   S    
C39   H10   S    
C27   N6    S    
H24   N20   S    
C65   N23   S    
C29   H84   S    
C122  N9    S    
H55   N2    S    
C49   O15   A    
C128  C134  A    
C123  C127  A    
C83   C84   A    
C79   N24   S    
C8    C131  S    
C19   N24   S    
H108  N15   S    
Cr4   O6    S    
C76   C87   S    
H68   N5    S    
C19   H43   S    
C29   H83   S    
C117  N7    S    
C3    C4    A    
H5    N17   S    
C129  C130  A    
Cr1   O22   S    
C22   H56   S    
C114  Cl11  S    
C110  C119  S    
C38   H7    S    
Cr5   O8    S    
H51   N26   S    
C98   Cl5   S    
Cr3   O16   S    
C25   N4    S    
C117  C118  A    
Cr5   O26   S    
C82   C88   A    
C55   C61   S    
C100  C101  A    
C108  C110  A    
Cr4   O24   S    
C31   H93   S    
C32   H96   S    
C63   C64   A    
C21   H54   S    
C18   H39   S    
C13   O10   A    
C55   C56   A    
C9    H92   S    
C41   C42   A    
C23   H63   S    
C27   H74   S    
C73   O18   A    
C52   C53   A    
C22   H57   S    
C50   C54   A    
H9    N18   S    
C18   H40   S    
C40   N19   S    
C9    C69   A    
C100  Cl7   S    
C120  C126  A    
Cr1   O1    S    
C123  C125  A    
C18   N23   S    
C64   C71   A    
C5    C69   S    
C43   C53   S    
H112  N16   S    
C30   H89   S    
C124  O6    A    
H60   N3    S    
C97   C127  S    
C10   N16   S    
C96   C101  A    
C47   C133  A    
H42   N24   S    
H82   N8    S    
C102  O2    A    
C27   H76   S    
C39   H12   S    
C40   H17   S    
C23   N3    S    
Cr6   O3    S    
C67   C68   S    
C72   C74   A    
C85   C89   S    
C86   C87   T    
C51   Cl12  S    
C60   N21   S    
C33   H100  S    
H99   N13   S    
C45   N19   S    
C89   C95   A    
C32   H98   S    
C120  N8    S    
C16   H31   S    
H46   N25   S    
C14   H23   S    
Cr3   O22   S    
Cr6   O10   S    
C2    O9    A    
C46   C47   S    
C12   N1    S    
C94   N3    S    
C36   N15   S    
C48   Cl18  S    
C42   Cl10  S    
C125  C126  A    
C34   H106  S    
C42   C43   A    
C131  C132  A    
C23   H61   S    
C44   C45   A    
H95   N11   S    
C25   H66   S    
C19   H44   S    
H20   N12   S    
C58   C69   A    
C21   N26   S    
C12   H19   S    
H64   N4    S    
C92   C93   A    
C30   H87   S    
Cr2   O12   S    
C94   C95   A    
C11   C80   A    
C59   C70   S    
C6    Cl16  S    
C71   C91   S    
Cr1   O18   S    
C82   C83   A    
C103  C104  T    
C31   H94   S    
C89   C90   A    
C16   H32   S    
C15   H27   S    
C123  Cl15  S    
C37   N16   S    
C52   N26   S    
C75   C76   A    
C130  H81   S    
C106  C112  A    
C95   Cl6   S    
C98   C105  A    
C33   H102  S    
C14   H21   S    
C49   C54   S    
C115  H37   S    
C122  C127  A    
C116  C117  A    
C17   H35   S    
C118  C119  A    
C49   O14   A    
C13   C128  S    
C15   N20   S    
C41   C46   A    
C28   H78   S    
Cr4   O5    S    
C92   Cl8   S    
C36   H110  S    
C77   C78   A    
C2    O8    A    
C56   Cl21  S    
C91   O24   A    
C93   C104  S    
C33   N13   S    
C120  C122  A    
C34   N14   S    
C99   C105  A    
C63   C67   A    
C20   N25   S    
C74   C75   A    
C35   Cl22  S    
C97   O17   A    
C79   C81   A    
C38   H8    S    
C65   C71   A    
C62   Cl20  S    
Cr2   O14   S    
C85   O20   A    
C132  H103  S    
C99   C100  A    
C102  O26   A    
Cr4   O23   S    
C93   C94   A    
C106  C107  A    
C32   H97   S    
C26   N5    S    
C1    O4    A    
C24   Cl1   S    
C28   N7    S    
C15   H25   S    
C21   H53   S    
C64   N20   S    
C38   N17   S    
C4    H70   S    
C50   N12   S    
C57   Cl23  S    
C24   C47   A    
C129  N10   S    
C39   H11   S    
C23   H62   S    
C41   N11   S    
C22   H58   S    
C2    C105  S    
C18   H41   S    
C51   C54   A    
C29   H85   S    
C113  O23   A    
C113  O3    A    
C73   C80   S    
C28   H80   S    
H73   N6    S    
Cr2   O19   S    
C68   C70   T    
C65   C66   A    
C39   N18   S    
C116  C126  S    
C121  C133  A    
C78   Cl2   S    
C99   N5    S    
