data_mof_unit_12320.cif
_audit_creation_date              2012-12-11T15:06:38-0500
_audit_creation_method            fapswitch 2.2
_symmetry_space_group_name_H-M    P1
_symmetry_Int_Tables_number       1
_space_group_crystal_system       triclinic
_cell_length_a                    7.241411
_cell_length_b                    14.796806
_cell_length_c                    22.564429
_cell_angle_alpha                 90.000119
_cell_angle_beta                  90.007943
_cell_angle_gamma                 88.92402
_cell_volume                      2417.34666706

loop_
_atom_site_label
_atom_site_type_symbol
_atom_type_description
_atom_site_fract_x
_atom_site_fract_y
_atom_site_fract_z
_atom_type_partial_charge
O1    O     O_R   0.390810 0.844810 0.447340 -0.532798
O2    O     O_R   0.109190 0.155190 0.947340 -0.532804
O3    O     O_R   0.890810 0.655190 0.552660 -0.534950
O4    O     O_R   0.609190 0.344810 0.052660 -0.534936
O5    O     O_R   0.720550 0.655820 0.440420 -0.536828
O6    O     O_R   0.779450 0.344180 0.940420 -0.536829
O7    O     O_R   0.220550 0.844180 0.559580 -0.535630
O8    O     O_R   0.279450 0.155820 0.059580 -0.535627
C1    C     C_R   0.553642 0.626529 0.426183 0.676325
C2    C     C_R   0.946341 0.373473 0.926182 0.676323
C3    C     C_R   0.050772 0.873287 0.573804 0.677650
C4    C     C_R   0.449247 0.126707 0.073800 0.677637
O9    O     O_R   0.720530 0.844130 0.440420 -0.535781
O10   O     O_R   0.779470 0.155870 0.940420 -0.535776
O11   O     O_R   0.220530 0.655870 0.559580 -0.534833
O12   O     O_R   0.279470 0.344130 0.059580 -0.534833
O13   O     O_R   0.890830 0.844810 0.552660 -0.535006
O14   O     O_R   0.609170 0.155190 0.052660 -0.535003
O15   O     O_R   0.390830 0.655190 0.447340 -0.533704
O16   O     O_R   0.109170 0.344810 0.947340 -0.533711
C5    C     C_R   0.550793 0.873451 0.426317 0.674650
C6    C     C_R   0.949186 0.126549 0.926316 0.674667
C7    C     C_R   0.053705 0.626765 0.573969 0.671115
C8    C     C_R   0.446313 0.373238 0.073965 0.671126
O17   O     O_3   0.557310 0.749980 0.536820 -0.373233
O18   O     O_3   0.942690 0.250020 0.036820 -0.373221
O19   O     O_3   0.057310 0.750020 0.463180 -0.372492
O20   O     O_3   0.442690 0.249980 0.963180 -0.372502
V1    V     V_3+5 0.832160 0.749980 0.493170 1.427181
V2    V     V_3+5 0.667840 0.250020 0.993170 1.427235
V3    V     V_3+5 0.332160 0.750020 0.506830 1.431436
V4    V     V_3+5 0.167840 0.249980 0.006830 1.431416
C9    C     C_R   0.855480 0.601470 0.857476 -0.169682
C10   C     C_R   0.643977 0.398458 0.357527 -0.169652
C11   C     C_R   0.520825 0.893121 0.136057 -0.167605
C12   C     C_R   0.980224 0.106932 0.636069 -0.167546
H1    H     H_    0.823930 0.721768 0.771110 0.127250
H2    H     H_    0.675267 0.278106 0.271187 0.127278
H3    H     H_    0.583696 0.769646 0.218792 0.127163
H4    H     H_    0.917708 0.230450 0.718794 0.127150
H5    H     H_    0.797747 0.666134 0.871483 0.113377
H6    H     H_    0.701442 0.333750 0.371560 0.113406
H7    H     H_    0.542662 0.825381 0.118807 0.113557
H8    H     H_    0.958902 0.174709 0.618821 0.113555
C13   C     C_R   0.946889 0.448039 0.882718 -0.034519
C14   C     C_R   0.553033 0.551965 0.382721 -0.034456
C15   C     C_R   0.463928 0.052042 0.116856 -0.029591
C16   C     C_R   0.036183 0.947944 0.616866 -0.029563
C17   C     C_R   0.127763 0.468271 0.598047 -0.159170
C18   C     C_R   0.372695 0.531794 0.097996 -0.159255
C19   C     C_R   0.509743 0.036158 0.407217 -0.163200
C20   C     C_R   0.989537 0.963804 0.907214 -0.163253
C21   C     C_R   0.152963 0.397095 0.637558 -0.129377
C22   C     C_R   0.347742 0.603018 0.137483 -0.129338
C23   C     C_R   0.479927 0.109846 0.369997 -0.127529
C24   C     C_R   0.019047 0.890089 0.869996 -0.127478
C25   C     C_R   0.107862 0.407554 0.697183 -0.166911
C26   C     C_R   0.392726 0.592551 0.197121 -0.166890
C27   C     C_R   0.473901 0.098400 0.308742 -0.164829
C28   C     C_R   0.025326 0.901543 0.808744 -0.164792
C29   C     C_R   0.031300 0.489735 0.718874 0.079564
C30   C     C_R   0.468878 0.510302 0.218854 0.079541
C31   C     C_R   0.501234 0.012183 0.282729 0.078319
C32   C     C_R   0.998567 0.987799 0.782731 0.078301
C33   C     C_R   0.003938 0.562648 0.677745 0.072962
C34   C     C_R   0.496016 0.437345 0.177747 0.072962
C35   C     C_R   0.533948 0.936693 0.321352 0.072513
C36   C     C_R   0.966196 0.063321 0.821352 0.072507
C37   C     C_R   0.982821 0.502173 0.780041 0.073803
C38   C     C_R   0.517180 0.497840 0.280037 0.073814
C39   C     C_R   0.495849 0.998304 0.219815 0.074569
C40   C     C_R   0.004201 0.001685 0.719820 0.074566
C41   C     C_R   0.907694 0.587161 0.798275 0.145130
C42   C     C_R   0.591952 0.412794 0.298307 0.145109
C43   C     C_R   0.524488 0.909376 0.197336 0.143916
C44   C     C_R   0.976196 0.090658 0.697343 0.143892
C45   C     C_R   0.882652 0.657234 0.757315 -0.212987
C46   C     C_R   0.616816 0.342686 0.257365 -0.212966
C47   C     C_R   0.558468 0.837100 0.235957 -0.210137
C48   C     C_R   0.942504 0.162964 0.735960 -0.210091
C49   C     C_R   0.930631 0.645499 0.698163 -0.203723
C50   C     C_R   0.568982 0.354439 0.198198 -0.203652
C51   C     C_R   0.562183 0.850250 0.296894 -0.197787
C52   C     C_R   0.938520 0.149803 0.796894 -0.197677
C53   C     C_R   0.002933 0.433158 0.823778 -0.219888
C54   C     C_R   0.497205 0.566881 0.323760 -0.219885
C55   C     C_R   0.465274 0.069302 0.178130 -0.218617
C56   C     C_R   0.034445 0.930659 0.678137 -0.218581
C57   C     C_R   0.873063 0.532296 0.899049 -0.166291
C58   C     C_R   0.626525 0.467654 0.399088 -0.166343
C59   C     C_R   0.491662 0.963878 0.096248 -0.169175
C60   C     C_R   0.009139 0.036155 0.596260 -0.169220
C61   C     C_R   0.054345 0.551390 0.617164 -0.080577
C62   C     C_R   0.445755 0.448621 0.117151 -0.080508
C63   C     C_R   0.536274 0.949384 0.383846 -0.076187
C64   C     C_R   0.963603 0.050617 0.883843 -0.076164
H9    H     H_    0.168975 0.458973 0.552240 0.107484
H10   H     H_    0.331608 0.541107 0.052175 0.107459
H11   H     H_    0.509745 0.046692 0.454751 0.105920
H12   H     H_    0.989286 0.953257 0.954747 0.105906
H13   H     H_    0.211319 0.333477 0.622027 0.119788
H14   H     H_    0.289692 0.666686 0.121921 0.119811
H15   H     H_    0.458691 0.176539 0.388844 0.119292
H16   H     H_    0.039828 0.823365 0.888842 0.119279
H17   H     H_    0.908609 0.702040 0.668394 0.118830
H18   H     H_    0.590845 0.297868 0.168444 0.118722
H19   H     H_    0.588749 0.791925 0.324797 0.108413
H20   H     H_    0.912199 0.208151 0.824795 0.108294
H21   H     H_    0.827101 0.544233 0.944123 0.108904
H22   H     H_    0.672316 0.455689 0.444179 0.108875
H23   H     H_    0.493006 0.950006 0.049096 0.107187
H24   H     H_    0.008146 0.050051 0.549111 0.107172
H25   H     H_    0.055621 0.366507 0.813268 0.097806
H26   H     H_    0.444757 0.633568 0.313227 0.097784
H27   H     H_    0.445831 0.138705 0.191551 0.093650
H28   H     H_    0.053387 0.861225 0.691555 0.093613
H29   H     H_    0.136754 0.350245 0.725255 0.112124
H30   H     H_    0.364094 0.649916 0.225168 0.112159
H31   H     H_    0.446120 0.158376 0.283045 0.113078
H32   H     H_    0.052843 0.841542 0.783048 0.113079

loop_
_geom_bond_atom_site_label_1
_geom_bond_atom_site_label_2
_ccdc_geom_bond_type
O17   V3    S    
C39   C43   A    
C26   C30   A    
O1    C5    A    
C23   C27   A    
O19   V1    S    
O13   V1    S    
O3    C7    A    
C10   H6    S    
O1    V3    S    
C40   C44   A    
C32   C40   A    
O15   V3    S    
C11   C59   A    
O7    C3    A    
C11   C43   A    
C36   C64   A    
C32   C36   A    
O9    V1    S    
C9    C57   A    
O16   V4    S    
O4    C8    A    
C23   H15   S    
C26   H30   S    
C30   C38   A    
O2    V4    S    
C59   H23   S    
O3    V1    S    
C38   C42   A    
C12   C44   A    
C1    O15   A    
C2    O16   A    
C19   C63   A    
O2    C6    A    
C16   C56   A    
C37   C41   A    
O14   V2    S    
C11   H7    S    
C55   H27   S    
C48   C52   A    
C34   C62   A    
C12   C60   A    
O11   C7    A    
C1    C14   S    
O12   C8    A    
C35   C63   A    
C3    C16   S    
C15   C59   A    
O10   V2    S    
C4    C15   S    
C40   C56   A    
C49   H17   S    
C19   H11   S    
C31   C35   A    
C18   H10   S    
O7    V3    S    
C30   C34   A    
C36   C52   A    
C24   H16   S    
C21   H13   S    
C21   C25   A    
O18   V4    S    
C60   H24   S    
C57   H21   S    
H2    C46   S    
H1    C45   S    
C20   H12   S    
C7    C61   S    
O8    V4    S    
C56   H28   S    
C13   C53   A    
C10   C58   A    
O5    C1    A    
C8    C62   S    
C34   C50   A    
C46   C50   A    
C33   C49   A    
C45   C49   A    
O8    C4    A    
C2    C13   S    
H4    C48   S    
O9    C5    A    
C18   C22   A    
C35   C51   A    
C25   C29   A    
C10   C42   A    
C39   C55   A    
C9    C41   A    
O6    V2    S    
C31   C39   A    
C16   C60   A    
C12   H8    S    
C58   H22   S    
C38   C54   A    
O5    V1    S    
C37   C53   A    
C25   H29   S    
C22   C26   A    
C29   C37   A    
C3    O13   A    
C27   H31   S    
C13   C57   A    
C6    C64   S    
C22   H14   S    
C18   C62   A    
C44   C48   A    
O6    C2    A    
O11   V3    S    
C14   C58   A    
O12   V4    S    
C5    C63   S    
C27   C31   A    
C54   H26   S    
C28   C32   A    
C9    H5    S    
O10   C6    A    
C53   H25   S    
C47   C51   A    
C17   C21   A    
O20   V2    S    
C33   C61   A    
C52   H20   S    
C51   H19   S    
C20   C64   A    
C19   C23   A    
C50   H18   S    
C28   H32   S    
C17   H9    S    
C29   C33   A    
C24   C28   A    
C42   C46   A    
C4    O14   A    
C41   C45   A    
C17   C61   A    
C43   C47   A    
O4    V2    S    
C20   C24   A    
H3    C47   S    
C14   C54   A    
C15   C55   A    
