data_mof_unit_67118.cif
_audit_creation_date              2012-12-11T17:44:43-0500
_audit_creation_method            fapswitch 2.2
_symmetry_space_group_name_H-M    P1
_symmetry_Int_Tables_number       1
_space_group_crystal_system       triclinic
_cell_length_a                    8.171791
_cell_length_b                    12.661876
_cell_length_c                    14.895426
_cell_angle_alpha                 96.969282
_cell_angle_beta                  97.489912
_cell_angle_gamma                 98.414664
_cell_volume                      1496.06187672

loop_
_atom_site_label
_atom_site_type_symbol
_atom_type_description
_atom_site_fract_x
_atom_site_fract_y
_atom_site_fract_z
_atom_type_partial_charge
Ba1   Ba    Ba6+2 0.843760 0.550230 0.455610 1.642674
Ba2   Ba    Ba6+2 0.346080 0.449860 0.544400 1.635214
C1    C     C_3   0.522512 0.913108 0.187976 -0.412502
C2    C     C_R   0.109968 0.469360 0.207108 0.055914
C3    C     C_R   0.920355 0.478261 0.766733 -0.297518
C4    C     C_3   0.068257 0.769674 0.205350 0.358916
C5    C     C_R   0.821080 0.439844 0.828465 0.010525
C6    C     C_R   0.884652 0.449379 0.921068 -0.143982
C7    C     C_R   0.050588 0.500672 0.954861 0.009539
C8    C     C_R   0.146950 0.548204 0.891739 -0.025476
C9    C     C_R   0.123117 0.507101 0.049188 0.002008
C10   C     C_R   0.290733 0.561456 0.078435 -0.022645
C11   C     C_R   0.378313 0.611181 0.015617 -0.106586
C12   C     C_3   0.584935 0.830804 0.244379 0.334364
C13   C     C_R   0.306476 0.606841 0.925242 -0.058158
C14   C     C_R   0.036385 0.459565 0.115238 -0.134752
C15   C     C_R   0.272711 0.523397 0.233836 -0.292350
C16   C     C_3   0.031955 0.795934 0.108842 -0.350427
C17   C     C_R   0.080740 0.535370 0.796562 0.028150
C18   C     C_R   0.774937 0.180756 0.534954 -0.276000
C19   C     C_R   0.422562 0.808575 0.461318 -0.283955
C20   C     C_R   0.389863 0.987038 0.430329 -0.106756
C21   C     C_R   0.324188 0.878781 0.425255 -0.010698
C22   C     C_R   0.581358 0.847465 0.511550 0.069224
C23   C     C_3   0.412769 0.283575 0.265095 0.293972
C24   C     C_R   0.648358 0.959339 0.521069 -0.056546
C25   C     C_R   0.551579 0.029078 0.477731 -0.060406
C26   C     C_R   0.617108 0.139768 0.485007 0.042378
C27   C     C_R   0.873677 0.113256 0.574989 -0.007053
C28   C     C_3   0.267528 0.778829 0.650239 0.281068
C29   C     C_R   0.808888 0.003821 0.571021 -0.093797
C30   C     C_3   0.317493 0.900505 0.673317 -0.405038
C31   C     C_3   0.930580 0.218319 0.346221 0.281746
C32   C     C_3   0.915192 0.096694 0.325011 -0.347278
C33   C     C_3   0.765073 0.698136 0.732380 0.338246
C34   C     C_3   0.372132 0.252042 0.161344 -0.281266
C35   C     C_3   0.767342 0.724933 0.835820 0.285146
C36   C     C_3   0.019105 0.842857 0.874571 0.287547
C37   C     C_3   0.099988 0.955205 0.921857 -0.195672
C38   C     C_3   0.289898 0.964346 0.941441 -0.477542
C39   C     C_1   0.523251 0.235255 0.121640 0.315210
C40   C     C_3   0.133612 0.248337 0.798898 0.353148
C41   C     C_3   0.191507 0.239695 0.898785 -0.363045
C42   C     C_3   0.624429 0.173693 0.759018 0.322910
C43   C     C_3   0.694233 0.093929 0.815859 -0.366602
C44   C     C_R   0.365738 0.566262 0.170605 -0.003333
H1    H     H_    0.687746 0.872216 0.299042 0.078436
H2    H     H_    0.889456 0.682772 0.718171 -0.072975
H3    H     H_    0.672275 0.623740 0.707702 0.011012
H4    H     H_    0.482657 0.977992 0.233036 0.104974
H5    H     H_    0.824572 0.665420 0.873331 -0.076215
H6    H     H_    0.635856 0.716811 0.848425 0.053444
H7    H     H_    0.479452 0.796122 0.277580 -0.045295
H8    H     H_    0.414285 0.872703 0.136527 0.106174
H9    H     H_    0.297399 0.302138 0.290851 0.012511
H10   H     H_    0.510402 0.356975 0.280938 0.050319
H11   H     H_    0.318297 0.316988 0.130168 0.022379
H12   H     H_    0.437841 0.919933 0.720468 0.117308
H13   H     H_    0.278588 0.176773 0.144402 0.097483
H14   H     H_    0.622477 0.948958 0.151653 0.143392
H15   H     H_    0.050943 0.727764 0.059242 0.067708
H16   H     H_    0.217356 0.317171 0.781481 0.114603
H17   H     H_    0.003825 0.265555 0.791740 -0.059512
H18   H     H_    0.304856 0.200988 0.905341 0.165679
H19   H     H_    0.223120 0.321359 0.939315 0.090337
H20   H     H_    0.091079 0.192953 0.927993 0.083092
H21   H     H_    0.727475 0.211054 0.725320 -0.052622
H22   H     H_    0.523344 0.129374 0.704626 0.074071
H23   H     H_    0.332624 0.937149 0.610676 0.095109
H24   H     H_    0.796778 0.137214 0.869729 0.119430
H25   H     H_    0.743985 0.033070 0.771504 0.103919
H26   H     H_    0.981864 0.695229 0.210617 0.100207
H27   H     H_    0.594907 0.052330 0.849268 0.135011
H28   H     H_    0.329833 0.528287 0.304259 0.073206
H29   H     H_    0.504165 0.654752 0.035249 0.109063
H30   H     H_    0.912049 0.413839 0.097756 0.105207
H31   H     H_    0.868799 0.468215 0.694958 0.074466
H32   H     H_    0.800812 0.416556 0.964545 0.089790
H33   H     H_    0.379277 0.649441 0.881705 0.095955
H34   H     H_    0.219543 0.935853 0.706039 0.141055
H35   H     H_    0.310270 0.037399 0.398935 0.098674
H36   H     H_    0.886814 0.955110 0.605923 0.104031
H37   H     H_    0.824583 0.265558 0.539089 0.063715
H38   H     H_    0.199387 0.754913 0.217209 -0.072449
H39   H     H_    0.370529 0.723946 0.455436 0.069402
H40   H     H_    0.900860 0.809951 0.093798 0.166120
H41   H     H_    0.118001 0.869521 0.101570 0.103103
H42   H     H_    0.369453 0.744278 0.622042 0.017738
H43   H     H_    0.152807 0.760874 0.598820 0.081642
H44   H     H_    0.051117 0.835139 0.804466 0.085951
H45   H     H_    0.813293 0.239075 0.366601 0.002311
H46   H     H_    0.070439 0.781341 0.912299 0.026001
H47   H     H_    0.067148 0.014150 0.876082 0.142307
H48   H     H_    0.050599 0.974273 0.986872 0.131933
H49   H     H_    0.325114 0.902708 0.983924 0.133313
H50   H     H_    0.345877 0.045321 0.978952 0.144222
H51   H     H_    0.341260 0.952103 0.876384 0.154991
H52   H     H_    0.034929 0.247213 0.403305 0.074113
H53   H     H_    0.813451 0.065604 0.267119 0.122779
H54   H     H_    0.886240 0.058564 0.385350 0.082524
H55   H     H_    0.034578 0.075267 0.306308 0.139686
N1    N     N_1   0.642213 0.221982 0.090230 -0.288814
O1    O     O_2   0.827930 0.435360 0.277760 -0.456271
O2    O     O_2   0.218900 0.118670 0.576623 -0.482536
O3    O     O_3   0.142260 0.152314 0.742322 -0.611707
O4    O     O_3   0.100310 0.439010 0.391180 -0.501987
O5    O     O_3   0.587770 0.631830 0.546230 -0.489149
O6    O     O_2   0.332600 0.233710 0.456170 -0.471713
O7    O     O_3   0.467389 0.197364 0.304843 -0.655596
O8    O     O_2   0.481185 0.442699 0.826812 -0.504772
O9    O     O_3   0.556992 0.248020 0.815939 -0.589017
O10   O     O_3   0.625610 0.634200 0.333270 -0.476160
O11   O     O_2   0.707084 0.556237 0.173587 -0.494623
O12   O     O_3   0.724386 0.785873 0.690368 -0.633839
O13   O     O_3   0.958424 0.262837 0.267151 -0.622890
O14   O     O_3   0.647048 0.754243 0.187008 -0.600812
O15   O     O_2   0.857120 0.766320 0.543890 -0.475475
O16   O     O_3   0.056570 0.691100 0.379020 -0.490186
O17   O     O_2   0.987313 0.882953 0.436849 -0.486869
O18   O     O_3   0.843958 0.832322 0.870371 -0.634432
O19   O     O_3   0.043492 0.856301 0.267708 -0.601406
O20   O     O_2   0.361790 0.564680 0.722290 -0.472951
O21   O     O_3   0.089410 0.561080 0.608830 -0.492941
O22   O     O_3   0.564100 0.365890 0.666740 -0.471299
O23   O     O_3   0.239912 0.737045 0.730440 -0.655003
O24   O     O_3   0.601940 0.368260 0.453780 -0.476768
O25   O     O_3   0.133140 0.308990 0.620990 -0.490778
P1    P     P_3+3 0.998770 0.403620 0.291990 0.990218
P2    P     P_3+3 0.687370 0.751000 0.571300 0.974244
P3    P     P_3+3 0.103667 0.829140 0.378489 0.946562
P4    P     P_3+3 0.190950 0.596470 0.708020 0.961822
P5    P     P_3+3 0.091109 0.171053 0.627639 0.945997
P6    P     P_3+3 0.586244 0.625251 0.214513 0.949589
P7    P     P_3+3 0.507677 0.233033 0.423896 0.934091
P8    P     P_3+3 0.605146 0.376834 0.785508 0.956125

loop_
_geom_bond_atom_site_label_1
_geom_bond_atom_site_label_2
_ccdc_geom_bond_type
O4    P1    S    
C43   H25   S    
C23   H10   S    
C30   H12   S    
O19   P3    S    
O5    P2    S    
C34   H13   S    
C34   C39   S    
C5    C6    A    
Ba2   O21   S    
C4    H26   S    
C24   C25   A    
C16   H40   S    
C29   H36   S    
C26   P7    S    
C33   C35   S    
C22   C24   A    
C31   H52   S    
Ba1   P2    S    
C8    C13   A    
C31   H45   S    
Ba1   O10   S    
C36   C37   S    
C35   H5    S    
C1    H8    S    
C27   P5    S    
C36   H46   S    
Ba2   O5    S    
O17   P3    D    
C39   N1    T    
C33   O12   S    
C43   H27   S    
Ba1   Ba2   S    
O25   P5    S    
C37   H47   S    
C22   P2    S    
C13   H33   S    
C11   H29   S    
C6    C7    A    
C33   H3    S    
C32   H54   S    
Ba1   P1    S    
O15   P2    D    
C7    C8    A    
O10   P6    S    
C23   O7    S    
Ba1   O4    S    
C36   O18   S    
Ba2   O25   S    
O7    P7    S    
C28   O23   S    
C24   C29   A    
O11   P6    D    
C6    H32   S    
O8    P8    D    
C38   H50   S    
C28   H43   S    
C33   H2    S    
C1    H4    S    
C41   H18   S    
Ba2   P4    S    
O3    P5    S    
C18   C27   A    
Ba2   O20   S    
C17   P4    S    
C4    C16   S    
C19   H39   S    
C31   O13   S    
C32   H55   S    
C4    H38   S    
C2    P1    S    
C20   H35   S    
C15   C44   A    
C10   C44   A    
C34   H11   S    
C38   H51   S    
C3    C5    A    
C35   H6    S    
O14   P6    S    
C18   C26   A    
Ba2   O4    S    
O13   P1    S    
C21   P3    S    
C2    C14   A    
Ba1   O21   S    
C37   H48   S    
O6    P7    D    
O16   P3    S    
C30   H34   S    
C9    C14   A    
O23   P4    S    
C8    C17   A    
C41   H19   S    
C31   C32   S    
Ba1   O15   S    
Ba1   O24   S    
O1    P1    D    
C7    C9    A    
C12   H1    S    
C1    C12   S    
Ba1   O5    S    
C2    C15   A    
Ba2   O24   S    
Ba2   O22   S    
C20   C25   A    
C19   C21   A    
C15   H28   S    
O12   P2    S    
C42   H22   S    
C40   C41   S    
C19   C22   A    
C38   H49   S    
C3    H31   S    
O20   P4    D    
C37   C38   S    
C42   C43   S    
Ba1   O1    S    
O22   P8    S    
O21   P4    S    
C43   H24   S    
C14   H30   S    
C23   H9    S    
C9    C10   A    
C16   H15   S    
C30   H23   S    
C3    C17   A    
C40   H16   S    
C32   H53   S    
C36   H44   S    
C16   H41   S    
C11   C13   A    
C27   C29   A    
C1    H14   S    
C44   P6    S    
C28   C30   S    
O9    P8    S    
C35   O18   S    
C41   H20   S    
C12   O14   S    
Ba2   O6    S    
Ba1   O16   S    
C40   O3    S    
C5    P8    S    
C23   C34   S    
C42   O9    S    
C12   H7    S    
C10   C11   A    
O24   P7    S    
O2    P5    D    
C18   H37   S    
C25   C26   A    
C20   C21   A    
C42   H21   S    
C4    O19   S    
C28   H42   S    
C40   H17   S    
