data_mof_unit_54639.cif
_audit_creation_date              2013-03-05T15:56:01-0500
_audit_creation_method            fapswitch 2.2
_symmetry_space_group_name_H-M    P1
_symmetry_Int_Tables_number       1
_space_group_crystal_system       triclinic
_cell_length_a                    12.308772
_cell_length_b                    13.1217
_cell_length_c                    17.22649
_cell_angle_alpha                 104.76663
_cell_angle_beta                  75.081677
_cell_angle_gamma                 116.253611
_cell_volume                      2379.04149824

loop_
_atom_site_label
_atom_site_type_symbol
_atom_site_description
_atom_site_fract_x
_atom_site_fract_y
_atom_site_fract_z
_atom_type_partial_charge
O1    O     O_R   0.025490 0.682370 0.523640 -0.520101
O2    O     O_R   0.194150 0.640180 0.491890 -0.615446
C1    C     C_R   0.144340 0.714229 0.506311 0.807809
O3    O     O_R   0.905900 0.523560 0.631310 -0.586902
O4    O     O_R   0.074570 0.481370 0.599560 -0.597279
C2    C     C_R   0.989314 0.505690 0.652457 0.831941
Cu1   Cu    Cu3+1 0.900140 0.524980 0.518800 1.003132
Cu2   Cu    Cu3+1 0.099860 0.475020 0.481200 0.945822
O5    O     O_R   0.805850 0.359820 0.508110 -0.596277
O6    O     O_R   0.974510 0.317630 0.476360 -0.581315
O7    O     O_R   0.925430 0.518630 0.400440 -0.571599
O8    O     O_R   0.094100 0.476440 0.368690 -0.602254
C3    C     C_R   0.856121 0.286023 0.489785 0.834481
C4    C     C_R   0.010421 0.493932 0.347461 0.787072
C5    C     C_R   0.989332 0.515289 0.738807 -0.106829
C6    C     C_R   0.094951 0.527837 0.763742 -0.162332
C7    C     C_R   0.095690 0.535859 0.845335 -0.100121
C8    C     C_R   0.990231 0.528964 0.902785 0.067810
C9    C     C_R   0.884610 0.520157 0.879168 0.487833
C10   C     C_R   0.885167 0.513537 0.796809 -0.228824
C11   C     C_R   0.906150 0.473940 0.155705 -0.136214
C12   C     C_R   0.912464 0.491006 0.237519 -0.147257
C13   C     C_R   0.095760 0.451287 0.201179 -0.174146
C14   C     C_R   0.089385 0.434405 0.119066 -0.134523
C15   C     C_R   0.995001 0.446389 0.096213 0.059877
C16   C     C_2   0.991210 0.527238 0.986864 -0.268667
C17   C     C_2   0.993381 0.437870 0.010208 0.354905
C18   C     C_R   0.007596 0.480313 0.260940 -0.036416
H1    H     H_    0.177145 0.531435 0.720305 0.170897
H2    H     H_    0.842478 0.512116 0.282270 0.172948
H3    H     H_    0.169536 0.441830 0.217768 0.160011
H4    H     H_    0.832473 0.483042 0.138613 0.176261
H5    H     H_    0.803783 0.504515 0.777621 0.200489
H6    H     H_    0.989159 0.602040 0.031444 0.180125
H7    H     H_    0.177840 0.545036 0.863680 0.192172
H8    H     H_    0.159302 0.414439 0.073429 0.164650
C19   C     C_R   0.739791 0.963487 0.426148 0.352530
H9    H     H_    0.918852 0.102626 0.427102 0.194580
H10   H     H_    0.561279 0.766813 0.367414 0.190369
C20   C     C_R   0.775272 0.163236 0.481070 -0.115343
C21   C     C_R   0.179363 0.922813 0.554026 0.328329
C22   C     C_R   0.260399 0.033071 0.581946 -0.167398
C23   C     C_R   0.386021 0.063190 0.565150 -0.241793
C24   C     C_R   0.436387 0.986529 0.513279 0.110208
C25   C     C_R   0.354855 0.874340 0.483723 0.046805
C26   C     C_R   0.565363 0.017883 0.489937 0.066296
C27   C     C_R   0.611477 0.934490 0.443873 0.034914
C28   C     C_R   0.529333 0.827900 0.410331 -0.167364
C29   C     C_R   0.404381 0.801173 0.426386 -0.172040
C30   C     C_R   0.649559 0.131750 0.506913 -0.225426
C31   C     C_R   0.820669 0.078722 0.443918 -0.208524
C32   C     C_R   0.225907 0.838776 0.511028 -0.219914
H11   H     H_    0.619101 0.199604 0.535827 0.161742
H12   H     H_    0.440631 0.147758 0.593811 0.163745
H13   H     H_    0.225653 0.096449 0.617905 0.199939
H14   H     H_    0.347726 0.723020 0.391562 0.177534
C33   C     C_R   0.643974 0.677038 0.631278 0.331974
H15   H     H_    0.820442 0.691901 0.643818 0.187509
H16   H     H_    0.435106 0.710255 0.654408 0.218417
N1    N     N_R   0.749710 0.562810 0.547300 -0.217509
C34   C     C_R   0.250738 0.352073 0.389627 0.083646
C35   C     C_R   0.350132 0.320593 0.365805 -0.226574
C36   C     C_R   0.449922 0.377082 0.407276 -0.183893
C37   C     C_R   0.451628 0.466412 0.473743 0.029555
C38   C     C_R   0.347402 0.495416 0.495822 0.295921
C39   C     C_R   0.551953 0.527384 0.519220 -0.056090
C40   C     C_R   0.546501 0.616626 0.585514 0.045772
C41   C     C_R   0.443575 0.643117 0.604933 -0.182253
C42   C     C_R   0.346909 0.583621 0.561919 -0.213175
C43   C     C_R   0.658001 0.503350 0.501882 0.031619
C44   C     C_R   0.744699 0.647456 0.610235 0.073717
N2    N     N_R   0.249640 0.437820 0.453210 -0.211237
H17   H     H_    0.669992 0.437708 0.452661 0.126968
H18   H     H_    0.173719 0.307691 0.357127 0.135716
H19   H     H_    0.524054 0.348888 0.385985 0.140246
H20   H     H_    0.349841 0.252092 0.314984 0.167798
H21   H     H_    0.272815 0.610020 0.583576 0.202819
N3    N     N_R   0.789059 0.877786 0.390134 0.130595
O9    O     O_R   0.739712 0.779503 0.416146 -0.344200
O10   O     O_R   0.894170 0.904360 0.341276 -0.332304
N4    N     N_R   0.050679 0.898540 0.569891 0.122946
O11   O     O_R   0.000890 0.936038 0.641054 -0.293656
O12   O     O_R   0.990770 0.862422 0.509270 -0.287440
S1    S     S_3+6 0.643509 0.788776 0.714884 0.047932
O13   O     O_2   0.755680 0.832594 0.753669 -0.202841
O14   O     O_2   0.641348 0.886122 0.685312 -0.254230
O15   O     O_3   0.517423 0.737772 0.784596 -0.543668
H22   H     H_    0.517013 0.806104 0.825546 0.391152
S2    S     S_3+6 0.990776 0.309877 0.942549 0.067912
O16   O     O_2   0.903680 0.275407 0.884185 -0.183410
O17   O     O_2   0.117372 0.329935 0.894888 -0.296189
O18   O     O_3   0.944492 0.202207 0.995568 -0.463322
H23   H     H_    0.020360 0.207243 0.009139 0.356763
S3    S     S_3+6 0.749888 0.511107 0.950737 0.028754
O19   O     O_2   0.653102 0.508024 0.910768 -0.247643
O20   O     O_2   0.701662 0.403263 0.986976 -0.265169
O21   O     O_3   0.784267 0.626105 0.025178 -0.532543
H24   H     H_    0.711458 0.607020 0.068822 0.378692

loop_
_geom_bond_atom_site_label_1
_geom_bond_atom_site_label_2
_geom_bond_distance
_ccdc_geom_bond_type
O15   H22   0.990626 S    
C21   C22   1.391052 A    
C42   H21   1.062716 S    
C9    C10   1.397559 A    
C8    C16   1.457532 S    
S1    O15   1.682206 S    
N4    O11   1.301127 A    
Cu1   Cu2   2.698521 S    
Cu1   O7    1.967387 S    
C16   C17   1.345818 D    
C14   H8    1.083244 S    
S1    O14   1.503516 D    
O4    C2    1.299652 A    
C19   C31   1.400130 A    
O7    C4    1.299977 A    
C38   C42   1.402473 A    
H15   C44   1.081063 S    
C5    C6    1.401356 A    
C8    C9    1.408713 A    
O5    C3    1.301498 A    
C3    C20   1.464205 S    
C2    C5    1.460536 S    
C16   H6    1.086968 S    
C6    C7    1.384583 A    
C13   C14   1.392160 A    
C25   C29   1.411852 A    
C19   C27   1.418349 A    
C21   C32   1.420155 A    
C39   C40   1.424186 A    
C12   C18   1.403954 A    
C11   C12   1.386585 A    
C35   H20   1.082586 S    
C34   C35   1.392113 A    
C33   C40   1.419990 A    
O3    Cu1   1.962686 S    
N4    O12   1.301510 A    
C24   C26   1.424450 A    
O21   H24   0.990762 S    
C5    C10   1.403134 A    
C11   H4    1.083794 S    
Cu2   N2    2.021908 S    
C30   H11   1.074459 S    
C40   C41   1.396378 A    
C14   C15   1.399304 A    
O3    C2    1.300374 A    
N3    O9    1.301680 A    
C41   C42   1.382575 A    
H9    C31   1.083284 S    
N1    C44   1.350990 A    
C6    H1    1.082436 S    
C33   C44   1.393484 A    
O1    C1    1.304477 A    
C37   C39   1.443368 A    
C23   C24   1.415251 A    
C35   C36   1.394589 A    
H16   C41   1.079864 S    
C23   H12   1.076405 S    
C27   C28   1.396464 A    
N1    C43   1.363637 A    
Cu2   O8    1.962687 S    
C21   N4    1.435331 S    
C43   H17   1.076279 S    
C7    C8    1.397475 A    
C33   S1    1.775040 S    
C13   C18   1.404665 A    
S1    O13   1.503366 D    
S2    O18   1.683026 S    
S3    O20   1.503644 D    
C9    S3    1.769669 S    
C10   H5    1.082752 S    
C34   N2    1.357737 A    
C28   C29   1.384993 A    
O8    C4    1.301213 A    
S2    O17   1.503364 D    
C22   C23   1.384960 A    
C38   N2    1.387611 A    
Cu1   N1    2.033900 S    
C24   C25   1.416855 A    
Cu1   O5    1.938808 S    
C11   C15   1.400313 A    
C26   C27   1.422750 A    
C12   H2    1.083259 S    
O1    Cu1   1.952459 S    
O2    Cu2   1.938807 S    
O6    C3    1.299880 A    
O4    Cu2   1.967386 S    
C1    C32   1.485986 S    
C34   H18   1.081643 S    
C15   C17   1.461759 S    
C20   C31   1.397827 A    
C19   N3    1.439175 S    
C26   C30   1.398354 A    
S3    O21   1.681837 S    
C25   C32   1.424923 A    
O2    C1    1.306632 A    
C29   H14   1.080248 S    
C37   C38   1.429069 A    
C39   C43   1.417021 A    
C36   H19   1.077567 S    
C22   H13   1.083456 S    
C20   C30   1.391668 A    
O18   H23   0.990454 S    
C17   S2    1.775911 S    
N3    O10   1.301415 A    
S3    O19   1.503471 D    
C36   C37   1.411329 A    
Cu2   O6    1.952460 S    
C7    H7    1.083613 S    
C4    C18   1.462865 S    
S2    O16   1.502961 D    
C13   H3    1.083091 S    
H10   C28   1.082012 S    
