data_mof_unit_22465.cif
_audit_creation_date              2012-12-10T18:11:39-0500
_audit_creation_method            fapswitch 2.2
_symmetry_space_group_name_H-M    P1
_symmetry_Int_Tables_number       1
_space_group_crystal_system       triclinic
_cell_length_a                    10.496778
_cell_length_b                    12.700232
_cell_length_c                    13.233736
_cell_angle_alpha                 81.522733
_cell_angle_beta                  91.676829
_cell_angle_gamma                 102.289031
_cell_volume                      1704.94749981

loop_
_atom_site_label
_atom_site_type_symbol
_atom_type_description
_atom_site_fract_x
_atom_site_fract_y
_atom_site_fract_z
_atom_type_partial_charge
C1    C     C_R   0.487152 0.438725 0.690764 0.840502
C2    C     C_3   0.066289 0.592103 0.531562 -0.085909
C3    C     C_3   0.963206 0.505649 0.596286 -0.169805
C4    C     C_3   0.877347 0.500048 0.501349 -0.017750
C5    C     C_R   0.460386 0.702007 0.054165 -0.199974
C6    C     C_R   0.543083 0.598599 0.198856 -0.203910
C7    C     C_R   0.595708 0.332919 0.821150 -0.205327
C8    C     C_R   0.674311 0.338657 0.907720 -0.021656
C9    C     C_R   0.660122 0.411969 0.973322 -0.206186
C10   C     C_R   0.556466 0.468109 0.961953 0.102825
C11   C     C_R   0.481480 0.464513 0.871519 0.114214
C12   C     C_R   0.741896 0.500274 0.500808 0.894602
C13   C     C_R   0.533133 0.536638 0.032128 0.023678
C14   C     C_R   0.460854 0.617867 0.997700 0.089669
C15   C     C_R   0.388162 0.613377 0.908275 -0.131197
C16   C     C_R   0.390433 0.531869 0.850271 -0.129851
C17   C     C_R   0.571292 0.524821 0.136282 -0.117062
C18   C     C_R   0.508862 0.695807 0.152803 0.387861
C19   C     C_R   0.508386 0.402399 0.798455 -0.121333
C20   C     C_R   0.304243 0.086276 0.356141 -0.250625
C21   C     C_R   0.674927 0.806883 0.613232 -0.010622
C22   C     C_R   0.735610 0.916785 0.608523 0.310796
C23   C     C_R   0.522237 0.561366 0.309131 0.911583
C24   C     C_R   0.677833 0.994673 0.552586 -0.147163
C25   C     C_R   0.553973 0.965474 0.509431 -0.009194
C26   C     C_R   0.507090 0.854183 0.501621 0.172204
C27   C     C_R   0.481119 0.043202 0.466388 -0.054650
C28   C     C_R   0.377546 0.010930 0.398230 0.035107
C29   C     C_R   0.345510 0.902590 0.377475 -0.030809
C30   C     C_R   0.407304 0.825584 0.432573 -0.160637
C31   C     C_R   0.501118 0.150056 0.492849 0.437345
C32   C     C_R   0.335305 0.192171 0.377528 0.061689
C33   C     C_R   0.257935 0.499438 0.499995 0.864572
C34   C     C_3   0.933165 0.407322 0.470446 -0.078276
C35   C     C_3   0.021769 0.413132 0.565456 -0.157916
C36   C     C_3   0.122201 0.499323 0.500618 -0.031250
C37   C     C_3   0.036158 0.493840 0.405746 -0.148140
C38   C     C_3   0.977576 0.586191 0.436650 -0.076615
H1    H     H_    0.044143 0.342578 0.617645 0.190517
H2    H     H_    0.615782 0.285438 0.764983 0.246304
H3    H     H_    0.735573 0.428912 0.029165 0.184451
H4    H     H_    0.327329 0.527161 0.784099 0.137973
H5    H     H_    0.220034 0.063424 0.308820 0.195591
H6    H     H_    0.875170 0.331753 0.445514 0.193537
H7    H     H_    0.733768 0.077176 0.540331 0.220330
H8    H     H_    0.384292 0.745468 0.412675 0.234367
H9    H     H_    0.070540 0.490285 0.328045 0.173371
H10   H     H_    0.953166 0.656082 0.384765 0.196276
H11   H     H_    0.124172 0.667790 0.556340 0.181873
H12   H     H_    0.928760 0.510190 0.673750 0.172970
H13   H     H_    0.326487 0.671054 0.884775 0.152529
H14   H     H_    0.419241 0.771208 0.022614 0.191404
N1    N     N_R   0.432930 0.222190 0.444670 -0.168143
N2    N     N_R   0.566370 0.776980 0.554790 -0.185658
O1    O     O_R   0.467970 0.366730 0.627150 -0.559585
O2    O     O_R   0.510820 0.544830 0.662520 -0.602478
O3    O     O_R   0.664630 0.410960 0.482340 -0.577603
O4    O     O_R   0.707470 0.589060 0.517710 -0.615865
O5    O     O_R   0.489180 0.455170 0.337480 -0.585246
O6    O     O_R   0.532030 0.633270 0.372850 -0.592167
O7    O     O_R   0.292530 0.410940 0.482290 -0.604882
O8    O     O_R   0.335370 0.589040 0.517660 -0.657421
Zn1   Zn    Zn3+2 0.471390 0.381080 0.476380 1.043125
Zn2   Zn    Zn3+2 0.528610 0.618920 0.523620 0.979860
C39   C     C_2   0.624170 0.429470 0.184762 0.957112
O9    O     O_2   0.724282 0.443942 0.235225 -0.648887
O10   O     O_R   0.556818 0.323706 0.175630 -0.742780
H15   H     H_    0.601128 0.266021 0.213552 0.352597
C40   C     C_2   0.778483 0.275084 0.925443 0.946725
O11   O     O_2   0.795801 0.215859 0.864409 -0.570099
O12   O     O_R   0.856914 0.282248 0.012516 -0.790603
H16   H     H_    0.924121 0.235097 0.016067 0.365042
C41   C     C_2   0.251097 0.265714 0.333345 0.992596
O13   O     O_2   0.287286 0.333654 0.258894 -0.591360
O14   O     O_R   0.124240 0.249389 0.370725 -0.798436
H17   H     H_    0.071193 0.298175 0.329092 0.336413
C42   C     C_2   0.251634 0.866764 0.296518 0.960414
O15   O     O_2   0.179944 0.776448 0.310163 -0.664109
O16   O     O_R   0.250820 0.933171 0.202371 -0.757187
H18   H     H_    0.184695 0.898512 0.153146 0.359245
Cl1   Cl    Cl    0.590155 0.188368 0.600656 -0.609413
C43   C     C_2   0.735065 0.725594 0.676913 1.046918
O17   O     O_2   0.840816 0.710982 0.652754 -0.621213
O18   O     O_R   0.678258 0.674734 0.770377 -0.787624
H19   H     H_    0.731708 0.624485 0.809473 0.329664
Cl2   Cl    Cl    0.884644 0.960041 0.670426 -0.505748
Cl3   Cl    Cl    0.523281 0.810897 0.214351 -0.585485

loop_
_geom_bond_atom_site_label_1
_geom_bond_atom_site_label_2
_ccdc_geom_bond_type
C34   C37   S    
C41   O13   D    
C35   C36   S    
C7    C8    A    
C42   O15   D    
C23   O5    A    
C11   C19   A    
C8    C40   S    
C29   C30   A    
C24   H7    S    
C36   C37   S    
C1    O2    A    
C21   N2    A    
C15   C16   A    
C33   C36   S    
C40   O12   S    
C34   C35   S    
O7    Zn1   S    
C43   O18   S    
O8    Zn2   S    
O18   H19   S    
C33   O8    A    
C39   O10   S    
O1    Zn1   S    
C7    H2    S    
O2    Zn2   S    
C5    H14   S    
C15   H13   S    
C37   H9    S    
C9    C10   A    
C38   H10   S    
C12   O4    A    
C21   C22   A    
C41   O14   S    
C26   N2    A    
C3    H12   S    
O3    Zn1   S    
C42   O16   S    
O4    Zn2   S    
C23   O6    A    
C6    C18   A    
C4    C34   S    
C1    C19   S    
C27   C31   A    
O10   H15   S    
C34   H6    S    
C24   C25   A    
C32   C41   S    
C8    C9    A    
C5    C18   A    
C20   C28   A    
C25   C26   A    
C35   H1    S    
O14   H17   S    
C37   C38   S    
C2    H11   S    
C11   C16   A    
C2    C38   S    
C3    C35   S    
C31   N1    A    
C5    C14   A    
C12   O3    A    
C17   C39   S    
C4    C38   S    
C26   C30   A    
C7    C19   A    
C22   C24   A    
C4    C12   S    
C3    C4    S    
C16   H4    S    
C32   N1    A    
C20   H5    S    
C20   C32   A    
C2    C36   S    
C6    C17   A    
C28   C29   A    
O5    Zn1   S    
C30   H8    S    
C10   C13   A    
C25   C27   A    
C9    H3    S    
C18   Cl3   S    
C31   Cl1   S    
C13   C17   A    
O6    Zn2   S    
C2    C3    S    
C1    O1    A    
O12   H16   S    
C39   O9    D    
N1    Zn1   S    
N2    Zn2   S    
C6    C23   S    
C22   Cl2   S    
C40   O11   D    
C10   C11   A    
O16   H18   S    
C29   C42   S    
C21   C43   S    
C33   O7    A    
C43   O17   D    
C27   C28   A    
C14   C15   A    
C13   C14   A    
