data_mof_unit_56349.cif
_audit_creation_date              2012-12-10T19:26:25-0500
_audit_creation_method            fapswitch 2.2
_symmetry_space_group_name_H-M    P1
_symmetry_Int_Tables_number       1
_space_group_crystal_system       triclinic
_cell_length_a                    18.68615
_cell_length_b                    18.675965
_cell_length_c                    18.59311
_cell_angle_alpha                 108.959338
_cell_angle_beta                  109.025084
_cell_angle_gamma                 109.184619
_cell_volume                      5070.2287414

loop_
_atom_site_label
_atom_site_type_symbol
_atom_type_description
_atom_site_fract_x
_atom_site_fract_y
_atom_site_fract_z
_atom_type_partial_charge
C1    C     C_R   0.120375 0.999778 0.620027 0.875744
C2    C     C_R   0.301546 0.072891 0.834894 0.516934
C3    C     C_R   0.316277 0.001772 0.814588 -0.132045
C4    C     C_R   0.118614 0.119662 0.498286 0.957278
C5    C     C_R   0.266625 0.930399 0.731801 -0.051905
C6    C     C_3   0.299625 0.894925 0.673308 -0.573101
C7    C     C_3   0.229976 0.894541 0.602329 0.395268
C8    C     C_R   0.829453 0.762357 0.527585 -0.001800
C9    C     C_R   0.810663 0.818221 0.500783 -0.218060
C10   C     C_R   0.732661 0.819991 0.490398 0.340171
C11   C     C_R   0.669464 0.753806 0.490106 -0.279408
C12   C     C_R   0.273142 0.206552 0.549670 0.004204
C13   C     C_R   0.685511 0.689967 0.503746 -0.224298
C14   C     C_R   0.768338 0.699784 0.530073 0.159670
C15   C     C_3   0.798943 0.636450 0.502316 0.313428
C16   C     C_R   0.878622 0.998817 0.380210 1.004887
C17   C     C_3   0.867042 0.706525 0.499707 -0.514029
C18   C     C_R   0.733627 0.922059 0.253784 0.013428
C19   C     C_R   0.811215 0.998134 0.315484 -0.021156
C20   C     C_R   0.820076 0.076373 0.318138 -0.106798
C21   C     C_R   0.758831 0.075437 0.250617 -0.055948
C22   C     C_R   0.683856 0.997111 0.185320 -0.082174
C23   C     C_R   0.186779 0.184503 0.499066 -0.193575
C24   C     C_R   0.669267 0.921922 0.192098 0.029334
C25   C     C_3   0.635351 0.829636 0.127432 0.623244
C26   C     C_3   0.708305 0.830222 0.197920 0.206383
C27   C     C_R   0.498527 0.618999 0.619616 0.891983
C28   C     C_R   0.877121 0.880861 0.497935 0.948638
C29   C     C_R   0.381005 0.373273 0.494276 0.975061
C30   C     C_R   0.501210 0.380900 0.380182 0.959618
C31   C     C_R   0.619818 0.619847 0.499361 0.865849
C32   C     C_R   0.499014 0.119619 0.119919 1.000739
C33   C     C_R   0.380743 0.000063 0.879555 0.947994
C34   C     C_R   0.165143 0.217249 0.442152 0.402473
C35   C     C_R   0.501220 0.880392 0.880282 0.891703
C36   C     C_R   0.619588 0.997084 0.117738 0.976634
C37   C     C_R   0.422192 0.680268 0.680430 0.143922
C38   C     C_R   0.499520 0.687560 0.683084 -0.147060
C39   C     C_R   0.577015 0.764835 0.742607 -0.341357
C40   C     C_R   0.295870 0.180906 0.613640 -0.149274
C41   C     C_R   0.578185 0.832283 0.805597 0.461724
C42   C     C_R   0.501322 0.817142 0.811196 -0.221353
C43   C     C_R   0.423373 0.743588 0.745001 0.037746
C44   C     C_3   0.354148 0.679305 0.749313 -0.410387
C45   C     C_R   0.230266 0.274292 0.437867 -0.293680
C46   C     C_3   0.352513 0.609273 0.677559 -0.498040
C47   C     C_R   0.422453 0.246960 0.241776 0.087928
C48   C     C_R   0.499868 0.312169 0.316207 -0.177348
C49   C     C_R   0.574934 0.304627 0.333934 -0.250415
C50   C     C_R   0.575818 0.240007 0.270994 0.403861
C51   C     C_R   0.499922 0.182908 0.189563 -0.283253
C52   C     C_R   0.380287 0.198018 0.658864 -0.231303
C53   C     C_R   0.421981 0.181880 0.179594 -0.020093
C54   C     C_3   0.352483 0.178404 0.107357 0.179228
C55   C     C_3   0.353577 0.251592 0.177381 0.196312
C56   C     C_R   0.316563 0.296823 0.486501 -0.158059
C57   C     C_R   0.440876 0.232807 0.635176 -0.175542
C58   C     C_R   0.418845 0.255200 0.569214 0.422305
C59   C     C_R   0.337817 0.254212 0.535028 -0.038164
C60   C     C_3   0.110353 0.754189 0.541547 0.130283
C61   C     C_3   0.065947 0.662267 0.466358 -0.344740
C62   C     C_3   0.006952 0.595767 0.480577 -0.925359
C63   C     C_3   0.797479 0.532113 0.544392 0.095306
C64   C     C_3   0.828139 0.519868 0.624175 -0.348680
C65   C     C_3   0.791235 0.424203 0.599268 -0.807637
C66   C     C_3   0.587849 0.755588 0.973059 0.166181
C67   C     C_R   0.202138 0.929303 0.667401 0.000357
C68   C     C_3   0.606793 0.679812 0.956301 -0.358773
C69   C     C_3   0.548489 0.608646 0.861588 -0.925919
C70   C     C_3   0.768446 0.743247 0.157372 0.088704
C71   C     C_3   0.825915 0.745543 0.239418 -0.303805
C72   C     C_3   0.823697 0.658668 0.219624 -0.974111
C73   C     C_3   0.697654 0.950383 0.833931 0.103589
C74   C     C_3   0.786855 0.956352 0.859995 -0.332484
C75   C     C_3   0.833405 0.001267 0.820647 -0.890312
C76   C     C_3   0.396037 0.220474 0.918217 0.042035
C77   C     C_3   0.480321 0.229563 0.917526 -0.352223
C78   C     C_R   0.186098 0.999258 0.686342 -0.203317
C79   C     C_3   0.531341 0.315335 0.922393 -0.945870
C80   C     C_R   0.232369 0.068562 0.771391 -0.276700
H1    H     H_    0.290679 0.829818 0.662719 0.215671
H2    H     H_    0.686422 0.789361 0.226861 0.073183
H3    H     H_    0.636412 0.771583 0.741532 0.169242
H4    H     H_    0.377795 0.678368 0.812013 0.220399
H5    H     H_    0.293719 0.684026 0.728205 0.205413
H6    H     H_    0.374843 0.567518 0.698388 0.200444
H7    H     H_    0.397055 0.178503 0.708049 0.157278
H8    H     H_    0.291254 0.573758 0.614960 0.215770
H9    H     H_    0.633304 0.350600 0.395593 0.182609
H10   H     H_    0.377551 0.200792 0.067971 0.090777
H11   H     H_    0.379271 0.313474 0.175626 0.048268
H12   H     H_    0.257572 0.942620 0.582650 0.121107
H13   H     H_    0.503175 0.235871 0.663623 0.181954
H14   H     H_    0.213443 0.303931 0.398439 0.221866
H15   H     H_    0.217213 0.120892 0.787749 0.184098
H16   H     H_    0.366398 0.942123 0.692991 0.180563
H17   H     H_    0.070177 0.304527 0.359438 0.361281
H18   H     H_    0.060665 0.774040 0.542390 0.145210
H19   H     H_    0.142585 0.753914 0.603323 0.144908
H20   H     H_    0.027089 0.659508 0.404772 0.229564
H21   H     H_    0.116098 0.645220 0.460102 0.243150
H22   H     H_    0.044653 0.596990 0.541550 0.269838
H23   H     H_    0.607480 0.750835 0.477674 0.214350
H24   H     H_    0.977232 0.529946 0.425377 0.283790
H25   H     H_    0.954322 0.609148 0.484165 0.273125
H26   H     H_    0.769841 0.989031 0.609153 0.338390
H27   H     H_    0.816075 0.498846 0.497984 0.166373
H28   H     H_    0.725653 0.502808 0.512919 0.145848
H29   H     H_    0.900058 0.551720 0.658784 0.238266
H30   H     H_    0.807184 0.551032 0.669076 0.231700
H31   H     H_    0.719461 0.389777 0.560660 0.296738
H32   H     H_    0.809851 0.417768 0.659038 0.261821
H33   H     H_    0.817793 0.393792 0.560878 0.295471
H34   H     H_    0.750606 0.578731 0.436840 0.032677
H35   H     H_    0.548830 0.755332 0.227607 0.371461
H36   H     H_    0.594448 0.776905 0.925542 0.168276
H37   H     H_    0.519839 0.735264 0.957931 0.183135
H38   H     H_    0.675528 0.703189 0.971545 0.235861
H39   H     H_    0.595305 0.651653 0.997939 0.243011
H40   H     H_    0.479300 0.584028 0.844873 0.271732
H41   H     H_    0.562827 0.554092 0.851444 0.269600
H42   H     H_    0.560089 0.633819 0.817662 0.274161
H43   H     H_    0.792267 0.727882 0.109944 0.169018
H44   H     H_    0.701117 0.689837 0.126533 0.117416
H45   H     H_    0.934172 0.732678 0.550681 0.217638
H46   H     H_    0.893795 0.796495 0.268221 0.250557
H47   H     H_    0.802631 0.760860 0.287238 0.230299
H48   H     H_    0.756651 0.606804 0.192366 0.267971
H49   H     H_    0.866049 0.662766 0.280517 0.266995
H50   H     H_    0.847505 0.641829 0.172434 0.272597
H51   H     H_    0.706678 0.017100 0.861718 0.169446
H52   H     H_    0.660132 0.921178 0.761765 0.124337
H53   H     H_    0.826824 0.993248 0.932010 0.258641
H54   H     H_    0.779770 0.890357 0.837607 0.224949
H55   H     H_    0.795795 0.963786 0.748523 0.251630
H56   H     H_    0.858054 0.689924 0.433147 0.180757
H57   H     H_    0.898232 0.005599 0.841751 0.290551
H58   H     H_    0.841981 0.067820 0.842630 0.270481
H59   H     H_    0.618428 0.128286 0.331694 0.389815
H60   H     H_    0.169377 0.983299 0.062300 0.380245
H61   H     H_    0.205378 0.168977 0.257376 0.387185
H62   H     H_    0.374777 0.175101 0.380318 0.387870
H63   H     H_    0.412719 0.275298 0.979105 0.172310
H64   H     H_    0.356475 0.227376 0.864086 0.134859
H65   H     H_    0.520930 0.226337 0.974054 0.252830
H66   H     H_    0.465231 0.175624 0.856841 0.214436
H67   H     H_    0.875938 0.137322 0.369319 0.228702
H68   H     H_    0.492352 0.319728 0.865997 0.269260
H69   H     H_    0.591623 0.319704 0.921217 0.270248
H70   H     H_    0.549162 0.370587 0.983571 0.269525
H71   H     H_    0.248934 0.148456 0.629875 0.128148
H72   H     H_    0.770107 0.135642 0.249684 0.233946
O1    O     O_R   0.091620 0.948280 0.539900 -0.621164
O2    O     O_R   0.448300 0.040010 0.091670 -0.559975
O3    O     O_R   0.460120 0.051750 0.908420 -0.669217
O4    O     O_R   0.091590 0.051710 0.643320 -0.628368
O5    O     O_R   0.356670 0.948360 0.908460 -0.577664
O6    O     O_R   0.551700 0.960090 0.908430 -0.598797
O7    O     O_R   0.448250 0.856700 0.908470 -0.631470
O8    O     O_R   0.643330 0.051740 0.091640 -0.600558
O9    O     O_R   0.539880 0.948350 0.091680 -0.567151
O10   O     O_R   0.091630 0.039900 0.448300 -0.604414
O11   O     O_R   0.091610 0.143340 0.551720 -0.607758
O12   O     O_R   0.551680 0.591610 0.643340 -0.629582
O13   O     O_R   0.908410 0.948290 0.356680 -0.606361
O14   O     O_R   0.908380 0.051720 0.460100 -0.577255
O15   O     O_R   0.908390 0.856660 0.448280 -0.665968
O16   O     O_R   0.908370 0.960100 0.551700 -0.568421
O17   O     O_R   0.448240 0.591630 0.539920 -0.614948
O18   O     O_2   0.999494 0.100369 0.326804 -0.285513
O19   O     O_2   0.030359 0.231167 0.447836 -0.349237
O20   O     O_3   0.052094 0.243799 0.320312 -0.510572
O21   O     O_3   0.170246 0.810874 0.528282 -0.609372
O22   O     O_2   0.721193 0.902255 0.397517 -0.330067
O23   O     O_R   0.356630 0.408410 0.448290 -0.602075
O24   O     O_2   0.617701 0.877594 0.451700 -0.259204
O25   O     O_3   0.777295 0.996859 0.561388 -0.489576
O26   O     O_3   0.837155 0.621477 0.571319 -0.606779
O27   O     O_2   0.461404 0.776864 0.053061 -0.264852
O28   O     O_2   0.503069 0.668608 0.066337 -0.366862
O29   O     O_3   0.529246 0.790715 0.205285 -0.480440
O30   O     O_3   0.649718 0.828062 0.056055 -0.648096
O31   O     O_3   0.773217 0.825083 0.176443 -0.569561
O32   O     O_3   0.655856 0.906454 0.870007 -0.615705
O33   O     O_2   0.705077 0.236606 0.239180 -0.281253
O34   O     O_R   0.460070 0.408390 0.551710 -0.590653
O35   O     O_2   0.738092 0.294313 0.390990 -0.325769
O36   O     O_3   0.639810 0.128501 0.289485 -0.566742
O37   O     O_2   0.186031 0.077663 0.979388 -0.242647
O38   O     O_2   0.277646 0.010063 0.991163 -0.280527
O39   O     O_3   0.224539 0.038074 0.104073 -0.453772
O40   O     O_2   0.271561 0.317299 0.251166 -0.283118
O41   O     O_2   0.178834 0.186714 0.110507 -0.205733
O42   O     O_3   0.254293 0.172201 0.246046 -0.496190
O43   O     O_2   0.563852 0.333250 0.563851 -0.279261
O44   O     O_2   0.497020 0.176854 0.504226 -0.279761
O45   O     O_R   0.448260 0.408420 0.356690 -0.601510
O46   O     O_3   0.422729 0.235524 0.412884 -0.541937
O47   O     O_3   0.351236 0.142753 0.918339 -0.646102
O48   O     O_R   0.551700 0.408400 0.460110 -0.575486
O49   O     O_R   0.539880 0.591640 0.448310 -0.619264
O50   O     O_R   0.643310 0.591620 0.551740 -0.627326
O51   O     O_R   0.551750 0.143400 0.091630 -0.603378
S1    S     S_3+6 0.058406 0.196346 0.383466 0.007297
S2    S     S_3+6 0.709366 0.899071 0.472479 0.042699
S3    S     S_3+6 0.528312 0.762955 0.109148 -0.003330
S4    S     S_3+6 0.669117 0.227712 0.299100 0.008778
S5    S     S_3+6 0.257301 0.073417 0.042156 0.119020
S6    S     S_3+6 0.261064 0.231794 0.194997 0.120662
S7    S     S_3+6 0.478703 0.250963 0.512839 0.036710
Zn1   Zn    Zn3+2 0.000020 0.930940 0.430940 0.994528
Zn2   Zn    Zn3+2 0.999980 0.069060 0.569060 1.081729
Zn3   Zn    Zn3+2 0.430910 0.500030 0.430960 1.061431
Zn4   Zn    Zn3+2 0.569030 0.500000 0.569070 1.031151
Zn5   Zn    Zn3+2 0.569070 0.069080 0.000020 1.018624
Zn6   Zn    Zn3+2 0.430930 0.931020 0.000080 1.136477

loop_
_geom_bond_atom_site_label_1
_geom_bond_atom_site_label_2
_ccdc_geom_bond_type
C66   C68   S    
C73   H51   S    
O36   S4    S    
C37   C43   A    
C1    C78   S    
O4    Zn2   S    
C41   C42   A    
O33   S4    D    
C30   O48   A    
C19   C20   A    
C18   C26   S    
C39   H3    S    
C5    C67   A    
C60   H19   S    
C64   H29   S    
C72   H49   S    
C39   C41   A    
C62   H25   S    
C53   C54   S    
C12   C23   A    
C63   O26   S    
C66   H36   S    
C72   H48   S    
C18   C24   A    
O23   Zn3   S    
C30   C48   S    
C10   S2    S    
C54   H10   S    
C60   H18   S    
C68   H39   S    
C38   C39   A    
C78   C80   A    
O10   Zn1   S    
C3    C33   S    
O37   S5    D    
C74   H53   S    
C74   H54   S    
C29   O34   A    
C15   C17   S    
C18   C19   A    
C73   C74   S    
C21   H72   S    
O19   S1    D    
O20   S1    S    
C35   C42   S    
O16   Zn2   S    
C65   H31   S    
C31   O50   A    
C55   H11   S    
C28   O15   A    
C68   H38   S    
C12   C59   A    
C64   H30   S    
C70   H43   S    
C45   C56   A    
C34   S1    S    
C8    C9    A    
C66   H37   S    
O17   Zn3   S    
O22   S2    D    
O48   Zn4   S    
C41   O32   S    
C70   C71   S    
C9    C10   A    
C27   O17   A    
H26   O25   S    
O18   S1    D    
C47   C53   A    
O14   Zn2   S    
C26   O31   S    
O15   Zn1   S    
C77   C79   S    
C66   O30   S    
C73   H52   S    
C26   H2    S    
C6    H1    S    
C57   H13   S    
C21   C22   A    
C60   O21   S    
H62   O46   S    
C71   H47   S    
C67   C78   A    
C29   O23   A    
O28   S3    D    
C45   H14   S    
H35   O29   S    
C44   C46   S    
C62   H24   S    
C58   S7    S    
C4    O11   A    
C31   O49   A    
C74   C75   S    
C2    O47   S    
C24   C25   S    
O43   S7    D    
O2    Zn6   S    
C75   H57   S    
C16   O14   A    
O1    Zn1   S    
C4    C23   S    
C36   O8    A    
C68   C69   S    
C44   H4    S    
O6    Zn5   S    
C40   C52   A    
O8    Zn5   S    
C75   H58   S    
O50   Zn4   S    
C1    O1    A    
C40   H71   S    
C60   C61   S    
C51   C53   A    
O24   S2    D    
C12   C40   A    
C1    O4    A    
C61   H21   S    
C43   C44   S    
C32   C51   S    
C37   C38   A    
C27   O12   A    
C55   S6    S    
O41   S6    D    
C47   C48   A    
C56   C59   A    
C69   H41   S    
C16   O13   A    
C23   C34   A    
C17   H56   S    
C50   C51   A    
C15   H34   S    
C71   H46   S    
C34   C45   A    
C76   C77   S    
C80   H15   S    
O3    Zn5   S    
H17   O20   S    
O49   Zn3   S    
C79   H68   S    
C79   H70   S    
C32   O2    A    
C44   H5    S    
C76   H64   S    
O38   S5    D    
C48   C49   A    
O9    Zn6   S    
C6    H16   S    
C63   H28   S    
C36   O9    A    
C20   H67   S    
C22   C24   A    
C58   C59   A    
C61   H20   S    
C42   C43   A    
C7    O21   S    
C65   H32   S    
C63   H27   S    
C25   S3    S    
C77   H65   S    
O45   Zn3   S    
C25   O30   S    
C47   C55   S    
O27   S3    D    
O51   Zn5   S    
C73   O32   S    
C54   C55   S    
O5    Zn6   S    
C8    C14   A    
O7    Zn6   S    
C65   H33   S    
C13   C31   S    
C52   H7    S    
O13   Zn1   S    
C49   H9    S    
C3    C5    A    
C76   O47   S    
C52   C57   A    
O11   Zn2   S    
C33   O3    A    
C72   H50   S    
C6    C7    S    
C29   C56   S    
C22   C36   S    
C69   H40   S    
C54   S5    S    
C8    C17   S    
C46   H8    S    
C79   H69   S    
O12   Zn4   S    
C64   C65   S    
C32   O51   A    
C2    C3    A    
C25   C26   S    
C35   O6    A    
O44   S7    D    
C71   C72   S    
C50   S4    S    
O42   S6    S    
C11   C13   A    
C17   H45   S    
C57   C58   A    
C5    C6    S    
C75   H55   S    
C69   H42   S    
C16   C19   S    
C7    H12   S    
O34   Zn4   S    
O25   S2    S    
O29   S3    S    
C4    O10   A    
H61   O42   S    
C61   C62   S    
O46   S7    S    
C35   O7    A    
O40   S6    D    
C33   O5    A    
C2    C80   A    
C10   C11   A    
C28   O16   A    
C7    C67   S    
C63   C64   S    
C76   H63   S    
C70   H44   S    
C70   O31   S    
C30   O45   A    
C20   C21   A    
C49   C50   A    
C15   O26   S    
O35   S4    D    
H60   O39   S    
C14   C15   S    
C11   H23   S    
C27   C38   S    
C46   H6    S    
C37   C46   S    
C13   C14   A    
C77   H66   S    
H59   O36   S    
C9    C28   S    
O39   S5    S    
C62   H22   S    
