data_mof_unit_8310.cif
_audit_creation_date              2013-03-05T16:06:47-0500
_audit_creation_method            fapswitch 2.2
_symmetry_space_group_name_H-M    P1
_symmetry_Int_Tables_number       1
_space_group_crystal_system       triclinic
_cell_length_a                    6.957002
_cell_length_b                    14.535564
_cell_length_c                    16.193837
_cell_angle_alpha                 90.42672
_cell_angle_beta                  90.016534
_cell_angle_gamma                 90.022279
_cell_volume                      1637.53911804

loop_
_atom_site_label
_atom_site_type_symbol
_atom_site_description
_atom_site_fract_x
_atom_site_fract_y
_atom_site_fract_z
_atom_type_partial_charge
O1    O     O_R   0.505830 0.583360 0.413880 -0.590542
O2    O     O_R   0.175830 0.595460 0.585520 -0.599234
O3    O     O_R   0.005520 0.416640 0.586120 -0.597824
C1    C     C_R   0.344681 0.617366 0.614500 0.938956
O4    O     O_R   0.176120 0.594390 0.414490 -0.598154
O5    O     O_R   0.005810 0.415570 0.413870 -0.595868
C2    C     C_R   0.344900 0.616197 0.385896 0.943555
O6    O     O_R   0.505540 0.584430 0.586130 -0.593309
O7    O     O_3   0.339200 0.441330 0.500000 -0.276358
V1    V     V_3+5 0.064350 0.510880 0.500000 1.142559
O8    O     O_R   0.676100 0.404540 0.414480 -0.594482
C3    C     C_R   0.845105 0.382569 0.385705 0.941241
O9    O     O_R   0.675810 0.405610 0.585510 -0.597953
C4    C     C_R   0.845007 0.383757 0.613683 1.010819
V2    V     V_3+5 0.564340 0.489120 0.500000 1.146790
O10   O     O_3   0.839360 0.558670 0.500000 -0.282320
C5    C     C_2   0.720868 0.208948 0.786079 -0.078571
C6    C     C_2   0.885581 0.181818 0.822618 -0.450598
H1    H     H_    0.022792 0.209840 0.803848 0.155588
C7    C     C_2   0.708496 0.277461 0.718125 -0.084237
C8    C     C_2   0.861495 0.315538 0.680534 -0.454946
H2    H     H_    0.564891 0.296488 0.698235 0.133726
H3    H     H_    0.006229 0.297185 0.698558 0.157181
C9    C     C_R   0.727801 0.181229 0.242921 0.154048
C10   C     C_R   0.882518 0.180530 0.187503 -0.221978
C11   C     C_R   0.034069 0.242539 0.203103 -0.147160
H4    H     H_    0.156660 0.244502 0.162224 0.142946
C12   C     C_R   0.022647 0.307198 0.268168 -0.139965
H5    H     H_    0.137480 0.356724 0.275670 0.137400
C13   C     C_R   0.858978 0.312032 0.319377 -0.225247
C14   C     C_R   0.716026 0.245489 0.307059 0.161966
C15   C     C_3   0.505339 0.257821 0.294989 -0.468385
C16   C     C_3   0.518022 0.187386 0.225436 -0.455989
H6    H     H_    0.469572 0.328131 0.273313 0.195375
H7    H     H_    0.441549 0.122097 0.239173 0.180204
C17   C     C_R   0.507430 0.681290 0.741687 0.178979
C18   C     C_R   0.353064 0.682028 0.685971 -0.233008
C19   C     C_R   0.201474 0.743499 0.703067 -0.160703
C20   C     C_R   0.212686 0.806323 0.769730 -0.146662
C21   C     C_R   0.376183 0.809935 0.821268 -0.234230
C22   C     C_R   0.519030 0.743732 0.807389 0.210452
C23   C     C_3   0.729869 0.756183 0.796057 -0.467785
C24   C     C_3   0.717414 0.687832 0.724797 -0.476042
H8    H     H_    0.766252 0.827089 0.776165 0.179111
H9    H     H_    0.793504 0.622094 0.737095 0.201498
H10   H     H_    0.747327 0.718858 0.663599 0.190287
C25   C     C_R   0.500431 0.677749 0.257073 0.155535
C26   C     C_R   0.352552 0.681251 0.315772 -0.209070
C27   C     C_R   0.204580 0.745774 0.302463 -0.178881
C28   C     C_R   0.216516 0.809854 0.237593 -0.072035
H11   H     H_    0.105254 0.861460 0.232123 0.115711
C29   C     C_R   0.375892 0.810872 0.183594 -0.256092
C30   C     C_R   0.510886 0.740153 0.192353 0.113584
C31   C     C_3   0.725200 0.742714 0.196286 0.193604
C32   C     C_3   0.713449 0.674613 0.267472 -0.594906
H12   H     H_    0.759331 0.704527 0.327653 0.176837
H13   H     H_    0.773413 0.605335 0.253501 0.228228
O11   O     O_R   0.229930 0.912420 0.917160 -0.587986
O12   O     O_R   0.559420 0.902500 0.088780 -0.597191
O13   O     O_R   0.729660 0.081330 0.089380 -0.597766
C33   C     C_R   0.390307 0.880603 0.117354 0.960945
O14   O     O_R   0.559650 0.901420 0.917750 -0.592554
O15   O     O_R   0.729880 0.080250 0.917130 -0.600948
C34   C     C_R   0.390519 0.879507 0.888758 0.955052
O16   O     O_R   0.229700 0.913500 0.089410 -0.564503
O17   O     O_3   0.396250 0.055540 0.003280 -0.289755
V3    V     V_3+5 0.671130 0.986010 0.003260 1.181631
O18   O     O_R   0.059600 0.091310 0.917720 -0.607984
C35   C     C_R   0.890890 0.113205 0.889551 0.999012
O19   O     O_R   0.059370 0.092380 0.088750 -0.607287
C36   C     C_R   0.890597 0.114581 0.117323 0.929386
V4    V     V_3+5 0.171120 0.007820 0.003230 1.171939
O20   O     O_3   0.896130 0.938240 0.003240 -0.238601
H14   H     H_    0.585324 0.180242 0.806958 0.134256
H15   H     H_    0.078914 0.746501 0.662233 0.137318
H16   H     H_    0.097851 0.855587 0.778208 0.130437
H17   H     H_    0.813758 0.730120 0.849425 0.227371
H18   H     H_    0.084666 0.750078 0.344804 0.124434
H19   H     H_    0.782872 0.811449 0.213869 0.052900
N1    N     N_R   0.813441 0.703480 0.121906 0.260405
O21   O     O_R   0.753915 0.625523 0.091069 -0.394756
O22   O     O_R   0.949586 0.748119 0.084529 -0.380750
H20   H     H_    0.420724 0.233450 0.348781 0.191499
H21   H     H_    0.488717 0.216600 0.163454 0.199852

loop_
_geom_bond_atom_site_label_1
_geom_bond_atom_site_label_2
_geom_bond_distance
_ccdc_geom_bond_type
C32   H12   1.110908 S    
C22   C23   1.489429 S    
C1    O6    1.300029 A    
C30   C31   1.492768 S    
C11   H4    1.080285 S    
O14   V3    2.001025 S    
C4    C8    1.477974 S    
C17   C18   1.402531 A    
C29   C33   1.484658 S    
O5    C3    1.297739 A    
C13   C14   1.400244 A    
V2    O10   2.163627 S    
C5    C7    1.492131 S    
C27   H18   1.081543 S    
C6    H1    1.082239 S    
O14   C34   1.305191 A    
O12   V3    2.005074 S    
O8    V2    2.002484 S    
O17   V4    1.712704 S    
C14   C15   1.489738 S    
O13   V3    2.000222 S    
O18   C35   1.299669 A    
C28   C29   1.412454 A    
O19   C36   1.302021 A    
O1    V2    2.003906 S    
O7    V1    2.163278 S    
C25   C30   1.393092 A    
C6    C35   1.478839 S    
O17   V3    2.163325 S    
O9    C4    1.302597 A    
C17   C22   1.395654 A    
C23   H8    1.111250 S    
C24   H10   1.111553 S    
C5    C6    1.349882 D    
C31   N1    1.464020 S    
C19   H15   1.079959 S    
C8    H3    1.082332 S    
O11   C34   1.298470 A    
O15   V3    2.004307 S    
O12   C33   1.304543 A    
O15   C35   1.298734 A    
C9    C10   1.401601 A    
N1    O22   1.300070 A    
C20   C21   1.411330 A    
O4    C2    1.302249 A    
N1    O21   1.302306 A    
O13   C36   1.299232 A    
C10   C11   1.408396 A    
C15   H6    1.111354 S    
O2    C1    1.303345 A    
C18   C19   1.408708 A    
C25   C26   1.401591 A    
O9    V2    2.004371 S    
O18   V4    2.004328 S    
C28   H11   1.082165 S    
C20   H16   1.081169 S    
C1    C18   1.486627 S    
C24   H9    1.111793 S    
O3    C4    1.295277 A    
C10   C36   1.482390 S    
V3    O20   1.712667 S    
C21   C22   1.400634 A    
C7    H2    1.086143 S    
O6    V2    2.001002 S    
C32   H13   1.111871 S    
C5    H14   1.086105 S    
C23   C24   1.519556 S    
O2    V1    2.001045 S    
C29   C30   1.400578 A    
C25   C32   1.492205 S    
C31   H19   1.111593 S    
C15   H20   1.111559 S    
C31   C32   1.527237 S    
C12   H5    1.081402 S    
C3    C13   1.482558 S    
O1    C2    1.300000 A    
V4    O20   2.163647 S    
O5    V1    2.000251 S    
O8    C3    1.303821 A    
O16   V4    2.005487 S    
C11   C12   1.408957 A    
C9    C16   1.489421 S    
C21   C34   1.486779 S    
C2    C26   1.484083 S    
C12   C13   1.410282 A    
O7    V2    1.713183 S    
C9    C14   1.394135 A    
O4    V1    2.005124 S    
O3    V1    2.004306 S    
V1    O10   1.712722 S    
C15   C16   1.519059 S    
O11   V4    2.001248 S    
C19   C20   1.410875 A    
C26   C27   1.410481 A    
C16   H7    1.111743 S    
C16   H21   1.111603 S    
C33   O16   1.298166 A    
C7    C8    1.347144 D    
C23   H17   1.111651 S    
C27   C28   1.411590 A    
C17   C24   1.489444 S    
O19   V4    2.002280 S    
