data_mof_unit_56569.cif
_audit_creation_date              2012-12-10T18:14:29-0500
_audit_creation_method            fapswitch 2.2
_symmetry_space_group_name_H-M    P1
_symmetry_Int_Tables_number       1
_space_group_crystal_system       triclinic
_cell_length_a                    12.594659
_cell_length_b                    13.401886
_cell_length_c                    19.261497
_cell_angle_alpha                 92.887235
_cell_angle_beta                  102.608555
_cell_angle_gamma                 83.78374
_cell_volume                      3152.932142

loop_
_atom_site_label
_atom_site_type_symbol
_atom_type_description
_atom_site_fract_x
_atom_site_fract_y
_atom_site_fract_z
_atom_type_partial_charge
C1    C     C_R   0.440062 0.690572 0.495453 0.898619
C2    C     C_R   0.501659 0.519107 0.146506 0.024815
C3    C     C_R   0.712169 0.073186 0.589189 -0.214967
C4    C     C_R   0.501794 0.498925 0.634567 0.955280
C5    C     C_R   0.594461 0.203389 0.520253 -0.053897
C6    C     C_R   0.302416 0.827310 0.443668 0.402158
C7    C     C_R   0.288274 0.919405 0.410866 0.500622
C8    C     C_R   0.366128 0.987569 0.432233 -0.389961
C9    C     C_R   0.459165 0.965719 0.487670 -0.002708
C10   C     C_R   0.476272 0.869597 0.517339 0.020318
C11   C     C_R   0.537254 0.035158 0.513413 0.132574
C12   C     C_R   0.506450 0.497637 0.711204 -0.286839
C13   C     C_R   0.633072 0.005956 0.565264 0.168145
C14   C     C_R   0.645615 0.912397 0.595747 -0.267989
C15   C     C_R   0.566009 0.846959 0.574319 -0.148976
C16   C     C_R   0.559896 0.309543 0.508447 0.853346
C17   C     C_R   0.519825 0.134764 0.492298 -0.269761
C18   C     C_R   0.693160 0.171732 0.566424 -0.182119
C19   C     C_R   0.403351 0.797616 0.489160 -0.307589
C20   C     C_R   0.069313 0.382723 0.382761 -0.315045
C21   C     C_R   0.799797 0.631069 0.584814 -0.057024
C22   C     C_R   0.903207 0.666532 0.600567 -0.019605
C23   C     C_R   0.504409 0.513835 0.071804 0.297214
C24   C     C_R   0.984357 0.619711 0.567296 -0.289166
C25   C     C_R   0.961196 0.540234 0.517751 -0.005784
C26   C     C_R   0.853348 0.509768 0.502491 0.250416
C27   C     C_R   0.038734 0.491783 0.480555 -0.028409
C28   C     C_R   0.495809 0.509192 0.365606 0.833621
C29   C     C_R   0.000145 0.426945 0.423052 0.150699
C30   C     C_R   0.893977 0.399693 0.408233 -0.309697
C31   C     C_R   0.823620 0.436263 0.450539 -0.180750
C32   C     C_R   0.152215 0.503887 0.496780 -0.076161
C33   C     C_R   0.181879 0.376019 0.408959 0.203119
C34   C     C_R   0.515568 0.509659 0.933820 0.342518
C35   C     C_R   0.411251 0.525937 0.737406 0.466479
C36   C     C_R   0.418580 0.533227 0.810512 -0.282635
C37   C     C_R   0.516910 0.505541 0.858083 -0.103721
C38   C     C_R   0.611813 0.472035 0.832468 -0.102636
C39   C     C_R   0.606886 0.469637 0.758690 0.414990
C40   C     C_3   0.240818 0.480015 0.691655 -0.286722
C41   C     C_3   0.150016 0.778337 0.470119 -0.286372
C42   C     C_3   0.213686 0.892737 0.293983 -0.335653
C43   C     C_R   0.240854 0.284946 0.375854 0.093079
C44   C     C_R   0.338994 0.282166 0.351385 -0.119379
C45   C     C_R   0.408052 0.494065 0.165655 -0.238580
C46   C     C_R   0.363582 0.213589 0.298550 -0.218307
C47   C     C_R   0.289938 0.145984 0.267518 -0.141969
C48   C     C_R   0.197302 0.140463 0.294499 -0.077052
C49   C     C_R   0.179202 0.201874 0.352264 -0.192016
C50   C     C_R   0.924978 0.754911 0.648916 0.136738
C51   C     C_R   0.893972 0.761788 0.714942 -0.187774
C52   C     C_R   0.913294 0.846169 0.759832 -0.135711
C53   C     C_R   0.963603 0.924346 0.739244 -0.121355
C54   C     C_R   0.994941 0.918170 0.673793 -0.148963
C55   C     C_R   0.975821 0.833937 0.628757 -0.142973
C56   C     C_R   0.397685 0.502623 0.236284 -0.017340
C57   C     C_R   0.717658 0.444192 0.881678 0.176054
C58   C     C_R   0.764106 0.344029 0.885067 -0.076354
C59   C     C_R   0.866339 0.318876 0.929408 -0.157378
C60   C     C_R   0.923293 0.393656 0.969667 -0.123635
C61   C     C_R   0.877845 0.493618 0.965895 -0.141829
C62   C     C_R   0.774706 0.518831 0.922829 -0.166854
C63   C     C_3   0.770404 0.505774 0.737457 -0.249697
C64   C     C_R   0.285579 0.502489 0.249385 0.134610
C65   C     C_R   0.217436 0.429108 0.216953 -0.147537
C66   C     C_R   0.107476 0.437735 0.221279 -0.158835
C67   C     C_R   0.488692 0.528324 0.289452 -0.162357
C68   C     C_R   0.064423 0.519625 0.257760 -0.148601
C69   C     C_R   0.131256 0.592461 0.290561 -0.114023
C70   C     C_R   0.241055 0.584449 0.286004 -0.069735
C71   C     C_R   0.650311 0.633620 0.318942 0.152147
C72   C     C_R   0.606362 0.717593 0.354002 -0.114672
C73   C     C_R   0.675522 0.778930 0.399700 -0.104273
C74   C     C_R   0.788881 0.757952 0.410047 -0.116053
C75   C     C_R   0.833234 0.675528 0.374766 -0.134643
C76   C     C_R   0.764485 0.612899 0.330171 -0.112688
C77   C     C_R   0.670970 0.607177 0.171414 0.110053
C78   C     C_R   0.575831 0.570541 0.268411 -0.058742
C79   C     C_R   0.758788 0.545055 0.153751 -0.156668
C80   C     C_R   0.841390 0.587056 0.130693 -0.137600
C81   C     C_R   0.836871 0.691020 0.124993 -0.118847
C82   C     C_R   0.749367 0.753263 0.142255 -0.130932
C83   C     C_R   0.666429 0.711577 0.165335 -0.122374
C84   C     C_R   0.583388 0.562766 0.196318 -0.037638
H1    H     H_    0.715044 0.891309 0.638210 0.166095
H2    H     H_    0.735717 0.666446 0.609575 0.126423
H3    H     H_    0.063571 0.647998 0.579363 0.152299
H4    H     H_    0.745245 0.408155 0.440168 0.208346
H5    H     H_    0.340325 0.472912 0.124229 0.142530
H6    H     H_    0.751827 0.224494 0.588604 0.171145
H7    H     H_    0.218637 0.476559 0.744207 0.152161
H8    H     H_    0.163880 0.499738 0.652442 0.183722
H9    H     H_    0.276120 0.404893 0.675465 0.168711
H10   H     H_    0.107364 0.855702 0.465738 0.172000
H11   H     H_    0.192816 0.763742 0.526213 0.159104
H12   H     H_    0.786075 0.050950 0.628045 0.152513
H13   H     H_    0.086810 0.725112 0.455039 0.169296
H14   H     H_    0.218977 0.810142 0.298178 0.190758
H15   H     H_    0.287844 0.914505 0.278284 0.146996
H16   H     H_    0.142155 0.913757 0.250594 0.174462
H17   H     H_    0.401923 0.325990 0.372873 0.194016
H18   H     H_    0.439122 0.214721 0.280579 0.140492
H19   H     H_    0.306086 0.096189 0.224212 0.124929
H20   H     H_    0.138678 0.088895 0.270710 0.162472
H21   H     H_    0.108143 0.190997 0.373083 0.146243
H22   H     H_    0.855643 0.701777 0.731957 0.105657
H23   H     H_    0.444664 0.162994 0.458097 0.166239
H24   H     H_    0.889181 0.850950 0.810593 0.127991
H25   H     H_    0.978191 0.989746 0.773961 0.125393
H26   H     H_    0.033508 0.978946 0.657751 0.130904
H27   H     H_    0.999196 0.831110 0.577770 0.108830
H28   H     H_    0.721265 0.285798 0.853326 0.132106
H29   H     H_    0.901850 0.241559 0.932075 0.125786
H30   H     H_    0.002902 0.374266 0.003427 0.122902
H31   H     H_    0.922896 0.551743 0.995909 0.127665
H32   H     H_    0.740451 0.596593 0.920106 0.130078
H33   H     H_    0.728026 0.582911 0.728227 0.128986
H34   H     H_    0.352399 0.055743 0.403473 0.204960
H35   H     H_    0.828595 0.503653 0.789718 0.164030
H36   H     H_    0.819578 0.488813 0.696293 0.188203
H37   H     H_    0.249078 0.365901 0.187626 0.132750
H38   H     H_    0.055528 0.381010 0.196259 0.128189
H39   H     H_    0.979623 0.525751 0.261717 0.138980
H40   H     H_    0.097509 0.655648 0.318788 0.169862
H41   H     H_    0.291364 0.642785 0.310103 0.127102
H42   H     H_    0.518629 0.735605 0.345776 0.095675
H43   H     H_    0.641274 0.843202 0.426656 0.144083
H44   H     H_    0.842339 0.805572 0.445317 0.126317
H45   H     H_    0.574687 0.778696 0.603518 0.148177
H46   H     H_    0.920958 0.659384 0.382464 0.130109
H47   H     H_    0.800225 0.548337 0.304313 0.125045
H48   H     H_    0.763739 0.464440 0.158608 0.132884
H49   H     H_    0.909613 0.538927 0.118090 0.136138
H50   H     H_    0.901271 0.723301 0.107368 0.120815
H51   H     H_    0.745896 0.833792 0.137858 0.126009
H52   H     H_    0.598995 0.760357 0.178694 0.122795
H53   H     H_    0.866672 0.346038 0.365712 0.150358
H54   H     H_    0.034027 0.342861 0.334174 0.144043
H55   H     H_    0.345733 0.559134 0.830136 0.179400
H56   H     H_    0.186925 0.556648 0.537239 0.163386
N1    N     N_R   0.574939 0.438681 0.978026 -0.164844
N2    N     N_R   0.569956 0.441053 0.046231 -0.179425
N3    N     N_R   0.444224 0.584249 0.027833 -0.177280
N4    N     N_R   0.449546 0.582001 0.959752 -0.181416
N5    N     N_R   0.222200 0.444680 0.463280 -0.116911
N6    N     N_R   0.776960 0.554780 0.536340 -0.131925
O1    O     O_R   0.366740 0.627160 0.482470 -0.562192
O2    O     O_3   0.222701 0.762016 0.423543 -0.599557
O3    O     O_3   0.197405 0.943316 0.357581 -0.598895
O4    O     O_3   0.697431 0.431353 0.732174 -0.594098
O5    O     O_R   0.544830 0.662520 0.505920 -0.628367
O6    O     O_R   0.410920 0.482320 0.590130 -0.587138
O7    O     O_R   0.589010 0.517690 0.613590 -0.604624
O8    O     O_R   0.455170 0.337480 0.494080 -0.640457
O9    O     O_R   0.633260 0.372840 0.517530 -0.633097
O10   O     O_R   0.410990 0.482310 0.386410 -0.634523
O11   O     O_R   0.589080 0.517680 0.409870 -0.619268
O12   O     O_3   0.312500 0.554126 0.691717 -0.598487
Zn1   Zn    Zn3+2 0.381090 0.476390 0.484340 0.967376
Zn2   Zn    Zn3+2 0.618910 0.523610 0.515660 0.938523

loop_
_geom_bond_atom_site_label_1
_geom_bond_atom_site_label_2
_ccdc_geom_bond_type
C66   C68   A    
C34   N1    A    
C27   C29   A    
C34   C37   S    
C73   C74   A    
C2    C84   A    
C35   C36   A    
C40   H9    S    
C75   C76   A    
O1    Zn1   S    
C81   C82   A    
C8    H34   S    
C7    C8    A    
C41   H11   S    
C53   C54   A    
C6    C19   A    
C46   H18   S    
C39   O4    S    
C34   N4    A    
C29   C30   A    
C58   H28   S    
C40   O12   S    
C36   C37   A    
C32   H56   S    
C10   C15   A    
C17   H23   S    
C30   C31   A    
N5    Zn1   S    
C76   H47   S    
C5    C17   A    
C77   C83   A    
N3    N4    A    
C48   H20   S    
C6    O2    S    
C54   H26   S    
C3    C18   A    
C46   C47   A    
C20   H54   S    
C82   H51   S    
C26   N6    A    
C42   O3    S    
C5    C16   S    
C21   C22   A    
C7    O3    S    
C60   H30   S    
C74   H44   S    
C41   H10   S    
C45   C56   A    
C8    C9    A    
C61   H31   S    
C66   H38   S    
C23   N2    A    
C3    H12   S    
C64   C70   A    
C4    C12   S    
C45   H5    S    
C9    C10   A    
C3    C13   A    
C75   H46   S    
C22   C50   S    
C4    O7    A    
O9    Zn2   S    
O6    Zn1   S    
C59   C60   A    
C30   H53   S    
C13   C14   A    
C23   N3    A    
C61   C62   A    
C67   C78   A    
C68   H39   S    
C24   H3    S    
C44   C46   A    
C20   C29   A    
C77   C79   A    
C2    C45   A    
C4    O6    A    
C1    C19   S    
C47   H19   S    
C74   C75   A    
C51   C52   A    
C33   C43   S    
C81   H50   S    
C28   C67   S    
C24   C25   A    
C72   C73   A    
C68   C69   A    
C49   H21   S    
C32   N5    A    
C77   C84   S    
C57   C62   A    
C25   C26   A    
C73   H43   S    
C80   H49   S    
C72   H42   S    
C60   C61   A    
C18   H6    S    
C43   C44   A    
C63   O4    S    
C62   H32   S    
C37   C38   A    
C42   H16   S    
C38   C57   S    
C63   H35   S    
C47   C48   A    
C15   H45   S    
C10   C19   A    
C59   H29   S    
C16   O9    A    
C56   C64   S    
C50   C51   A    
C40   H8    S    
C12   C35   A    
C9    C11   A    
C83   H52   S    
C33   N5    A    
C20   C33   A    
C70   H41   S    
C48   C49   A    
C82   C83   A    
O11   Zn2   S    
C65   H37   S    
C16   O8    A    
C22   C24   A    
C1    O1    A    
C71   C76   A    
C52   C53   A    
C53   H25   S    
C54   C55   A    
C11   C17   A    
C31   H4    S    
C55   H27   S    
C27   C32   A    
C26   C31   A    
O10   Zn1   S    
C43   C49   A    
C14   H1    S    
C80   C81   A    
C21   H2    S    
C44   H17   S    
C6    C7    A    
C5    C18   A    
C25   C27   A    
C56   C67   A    
C50   C55   A    
C69   H40   S    
C64   C65   A    
C12   C39   A    
C42   H14   S    
C58   C59   A    
C35   O12   S    
O8    Zn1   S    
C42   H15   S    
O5    Zn2   S    
C63   H36   S    
C11   C13   A    
C57   C58   A    
C38   C39   A    
C41   O2    S    
O7    Zn2   S    
C51   H22   S    
C63   H33   S    
C79   H48   S    
C28   O11   A    
C1    O5    A    
C41   H13   S    
C40   H7    S    
C69   C70   A    
C36   H55   S    
C79   C80   A    
C78   C84   A    
C71   C72   A    
C21   N6    A    
N6    Zn2   S    
C52   H24   S    
C65   C66   A    
C2    C23   S    
C28   O10   A    
C14   C15   A    
N1    N2    A    
C71   C78   S    
