data_mof_unit_66611.cif
_audit_creation_date              2012-12-10T20:45:29-0500
_audit_creation_method            fapswitch 2.2
_symmetry_space_group_name_H-M    P1
_symmetry_Int_Tables_number       1
_space_group_crystal_system       triclinic
_cell_length_a                    10.895401
_cell_length_b                    10.587213
_cell_length_c                    10.004904
_cell_angle_alpha                 87.910827
_cell_angle_beta                  90.704079
_cell_angle_gamma                 90.259919
_cell_volume                      1153.2211458

loop_
_atom_site_label
_atom_site_type_symbol
_atom_type_description
_atom_site_fract_x
_atom_site_fract_y
_atom_site_fract_z
_atom_type_partial_charge
C1    C     C_R   0.501238 0.260831 0.502214 0.886863
C2    C     C_R   0.176060 0.383738 0.998386 0.056686
C3    C     C_R   0.932659 0.513621 0.381514 -0.228089
C4    C     C_R   0.872677 0.510104 0.503204 -0.168269
C5    C     C_R   0.941230 0.520589 0.622210 -0.006066
C6    C     C_R   0.065799 0.548083 0.613558 0.462145
C7    C     C_R   0.127468 0.520336 0.495517 -0.219512
C8    C     C_R   0.058450 0.503734 0.377531 0.020433
C9    C     C_R   0.858973 0.560537 0.847187 -0.288218
C10   C     C_R   0.824921 0.517428 0.976606 0.416086
C11   C     C_R   0.839466 0.387871 0.013847 0.403147
C12   C     C_R   0.260261 0.505899 0.498687 0.885384
C13   C     C_R   0.883909 0.301284 0.919444 0.487571
C14   C     C_R   0.901848 0.346826 0.786713 -0.363702
C15   C     C_R   0.895103 0.475630 0.753212 0.083970
C16   C     C_R   0.611861 0.066831 0.489041 -0.007435
C17   C     C_R   0.501275 0.128644 0.505397 -0.050563
C18   C     C_R   0.389509 0.064857 0.493577 -0.240285
C19   C     C_R   0.390013 0.934731 0.485525 -0.194696
C20   C     C_R   0.502335 0.871669 0.488629 -0.094827
C21   C     C_R   0.612894 0.938013 0.477908 -0.057251
C22   C     C_3   0.731910 0.923479 0.557613 0.553657
C23   C     C_R   0.502332 0.739247 0.497344 0.871112
C24   C     C_3   0.725112 0.067018 0.575614 -0.224947
C25   C     C_R   0.537639 0.397591 0.075230 0.273509
C26   C     C_R   0.465338 0.604089 0.067012 -0.093801
C27   C     C_R   0.464096 0.603691 0.924057 -0.181243
C28   C     C_R   0.542529 0.398605 0.934042 0.146539
C29   C     C_3   0.499419 0.263929 0.931804 0.307806
C30   C     C_3   0.482874 0.268593 0.082862 -0.610828
C31   C     C_R   0.739896 0.500118 0.501292 0.914314
C32   C     C_R   0.179699 0.512151 0.027275 -0.260010
C33   C     C_R   0.146562 0.552388 0.153371 0.516975
C34   C     C_R   0.109430 0.462236 0.251093 0.068669
C35   C     C_R   0.111072 0.332276 0.224970 0.085955
C36   C     C_R   0.144653 0.294139 0.097989 -0.168006
H1    H     H_    0.932982 0.285822 0.710206 0.160414
H2    H     H_    0.303146 0.114917 0.494839 0.127766
H3    H     H_    0.303999 0.883451 0.482220 0.142520
H4    H     H_    0.706302 0.096648 0.678542 0.197037
H5    H     H_    0.436494 0.688026 0.116244 0.165238
H6    H     H_    0.212381 0.580582 0.953689 0.206302
H7    H     H_    0.433798 0.687232 0.867895 0.157598
H8    H     H_    0.415066 0.248656 0.872042 0.123777
H9    H     H_    0.385628 0.270326 0.112861 0.189544
H10   H     H_    0.537111 0.199061 0.143415 0.211808
H11   H     H_    0.146296 0.194748 0.076114 0.174365
H12   H     H_    0.881741 0.515090 0.289150 0.267889
H13   H     H_    0.859141 0.659635 0.817852 0.167619
N1    N     N_R   0.499160 0.499140 0.142800 -0.089743
N2    N     N_R   0.499160 0.499180 0.857150 -0.145585
O1    O     O_R   0.500020 0.316790 0.614690 -0.615337
O2    O     O_R   0.500000 0.316760 0.385350 -0.626753
O3    O     O_R   0.316770 0.500030 0.614670 -0.594181
O4    O     O_R   0.316750 0.499990 0.385330 -0.611238
O5    O     O_R   0.500000 0.683240 0.614650 -0.623023
O6    O     O_R   0.499980 0.683210 0.385310 -0.623684
O7    O     O_R   0.683250 0.500010 0.614670 -0.600141
O8    O     O_R   0.683230 0.499970 0.385330 -0.585360
Zn1   Zn    Zn3+2 0.500010 0.500020 0.653130 0.960181
Zn2   Zn    Zn3+2 0.499990 0.499980 0.346870 0.989985
N3    N     N_3   0.208964 0.342503 0.869550 -0.481446
H14   H     H_    0.281028 0.399219 0.835228 0.233606
H15   H     H_    0.136126 0.360826 0.804026 0.227820
O9    O     O_3   0.819015 0.356765 0.148408 -0.608292
C37   C     C_3   0.784383 0.230709 0.177398 -0.197690
H16   H     H_    0.866697 0.173339 0.202553 0.201099
H17   H     H_    0.732410 0.187066 0.095601 0.213007
H18   H     H_    0.724146 0.229487 0.265772 0.176113
O10   O     O_3   0.915570 0.179036 0.965560 -0.619045
C38   C     C_3   0.964883 0.099844 0.869967 -0.381624
H19   H     H_    0.895207 0.078527 0.792864 0.182638
H20   H     H_    0.989823 0.008579 0.920954 0.176256
H21   H     H_    0.050360 0.139978 0.826154 0.176958
N4    N     N_3   0.719277 0.848435 0.682539 -0.454114
H22   H     H_    0.790137 0.874164 0.747580 0.150402
H23   H     H_    0.636508 0.869167 0.728186 0.142039
O11   O     O_3   0.840066 0.889273 0.489191 -0.618873
C39   C     C_3   0.815471 0.819434 0.374854 -0.288265
H24   H     H_    0.902366 0.776530 0.343641 0.203602
H25   H     H_    0.782253 0.883059 0.291484 0.151144
H26   H     H_    0.748816 0.742065 0.395199 0.179940
N5    N     N_3   0.824904 0.140212 0.513203 -0.432840
H27   H     H_    0.905873 0.119186 0.566070 0.200135
H28   H     H_    0.839157 0.109954 0.416763 0.228446
O12   O     O_3   0.596573 0.184146 0.897875 -0.587792
C40   C     C_3   0.555325 0.057540 0.901332 -0.392720
H29   H     H_    0.503159 0.037931 0.808164 0.184464
H30   H     H_    0.498056 0.032670 0.989950 0.169889
H31   H     H_    0.636839 0.995391 0.908517 0.183305
O13   O     O_3   0.164277 0.676771 0.187520 -0.606592
C41   C     C_3   0.077522 0.753675 0.118838 -0.391999
H32   H     H_    0.983144 0.720605 0.140927 0.201522
H33   H     H_    0.093089 0.757449 0.009319 0.166184
H34   H     H_    0.086482 0.851357 0.154393 0.196532
N6    N     N_3   0.077011 0.240454 0.327416 -0.445019
H35   H     H_    0.140799 0.246719 0.405729 0.160420
H36   H     H_    0.084020 0.148942 0.292369 0.177740
O14   O     O_3   0.127858 0.591113 0.724101 -0.623695
C42   C     C_3   0.135635 0.723970 0.710492 -0.315674
H37   H     H_    0.043540 0.767675 0.719259 0.171944
H38   H     H_    0.178241 0.755099 0.614381 0.164519
H39   H     H_    0.195100 0.759299 0.791811 0.162430
O15   O     O_3   0.782863 0.596959 0.074735 -0.589179
C43   C     C_3   0.744583 0.717424 0.025266 -0.385034
H40   H     H_    0.683012 0.711340 0.936630 0.187704
H41   H     H_    0.824452 0.779095 0.001001 0.148464
H42   H     H_    0.691982 0.763155 0.104239 0.191502

loop_
_geom_bond_atom_site_label_1
_geom_bond_atom_site_label_2
_ccdc_geom_bond_type
C37   H17   S    
C40   H29   S    
C16   C21   A    
C30   H9    S    
C19   C20   A    
C7    C8    A    
O3    Zn1   S    
C35   N6    S    
C25   C28   A    
C43   H41   S    
C26   C27   A    
C29   C30   S    
C31   O7    A    
C28   C29   S    
C24   N5    S    
C18   C19   A    
C33   O13   S    
C5    C6    A    
C28   N2    A    
C37   H18   S    
C13   O10   S    
O7    Zn1   S    
C3    H12   S    
C36   H11   S    
C2    C32   A    
C34   C35   A    
C31   O8    A    
C1    O2    A    
C25   N1    A    
C42   H37   S    
N3    H15   S    
O1    Zn1   S    
O2    Zn2   S    
N5    H27   S    
C16   C17   A    
N6    H36   S    
O10   C38   S    
C9    C10   A    
C37   H16   S    
C16   C24   S    
C21   C22   S    
C22   N4    S    
C42   H38   S    
O15   C43   S    
C27   N2    A    
C33   C34   A    
C7    C12   S    
C43   H42   S    
O8    Zn2   S    
C12   O4    A    
C23   O5    A    
C9    H13   S    
C22   O11   S    
C3    C8    A    
O13   C41   S    
C39   H25   S    
O11   C39   S    
C41   H34   S    
O5    Zn1   S    
C35   C36   A    
N4    H22   S    
N3    H14   S    
C39   H26   S    
O14   C42   S    
C20   C23   S    
N6    H35   S    
C41   H33   S    
C17   C18   A    
C8    C34   S    
N4    H23   S    
C29   O12   S    
C19   H3    S    
N5    H28   S    
C40   H30   S    
C29   H8    S    
C22   C24   S    
C3    C4    A    
C38   H20   S    
C2    C36   A    
C25   C30   S    
C23   O6    A    
O12   C40   S    
C11   O9    S    
C30   H10   S    
C4    C5    A    
C38   H21   S    
O6    Zn2   S    
C6    C7    A    
C43   H40   S    
C1    C17   S    
C32   C33   A    
C26   N1    A    
C9    C15   A    
C38   H19   S    
C6    O14   S    
C14   H1    S    
C11   C13   A    
O4    Zn2   S    
C10   O15   S    
C41   H32   S    
C24   H4    S    
C42   H39   S    
C18   H2    S    
C1    O1    A    
C5    C15   S    
C4    C31   S    
C10   C11   A    
C39   H24   S    
C27   H7    S    
C20   C21   A    
O9    C37   S    
C40   H31   S    
N1    Zn2   S    
C32   H6    S    
C14   C15   A    
N2    Zn1   S    
C13   C14   A    
C12   O3    A    
C2    N3    S    
C26   H5    S    
