data_mof_unit_53761.cif
_audit_creation_date              2012-12-11T14:46:05-0500
_audit_creation_method            fapswitch 2.2
_symmetry_space_group_name_H-M    P1
_symmetry_Int_Tables_number       1
_space_group_crystal_system       triclinic
_cell_length_a                    10.882386
_cell_length_b                    10.945537
_cell_length_c                    18.782837
_cell_angle_alpha                 90.259164
_cell_angle_beta                  89.695036
_cell_angle_gamma                 119.88572
_cell_volume                      1939.74581457

loop_
_atom_site_label
_atom_site_type_symbol
_atom_type_description
_atom_site_fract_x
_atom_site_fract_y
_atom_site_fract_z
_atom_type_partial_charge
C1    C     C_R   0.868196 0.636031 0.605123 0.545171
C2    C     C_R   0.938361 0.141164 0.708827 -0.001029
C3    C     C_R   0.955498 0.152996 0.783942 0.007812
C4    C     C_R   0.265564 0.629085 0.605312 0.547366
C5    C     C_R   0.738548 0.183271 0.720417 0.024692
C6    C     C_R   0.771962 0.218674 0.792264 0.014754
C7    C     C_R   0.609314 0.168859 0.695146 -0.077808
C8    C     C_R   0.532256 0.214398 0.735765 -0.138621
C9    C     C_R   0.580395 0.272400 0.802716 -0.114895
C10   C     C_R   0.700804 0.276803 0.830590 -0.067285
C11   C     C_R   0.835808 0.165982 0.676368 -0.036243
C12   C     C_R   0.269905 0.548210 0.796247 -0.146055
C13   C     C_R   0.707748 0.590594 0.707544 -0.130621
C14   C     C_R   0.690711 0.596386 0.780514 -0.124796
C15   C     C_R   0.809583 0.651247 0.825558 0.027725
C16   C     C_R   0.859375 0.224220 0.602980 0.539155
C17   C     C_R   0.944513 0.697221 0.797704 -0.130347
C18   C     C_R   0.961692 0.694855 0.725139 -0.114563
C19   C     C_R   0.844021 0.644473 0.679871 0.042485
C20   C     C_R   0.256424 0.538349 0.276231 -0.133895
C21   C     C_R   0.267928 0.553108 0.203564 -0.136589
C22   C     C_R   0.332758 0.687632 0.173639 0.022455
C23   C     C_R   0.254477 0.533531 0.723580 -0.132887
C24   C     C_R   0.371024 0.806416 0.216873 -0.140564
C25   C     C_R   0.353840 0.790582 0.290342 -0.147399
C26   C     C_R   0.301357 0.656715 0.320203 0.029558
C27   C     C_R   0.804396 0.293988 0.267610 -0.137328
C28   C     C_R   0.869101 0.637053 0.395897 0.539416
C29   C     C_R   0.793395 0.258842 0.196054 -0.129251
C30   C     C_R   0.857386 0.183651 0.169569 0.023620
C31   C     C_R   0.942946 0.155281 0.214101 -0.145522
C32   C     C_R   0.954830 0.191679 0.285714 -0.140924
C33   C     C_R   0.881736 0.257318 0.313133 0.026989
C34   C     C_R   0.298137 0.652507 0.680335 0.026469
C35   C     C_R   0.964679 0.709843 0.276441 -0.128746
C36   C     C_R   0.948674 0.711224 0.203858 -0.137762
C37   C     C_R   0.812892 0.651622 0.175096 0.024289
C38   C     C_R   0.692668 0.580132 0.219131 -0.139420
C39   C     C_R   0.708990 0.577330 0.292321 -0.153847
C40   C     C_R   0.267520 0.631512 0.395140 0.540003
C41   C     C_R   0.845196 0.646478 0.321125 0.029276
C42   C     C_R   0.812564 0.109455 0.896624 0.531980
C43   C     C_R   0.393472 0.700681 0.897186 0.543656
C44   C     C_R   0.796711 0.690448 0.897413 0.541921
C45   C     C_R   0.862323 0.179437 0.826236 -0.044391
C46   C     C_R   0.809868 0.110339 0.101611 0.543488
C47   C     C_R   0.393205 0.704375 0.103061 0.544988
C48   C     C_R   0.797453 0.693070 0.104172 0.545660
C49   C     C_R   0.887678 0.291785 0.388464 0.558215
C50   C     C_R   0.349941 0.785768 0.710966 -0.154833
C51   C     C_R   0.368552 0.801165 0.784240 -0.141154
C52   C     C_R   0.333512 0.682537 0.826671 0.019983
C53   C     C_R   0.066309 0.138895 0.814414 -0.083494
C54   C     C_R   0.147447 0.099313 0.773049 -0.129338
C55   C     C_R   0.122706 0.076669 0.700344 -0.121111
C56   C     C_R   0.020340 0.098772 0.668176 -0.085189
Cr1   Cr    Cr6+3 0.791660 0.390250 0.499930 1.012321
Cr2   Cr    Cr6+3 0.098520 0.708290 0.500540 1.002261
Cr3   Cr    Cr6+3 0.109770 0.401430 0.499480 1.006444
Cr4   Cr    Cr6+3 0.874790 0.925890 0.000070 1.009502
Cr5   Cr    Cr6+3 0.574120 0.948670 0.999300 1.010411
Cr6   Cr    Cr6+3 0.551420 0.625320 0.000920 1.001843
H1    H     H_    0.377455 0.877038 0.678251 0.111585
H2    H     H_    0.235928 0.459870 0.171181 0.132333
H3    H     H_    0.421875 0.911567 0.194582 0.138772
H4    H     H_    0.417806 0.906174 0.806904 0.147694
H5    H     H_    0.383920 0.882105 0.323718 0.127283
H6    H     H_    0.749298 0.346207 0.287921 0.131905
H7    H     H_    0.727556 0.282768 0.162430 0.130411
H8    H     H_    0.992527 0.096661 0.194907 0.135612
H9    H     H_    0.016961 0.163937 0.319905 0.134204
H10   H     H_    0.071148 0.758050 0.297615 0.144107
H11   H     H_    0.042372 0.765662 0.170645 0.129454
H12   H     H_    0.436443 0.206660 0.714656 0.104022
H13   H     H_    0.586508 0.534181 0.197699 0.142260
H14   H     H_    0.616410 0.523851 0.326294 0.124351
H15   H     H_    0.240331 0.455277 0.828127 0.128293
H16   H     H_    0.207042 0.428232 0.701383 0.152325
H17   H     H_    0.229400 0.085539 0.797690 0.104355
H18   H     H_    0.183749 0.042852 0.668627 0.110841
H19   H     H_    0.094182 0.162050 0.869922 0.126788
H20   H     H_    0.002520 0.077686 0.611718 0.131739
H21   H     H_    0.734080 0.318829 0.883770 0.119642
H22   H     H_    0.564620 0.119336 0.644619 0.131826
H23   H     H_    0.522126 0.310135 0.833934 0.107803
H24   H     H_    0.616288 0.548354 0.672881 0.118981
H25   H     H_    0.585766 0.563740 0.801280 0.138920
H26   H     H_    0.037099 0.741223 0.831691 0.124835
H27   H     H_    0.067396 0.732506 0.704259 0.140874
H28   H     H_    0.211010 0.433286 0.297951 0.136914
O1    O     O_R   0.766500 0.250040 0.579790 -0.518054
O2    O     O_R   0.413330 0.603360 0.920440 -0.530381
O3    O     O_R   0.676110 0.626250 0.926750 -0.512707
O4    O     O_R   0.798570 0.516780 0.574780 -0.493779
O5    O     O_R   0.895350 0.809870 0.080950 -0.522969
O6    O     O_R   0.872490 0.049760 0.073800 -0.506172
O7    O     O_R   0.691680 0.088070 0.079070 -0.526659
O8    O     O_R   0.451720 0.825250 0.074050 -0.505005
O9    O     O_R   0.413580 0.606370 0.080960 -0.525952
O10   O     O_R   0.676340 0.629040 0.075550 -0.507163
O11   O     O_3   0.666780 0.833290 0.000090 -0.234449
O12   O     O_R   0.218690 0.701900 0.425960 -0.507134
O13   O     O_R   0.984000 0.732950 0.581090 -0.527599
O14   O     O_R   0.218600 0.700890 0.574760 -0.507108
O15   O     O_R   0.249390 0.515350 0.579940 -0.521030
O16   O     O_R   0.982790 0.280900 0.573700 -0.500607
O17   O     O_R   0.766600 0.251130 0.419260 -0.511344
O18   O     O_R   0.798660 0.517790 0.425980 -0.522085
O19   O     O_R   0.984100 0.734040 0.420570 -0.519915
O20   O     O_R   0.249490 0.516440 0.419420 -0.529937
O21   O     O_R   0.982880 0.281910 0.424890 -0.510223
O22   O     O_3   0.999980 0.499990 0.499980 -0.264435
O23   O     O_R   0.895110 0.806860 0.920430 -0.515497
O24   O     O_R   0.872260 0.046970 0.925000 -0.504131
O25   O     O_R   0.691430 0.085060 0.918550 -0.518117
O26   O     O_R   0.451490 0.822460 0.925250 -0.503678

loop_
_geom_bond_atom_site_label_1
_geom_bond_atom_site_label_2
_ccdc_geom_bond_type
C55   C56   A    
C6    C45   A    
C27   C29   A    
Cr2   O19   S    
C10   H21   S    
Cr4   O24   S    
Cr5   O8    S    
C25   H5    S    
C7    C8    A    
C39   C41   A    
C53   C54   A    
C27   C33   A    
C12   C23   A    
C29   C30   A    
C47   O8    A    
Cr2   O22   S    
C36   C37   A    
C48   O5    A    
C14   H25   S    
C5    C11   A    
C30   C31   A    
C43   C52   S    
Cr1   O22   S    
C33   C49   S    
C17   H26   S    
C28   C41   S    
Cr3   O20   S    
C47   O9    A    
C53   H19   S    
C18   C19   A    
C21   H2    S    
C44   O3    A    
C9    H23   S    
C42   O24   A    
C31   H8    S    
C35   C36   A    
C1    O4    A    
Cr6   O2    S    
C13   H24   S    
Cr5   O25   S    
Cr3   O21   S    
Cr2   O12   S    
C9    C10   A    
C1    O13   A    
C16   O16   A    
C49   O21   A    
Cr6   O11   S    
C7    H22   S    
C13   C14   A    
C50   H1    S    
Cr4   O23   S    
C2    C11   A    
C12   C52   A    
C50   C51   A    
C32   H9    S    
C29   H7    S    
C38   H13   S    
C38   C39   A    
C48   O10   A    
C4    C34   S    
C1    C19   S    
Cr3   O16   S    
C34   C50   A    
C13   C19   A    
C51   C52   A    
C24   C25   A    
C49   O17   A    
C5    C7    A    
C8    C9    A    
C40   O20   A    
C25   C26   A    
C20   H28   S    
C3    C45   A    
C42   C45   S    
Cr5   O11   S    
C6    C10   A    
C37   C38   A    
C43   O26   A    
C11   C16   S    
C31   C32   A    
C23   C34   A    
C12   H15   S    
Cr5   O26   S    
C8    H12   S    
Cr3   O22   S    
Cr3   O15   S    
C39   H14   S    
C37   C48   S    
C24   H3    S    
Cr6   O10   S    
Cr4   O6    S    
Cr1   O17   S    
C46   O7    A    
C35   H10   S    
Cr1   O4    S    
C15   C44   S    
C22   C24   A    
Cr2   O14   S    
Cr4   O11   S    
C54   H17   S    
C15   C17   A    
C54   C55   A    
Cr1   O1    S    
C18   H27   S    
C30   C46   S    
Cr5   O7    S    
C44   O23   A    
C56   H20   S    
C28   O19   A    
C4    O15   A    
C43   O2    A    
C17   C18   A    
C32   C33   A    
C2    C3    A    
C2    C56   A    
C55   H18   S    
C3    C53   A    
C26   C40   S    
C5    C6    A    
C20   C26   A    
C28   O18   A    
C4    O14   A    
C22   C47   S    
C23   H16   S    
C35   C41   A    
C36   H11   S    
C40   O12   A    
Cr6   O9    S    
Cr4   O5    S    
C42   O25   A    
Cr1   O18   S    
C46   O6    A    
C20   C21   A    
C16   O1    A    
Cr6   O3    S    
C14   C15   A    
Cr2   O13   S    
C27   H6    S    
C21   C22   A    
C51   H4    S    
