data_mof_unit_26505.cif
_audit_creation_date              2013-03-05T16:45:23-0500
_audit_creation_method            fapswitch 2.2
_symmetry_space_group_name_H-M    P1
_symmetry_Int_Tables_number       1
_space_group_crystal_system       triclinic
_cell_length_a                    8.876717
_cell_length_b                    10.64817
_cell_length_c                    10.007315
_cell_angle_alpha                 90.925547
_cell_angle_beta                  90.338686
_cell_angle_gamma                 91.908483
_cell_volume                      945.231614591

loop_
_atom_site_label
_atom_site_type_symbol
_atom_site_description
_atom_site_fract_x
_atom_site_fract_y
_atom_site_fract_z
_atom_type_partial_charge
O1    O     O_R   0.500020 0.316790 0.614690 -0.635952
O2    O     O_R   0.500000 0.316760 0.385350 -0.599278
C1    C     C_R   0.497372 0.260911 0.498734 0.959479
O3    O     O_R   0.285350 0.500020 0.614650 -0.626050
O4    O     O_R   0.285340 0.499980 0.385310 -0.561354
C2    C     C_R   0.219274 0.500762 0.499772 0.958260
Zn1   Zn    Zn3+2 0.500010 0.500020 0.653130 0.976221
Zn2   Zn    Zn3+2 0.499990 0.499980 0.346870 1.010344
O5    O     O_R   0.500000 0.683240 0.614650 -0.585665
O6    O     O_R   0.499980 0.683210 0.385310 -0.638873
O7    O     O_R   0.714660 0.500020 0.614690 -0.648059
O8    O     O_R   0.714650 0.499980 0.385350 -0.606160
C3    C     C_R   0.499117 0.738972 0.501232 0.910843
C4    C     C_R   0.780778 0.500601 0.500265 0.941572
C5    C     C_1   0.065610 0.501259 0.499726 -0.082264
C6    C     C_1   0.934482 0.501187 0.500376 -0.102396
C7    C     C_R   0.620349 0.068142 0.533238 -0.025238
C8    C     C_R   0.492443 0.128747 0.494051 -0.220737
C9    C     C_R   0.367050 0.060245 0.439106 0.292329
C10   C     C_R   0.364159 0.928213 0.446028 0.040108
C11   C     C_R   0.489640 0.870597 0.503005 -0.077172
C12   C     C_R   0.616458 0.941052 0.542512 -0.050354
C13   C     C_3   0.714408 0.945626 0.666697 0.518247
C14   C     C_3   0.725353 0.088949 0.649594 -0.202623
H1    H     H_    0.674615 0.143571 0.732561 0.201121
C15   C     C_R   0.375443 0.461513 0.069434 0.045524
N1    N     N_R   0.499010 0.499140 0.142800 -0.143176
C16   C     C_R   0.610489 0.564181 0.073608 0.208647
C17   C     C_R   0.614360 0.558968 0.929581 0.171248
N2    N     N_R   0.499010 0.499180 0.857150 -0.125350
C18   C     C_R   0.377177 0.456710 0.929167 0.146885
C19   C     C_3   0.291464 0.330977 0.927850 0.102451
C20   C     C_3   0.281764 0.344151 0.081894 0.145009
H2    H     H_    0.339714 0.272147 0.140661 0.154013
N3    N     N_R   0.244035 0.123514 0.379084 0.193995
O9    O     O_R   0.193498 0.087537 0.261854 -0.357147
O10   O     O_R   0.181774 0.216454 0.441049 -0.444403
C21   C     C_3   0.384477 0.216915 0.887816 -0.735411
H3    H     H_    0.505494 0.232916 0.914033 0.219813
H4    H     H_    0.341585 0.132323 0.940978 0.274643
H5    H     H_    0.372998 0.194739 0.779890 0.268358
N4    N     N_R   0.129740 0.368515 0.131317 0.245038
O11   O     O_R   0.032226 0.275700 0.143984 -0.305486
O12   O     O_R   0.088552 0.482254 0.158641 -0.409871
C22   C     C_3   0.224772 0.849702 0.406810 -0.645484
H6    H     H_    0.243638 0.800342 0.310115 0.249101
H7    H     H_    0.199336 0.779179 0.484715 0.218744
H8    H     H_    0.122530 0.906031 0.398717 0.283265
N5    N     N_R   0.636706 0.912175 0.791240 0.164655
O13   O     O_R   0.491256 0.892123 0.793669 -0.388828
O14   O     O_R   0.708955 0.925609 0.904334 -0.368232
N6    N     N_R   0.856227 0.879941 0.650020 0.179501
O15   O     O_R   0.962766 0.893565 0.739454 -0.346209
O16   O     O_R   0.873947 0.802230 0.550063 -0.474314
C23   C     C_3   0.878258 0.143971 0.605236 -0.683893
H9    H     H_    0.921267 0.092506 0.516570 0.292420
H10   H     H_    0.866582 0.243990 0.579202 0.221816
H11   H     H_    0.961121 0.138869 0.688042 0.259648
C24   C     C_3   0.725674 0.648163 0.146058 -0.698311
H12   H     H_    0.701793 0.666265 0.250556 0.279587
H13   H     H_    0.839170 0.608426 0.138033 0.259973
H14   H     H_    0.726060 0.743688 0.103368 0.245123
C25   C     C_3   0.749125 0.614164 0.857042 -0.628903
H15   H     H_    0.822985 0.537026 0.826494 0.218363
H16   H     H_    0.711758 0.669400 0.771550 0.282701
H17   H     H_    0.822578 0.680006 0.915960 0.237006
C26   C     C_3   0.140111 0.333928 0.852220 -0.695589
H18   H     H_    0.158223 0.325278 0.743023 0.241796
H19   H     H_    0.065963 0.253469 0.882339 0.261400
H20   H     H_    0.081666 0.422804 0.872829 0.233532

loop_
_geom_bond_atom_site_label_1
_geom_bond_atom_site_label_2
_geom_bond_distance
_ccdc_geom_bond_type
O4    Zn2   1.946058 S    
Zn1   O7    1.946059 S    
C23   H9    1.111584 S    
C25   H16   1.101727 S    
C17   N2    1.382759 A    
C19   C21   1.540234 S    
C16   C24   1.510029 S    
C15   C20   1.485199 S    
C18   C19   1.517549 S    
C9    C10   1.408108 A    
O8    C4    1.287871 A    
Zn2   O8    1.941765 S    
C26   H20   1.111294 S    
C19   C20   1.548842 S    
N5    O14   1.301059 A    
C17   C25   1.510190 S    
C7    C8    1.382414 A    
C15   N1    1.361758 A    
C25   H17   1.102709 S    
C3    C11   1.406718 S    
C15   C18   1.403997 A    
Zn1   N2    2.041927 S    
C9    N3    1.435748 S    
C22   H6    1.109952 S    
C14   H1    1.112107 S    
C14   C23   1.531380 S    
C21   H4    1.111021 S    
C13   N6    1.469423 S    
O4    C2    1.289971 A    
N4    O12   1.302003 A    
C21   H5    1.105220 S    
C19   C26   1.539615 S    
O1    Zn1   1.982523 S    
C20   N4    1.469715 S    
O3    C2    1.287769 A    
C16   C17   1.442152 A    
N3    O10   1.300001 A    
N6    O16   1.301484 A    
C20   H2    1.111567 S    
O2    C1    1.289523 A    
C23   H10   1.108548 S    
N2    C18   1.371383 A    
O7    C4    1.289828 A    
C4    C6    1.364184 S    
C13   N5    1.471099 S    
C7    C14   1.496260 S    
C24   H13   1.108485 S    
N4    O11   1.300174 A    
C13   C14   1.538355 S    
C26   H18   1.108272 S    
C10   C22   1.516117 S    
C24   H12   1.083749 S    
C21   H3    1.111254 S    
C10   C11   1.411201 A    
C1    C8    1.406543 S    
Zn2   O6    1.982522 S    
N5    O13   1.302057 A    
C22   H7    1.110137 S    
C26   H19   1.109591 S    
N1    C16   1.384305 A    
Zn1   O5    1.994693 S    
Zn2   N1    2.042034 S    
C23   H11   1.107963 S    
C12   C13   1.511703 S    
C8    C9    1.413885 A    
C24   H14   1.109490 S    
O5    C3    1.289361 A    
C22   H8    1.107686 S    
O3    Zn1   1.941765 S    
C2    C5    1.364210 S    
C11   C12   1.383941 A    
O6    C3    1.294806 A    
C5    C6    1.164024 T    
O2    Zn2   1.994695 S    
C7    C12   1.357262 A    
N6    O15   1.301193 A    
C25   H15   1.108194 S    
O1    C1    1.295207 A    
N3    O9    1.300815 A    
