data_mof_unit_55750.cif
_audit_creation_date              2012-12-11T14:08:24-0500
_audit_creation_method            fapswitch 2.2
_symmetry_space_group_name_H-M    P1
_symmetry_Int_Tables_number       1
_space_group_crystal_system       triclinic
_cell_length_a                    10.875753
_cell_length_b                    11.00633
_cell_length_c                    18.85639
_cell_angle_alpha                 90.742075
_cell_angle_beta                  90.506599
_cell_angle_gamma                 60.348441
_cell_volume                      1961.40418186

loop_
_atom_site_label
_atom_site_type_symbol
_atom_type_description
_atom_site_fract_x
_atom_site_fract_y
_atom_site_fract_z
_atom_type_partial_charge
C1    C     C_R   0.231792 0.648557 0.606587 0.603708
C2    C     C_3   0.706658 0.530730 0.800016 0.676993
C3    C     C_3   0.693457 0.676272 0.813566 0.012017
C4    C     C_3   0.666366 0.645416 0.678172 -0.129272
C5    C     C_3   0.794641 0.666582 0.690477 -0.252389
C6    C     C_3   0.685490 0.515285 0.720144 0.557400
C7    C     C_2   0.680335 0.145758 0.667045 -0.071009
C8    C     C_2   0.687315 0.164338 0.827665 0.256033
C9    C     C_2   0.799264 0.118193 0.783053 0.464039
C10   C     C_2   0.787088 0.141359 0.705294 0.494539
C11   C     C_2   0.171975 0.677658 0.677251 0.215074
C12   C     C_R   0.652927 0.620600 0.602289 0.574662
C13   C     C_2   0.123903 0.699504 0.832175 0.001041
C14   C     C_2   0.186407 0.579707 0.796905 -0.044562
C15   C     C_2   0.179662 0.574191 0.719346 0.209029
C16   C     C_2   0.598659 0.594095 0.312291 0.376729
C17   C     C_2   0.642319 0.676912 0.163663 0.245306
C18   C     C_2   0.686958 0.549937 0.191375 0.286658
C19   C     C_2   0.709584 0.531644 0.267620 0.323642
C20   C     C_2   0.585526 0.289782 0.313275 0.310083
C21   C     C_2   0.644825 0.172070 0.171891 0.006580
C22   C     C_2   0.514184 0.263551 0.194214 0.280475
C23   C     C_R   0.631113 0.222971 0.600189 0.613711
C24   C     C_2   0.488815 0.282633 0.270496 0.270416
C25   C     C_2   0.145194 0.675094 0.334693 0.432865
C26   C     C_2   0.004712 0.745834 0.193602 0.372121
C27   C     C_2   0.015184 0.836329 0.238566 0.409936
C28   C     C_2   0.048444 0.804729 0.314242 0.436991
C29   C     C_R   0.703552 0.100888 0.897266 0.642560
C30   C     C_R   0.721371 0.688380 0.888983 0.655291
C31   C     C_R   0.112979 0.709374 0.906777 0.592536
C32   C     C_R   0.673910 0.110989 0.102588 0.571819
C33   C     C_R   0.692367 0.689949 0.094805 0.582927
C34   C     C_R   0.219059 0.649996 0.402116 0.582641
C35   C     C_R   0.015228 0.753829 0.116744 0.580866
C36   C     C_R   0.611315 0.583296 0.389267 0.556958
C37   C     C_R   0.575060 0.301119 0.389556 0.569206
C38   C     C_3   0.543609 0.796279 0.786477 0.384852
C39   C     C_3   0.531483 0.776958 0.706158 -0.212931
C40   C     C_3   0.812567 0.682481 0.770306 0.145309
Cr1   Cr    Cr6+3 0.393010 0.398050 0.501480 1.167081
Cr2   Cr    Cr6+3 0.398820 0.707980 0.501630 1.162747
Cr3   Cr    Cr6+3 0.708140 0.393940 0.496850 1.223355
Cr4   Cr    Cr6+3 0.937950 0.938450 0.008940 1.218828
Cr5   Cr    Cr6+3 0.626180 0.937030 0.994750 1.208375
Cr6   Cr    Cr6+3 0.937790 0.625760 0.001410 1.204025
H1    H     H_    0.917999 0.596132 0.786646 0.202399
H2    H     H_    0.892342 0.575874 0.669045 0.204810
H3    H     H_    0.611138 0.112968 0.690832 0.146702
H4    H     H_    0.239066 0.482739 0.826122 0.232301
H5    H     H_    0.044023 0.792692 0.807562 0.236638
H6    H     H_    0.731817 0.118764 0.208885 0.187451
H7    H     H_    0.435103 0.769613 0.694796 0.238534
H8    H     H_    0.517225 0.869197 0.675748 0.185546
H9    H     H_    0.779260 0.760993 0.661867 0.172911
O1    O     O_R   0.507110 0.256280 0.580300 -0.458541
O2    O     O_R   0.524640 0.695370 0.425100 -0.448620
O3    O     O_R   0.735890 0.504390 0.415980 -0.476832
O4    O     O_R   0.690560 0.277820 0.422350 -0.436013
O5    O     O_3   0.499990 0.499990 0.499980 -0.379080
O6    O     O_R   0.089190 0.825870 0.932320 -0.418950
O7    O     O_R   0.819070 0.053960 0.931440 -0.456929
O8    O     O_R   0.607070 0.076440 0.916460 -0.423582
O9    O     O_R   0.647110 0.806550 0.917690 -0.438597
O10   O     O_R   0.837080 0.593860 0.915300 -0.454039
O11   O     O_R   0.064770 0.636080 0.932550 -0.512422
O12   O     O_R   0.280830 0.527190 0.577940 -0.457723
O13   O     O_R   0.068250 0.829200 0.092940 -0.437962
O14   O     O_R   0.799650 0.057040 0.080330 -0.485660
O15   O     O_R   0.586130 0.079760 0.077080 -0.456009
O16   O     O_R   0.627700 0.809630 0.066580 -0.476398
O17   O     O_R   0.816140 0.597180 0.075920 -0.449869
O18   O     O_R   0.045360 0.639170 0.081440 -0.410322
O19   O     O_3   0.833980 0.833750 0.001700 -0.387055
O20   O     O_R   0.261360 0.738990 0.584270 -0.452347
O21   O     O_R   0.532590 0.694780 0.574370 -0.507757
O22   O     O_R   0.744470 0.503750 0.577000 -0.411644
O23   O     O_R   0.698520 0.277230 0.571620 -0.404392
O24   O     O_R   0.498530 0.256920 0.419280 -0.474633
O25   O     O_R   0.272880 0.527780 0.428680 -0.498520
O26   O     O_R   0.252780 0.739630 0.423250 -0.450665
Cl1   Cl    Cl    0.513647 0.970526 0.798249 -0.389158
F1    F     F_    0.804825 0.397245 0.695894 -0.489899
F2    F     F_    0.932359 0.049015 0.810206 -0.523192
F3    F     F_    0.893981 0.147267 0.671635 -0.453515
Cl2   Cl    Cl    0.511030 0.278798 0.802589 -0.461390
Cl3   Cl    Cl    0.204572 0.412615 0.685812 -0.437030
Cl4   Cl    Cl    0.400238 0.795308 0.832694 -0.358845
Cl5   Cl    Cl    0.140565 0.845653 0.707480 -0.413805
Cl6   Cl    Cl    0.756628 0.396682 0.138122 -0.412734
Cl7   Cl    Cl    0.889202 0.431808 0.293893 -0.257988
Cl8   Cl    Cl    0.568587 0.831940 0.216495 -0.453573
F4    F     F_    0.464783 0.664447 0.285426 -0.591889
Cl9   Cl    Cl    0.368932 0.349015 0.135531 -0.346925
Cl10  Cl    Cl    0.340761 0.272200 0.301212 -0.283971
F5    F     F_    0.698831 0.292298 0.285344 -0.622252
F6    F     F_    0.011236 0.954033 0.214151 -0.536782
F7    F     F_    0.002262 0.914133 0.360748 -0.564093
F8    F     F_    0.981699 0.643446 0.218950 -0.562889
F9    F     F_    0.202877 0.568182 0.287035 -0.553507
F10   F     F_    0.812726 0.806544 0.783304 -0.671056
F11   F     F_    0.840194 0.424851 0.819939 -0.507655
F12   F     F_    0.610518 0.514401 0.840901 -0.529861
Cl11  Cl    Cl    0.535927 0.491522 0.704255 -0.489983

loop_
_geom_bond_atom_site_label_1
_geom_bond_atom_site_label_2
_ccdc_geom_bond_type
C7    C10   D    
C29   O8    A    
C10   F3    S    
C30   O9    A    
C31   O11   A    
C31   O6    A    
C1    C11   S    
Cr1   O25   S    
C23   O1    A    
Cr1   O12   S    
C39   H7    S    
C25   C28   D    
C37   O24   A    
Cr2   O20   S    
C8    C29   S    
C35   O13   A    
Cr6   O11   S    
C36   O3    A    
C38   C39   S    
C39   H8    S    
Cr5   O16   S    
C2    F11   S    
C18   C19   S    
C33   O17   A    
C34   O25   A    
C40   F10   S    
C13   H5    S    
C11   C15   D    
C35   O18   A    
C20   C24   D    
C3    C38   S    
C8    C9    D    
C34   O26   A    
C6    Cl11  S    
C4    C12   S    
C9    C10   S    
Cr6   O17   S    
Cr3   O3    S    
Cr3   O4    S    
C25   C34   S    
C20   F5    S    
C21   C22   D    
C38   Cl1   S    
C22   Cl9   S    
C2    C6    S    
Cr2   O26   S    
C17   C33   S    
Cr2   O2    S    
C5    H2    S    
C13   C31   S    
C21   C32   S    
C18   Cl6   S    
C7    H3    S    
Cr6   O10   S    
C4    C6    S    
C36   O2    A    
C24   Cl10  S    
Cr2   O5    S    
C32   O15   A    
Cr4   O7    S    
C40   H1    S    
Cr5   O8    S    
C38   Cl4   S    
Cr5   O19   S    
Cr3   O23   S    
C1    O20   A    
C3    C30   S    
Cr1   O1    S    
C11   Cl5   S    
C25   F9    S    
C4    C39   S    
C12   O22   A    
C17   C18   D    
C16   F4    S    
Cr4   O14   S    
Cr4   O19   S    
C37   O4    A    
Cr3   O5    S    
C3    C40   S    
C12   O21   A    
C26   C27   D    
C22   C24   S    
Cr4   O13   S    
Cr6   O19   S    
C15   Cl3   S    
C28   F7    S    
C29   O7    A    
C27   F6    S    
C6    F1    S    
Cr5   O15   S    
C5    H9    S    
Cr1   O5    S    
C4    C5    S    
Cr1   O24   S    
C32   O14   A    
Cr4   O6    S    
Cr3   O22   S    
C26   F8    S    
Cr5   O9    S    
Cr2   O21   S    
C2    C3    S    
C16   C36   S    
C20   C37   S    
C14   H4    S    
C2    F12   S    
C16   C19   D    
C7    C23   S    
C1    O12   A    
C8    Cl2   S    
C21   H6    S    
C23   O23   A    
C30   O10   A    
C19   Cl7   S    
C33   O16   A    
C9    F2    S    
C17   Cl8   S    
C26   C35   S    
C5    C40   S    
C27   C28   S    
C14   C15   S    
C13   C14   D    
Cr6   O18   S    
