data_mof_unit_7358.cif
_audit_creation_date              2013-03-05T15:45:14-0500
_audit_creation_method            fapswitch 2.2
_symmetry_space_group_name_H-M    P1
_symmetry_Int_Tables_number       1
_space_group_crystal_system       triclinic
_cell_length_a                    16.888403
_cell_length_b                    7.187351
_cell_length_c                    16.935715
_cell_angle_alpha                 88.451714
_cell_angle_beta                  100.436585
_cell_angle_gamma                 91.594951
_cell_volume                      2020.40794099

loop_
_atom_site_label
_atom_site_type_symbol
_atom_site_description
_atom_site_fract_x
_atom_site_fract_y
_atom_site_fract_z
_atom_type_partial_charge
O1    O     O_R   0.579510 0.506290 0.439030 -0.575804
O2    O     O_R   0.420490 0.006290 0.560970 -0.570261
O3    O     O_R   0.412540 0.170090 0.405290 -0.536353
O4    O     O_R   0.587460 0.670090 0.594710 -0.525769
C1    C     C_R   0.387667 0.347826 0.379985 1.000020
C2    C     C_R   0.612275 0.846989 0.620183 1.023501
O5    O     O_R   0.578390 0.176230 0.429330 -0.579048
O6    O     O_R   0.421610 0.676230 0.570670 -0.558315
O7    O     O_R   0.587530 0.011250 0.585190 -0.555568
O8    O     O_R   0.412470 0.511250 0.414810 -0.547176
C3    C     C_R   0.605674 0.349056 0.415437 1.086966
C4    C     C_R   0.394532 0.840429 0.585513 1.060017
O9    O     O_3   0.502800 0.340940 0.551110 -0.218691
O10   O     O_3   0.497200 0.840940 0.448890 -0.234063
V1    V     V_3+5 0.499480 0.064020 0.490520 1.396956
V2    V     V_3+5 0.500520 0.564020 0.509480 1.425356
C5    C     C_R   0.163405 0.928180 0.857125 -0.318969
C6    C     C_R   0.835509 0.391352 0.140577 -0.337442
C7    C     C_R   0.331556 0.831740 0.637939 -0.307849
C8    C     C_R   0.669689 0.378125 0.365420 -0.279701
C9    C     C_R   0.221071 0.666594 0.688280 -0.192357
C10   C     C_R   0.774343 0.580688 0.323435 -0.192345
C11   C     C_R   0.276431 0.677517 0.635850 0.369018
C12   C     C_R   0.723060 0.535416 0.377602 0.369201
C13   C     C_R   0.328617 0.971216 0.694318 -0.064011
C14   C     C_R   0.672589 0.264519 0.299847 -0.096431
C15   C     C_R   0.273956 0.956374 0.748593 0.102353
C16   C     C_R   0.725827 0.308766 0.246302 0.109400
C17   C     C_R   0.219661 0.802158 0.745974 -0.016196
C18   C     C_R   0.776552 0.469998 0.257190 -0.015691
C19   C     C_R   0.164118 0.788050 0.799997 0.328044
C20   C     C_R   0.831097 0.512459 0.203970 0.320272
C21   C     C_R   0.218618 0.079182 0.859128 -0.012916
C22   C     C_R   0.784453 0.231934 0.131378 -0.001096
C23   C     C_R   0.272898 0.093394 0.805704 -0.078826
C24   C     C_R   0.729826 0.192466 0.182528 -0.053583
C25   C     C_3   0.730530 0.806342 0.855200 0.324591
C26   C     C_3   0.269417 0.322313 0.144784 0.312932
C27   C     C_3   0.655772 0.777712 0.778505 0.334320
C28   C     C_3   0.343942 0.293347 0.221774 0.339296
H1    H     H_    0.845527 0.646128 0.768396 0.260535
H2    H     H_    0.154611 0.137114 0.232313 0.248464
H3    H     H_    0.746066 0.639894 0.656809 0.277838
H4    H     H_    0.253112 0.131451 0.346269 0.248261
C29   C     C_3   0.826940 0.789462 0.750202 -0.317655
C30   C     C_3   0.172992 0.280873 0.250158 -0.318882
C31   C     C_3   0.780487 0.096374 0.780820 -0.444369
C32   C     C_3   0.219995 0.597071 0.218006 -0.447557
C33   C     C_3   0.805686 0.902960 0.820420 -0.257898
C34   C     C_3   0.194341 0.405088 0.179449 -0.251745
H5    H     H_    0.831730 0.151722 0.753538 0.210092
H6    H     H_    0.168328 0.645351 0.243741 0.225501
H7    H     H_    0.777185 0.205252 0.824263 0.290891
H8    H     H_    0.224497 0.709247 0.173591 0.286455
C35   C     C_3   0.678985 0.871683 0.696902 -0.473103
C36   C     C_3   0.320863 0.374696 0.303310 -0.448777
C37   C     C_3   0.756760 0.783243 0.678011 -0.295342
C38   C     C_3   0.242923 0.275473 0.322801 -0.320757
C39   C     C_3   0.701169 0.084418 0.715890 0.513145
C40   C     C_3   0.298806 0.587298 0.283820 0.518633
H9    H     H_    0.880348 0.855533 0.729709 0.198064
H10   H     H_    0.119362 0.337609 0.270166 0.187790
O11   O     O_R   0.087500 0.266000 0.085220 -0.574925
O12   O     O_R   0.912500 0.766000 0.914780 -0.565048
O13   O     O_R   0.921600 0.589950 0.070670 -0.556590
O14   O     O_R   0.078400 0.089950 0.929330 -0.590186
C41   C     C_R   0.896205 0.417718 0.086820 1.041622
C42   C     C_R   0.103701 0.925066 0.912647 1.046039
O15   O     O_R   0.087460 0.596020 0.094710 -0.561287
O16   O     O_R   0.912540 0.096020 0.905290 -0.570844
O17   O     O_R   0.079520 0.760970 0.939020 -0.542768
O18   O     O_R   0.920480 0.260970 0.060980 -0.594021
C43   C     C_R   0.117897 0.425972 0.114620 1.005405
C44   C     C_R   0.881997 0.925242 0.885343 1.006284
O19   O     O_3   0.997180 0.425140 0.948910 -0.244002
O20   O     O_3   0.002820 0.925140 0.051090 -0.262984
V3    V     V_3+5 0.000520 0.702080 0.009480 1.356271
V4    V     V_3+5 0.999480 0.202080 0.990520 1.326987
N1    N     N_R   0.106269 0.636864 0.794233 0.235049
O21   O     O_R   0.029953 0.668472 0.771651 -0.414794
O22   O     O_R   0.129489 0.468652 0.814805 -0.399876
N2    N     N_R   0.885289 0.670276 0.217650 0.234877
O23   O     O_R   0.857752 0.838109 0.207944 -0.406156
O24   O     O_R   0.962287 0.646265 0.239615 -0.392946
N3    N     N_R   0.641886 0.580778 0.763202 0.274936
O25   O     O_R   0.569411 0.508861 0.756034 -0.227582
O26   O     O_R   0.701416 0.477765 0.755356 -0.399215
N4    N     N_R   0.357220 0.096264 0.237468 0.277699
O27   O     O_R   0.429911 0.033217 0.247095 -0.244715
O28   O     O_R   0.297559 0.985622 0.246234 -0.394289
N5    N     N_R   0.632690 0.164561 0.746552 0.263401
O29   O     O_R   0.564444 0.193826 0.698934 -0.270699
O30   O     O_R   0.636154 0.194876 0.822568 -0.253610
N6    N     N_R   0.367487 0.680078 0.253512 0.264052
O31   O     O_R   0.435585 0.711594 0.301415 -0.260954
O32   O     O_R   0.364426 0.719226 0.177477 -0.256935
N7    N     N_R   0.716435 0.193960 0.643753 0.242382
O33   O     O_R   0.780958 0.171364 0.613418 -0.385723
O34   O     O_R   0.668863 0.326365 0.612704 -0.302206
N8    N     N_R   0.282686 0.686137 0.355603 0.237226
O35   O     O_R   0.215362 0.659386 0.381852 -0.382571
O36   O     O_R   0.330867 0.818018 0.388442 -0.337497
H11   H     H_    0.775878 0.852329 0.625316 0.242403
H12   H     H_    0.223844 0.339556 0.374678 0.232646
H13   H     H_    0.219814 0.187679 0.902522 0.199640
H14   H     H_    0.787779 0.133806 0.085109 0.214879
H15   H     H_    0.179692 0.548032 0.683775 0.200089
H16   H     H_    0.814655 0.700276 0.335684 0.208022
H17   H     H_    0.314067 0.212478 0.809014 0.173217
H18   H     H_    0.692050 0.067726 0.173274 0.173487
N9    N     N_R   0.274477 0.529331 0.580559 0.232995
O37   O     O_R   0.325925 0.396496 0.598083 -0.396242
O38   O     O_R   0.207877 0.494821 0.530725 -0.344206
N10   N     N_R   0.729868 0.644517 0.447984 0.231483
O39   O     O_R   0.734423 0.825400 0.442635 -0.395462
O40   O     O_R   0.748069 0.562568 0.517922 -0.377001
H19   H     H_    0.370702 0.088608 0.697744 0.202354
H20   H     H_    0.632194 0.144229 0.289413 0.181637
N11   N     N_R   0.749501 0.620450 0.895447 0.246633
O41   O     O_R   0.810314 0.522864 0.885353 -0.386936
O42   O     O_R   0.695902 0.535041 0.930689 -0.241999
N12   N     N_R   0.250337 0.139030 0.104740 0.243013
O43   O     O_R   0.189727 0.032073 0.115343 -0.387161
O44   O     O_R   0.303658 0.065402 0.069065 -0.256550
N13   N     N_R   0.710214 0.926921 0.919527 0.243900
O45   O     O_R   0.669251 0.858673 0.972164 -0.254210
O46   O     O_R   0.751619 0.078133 0.940898 -0.403310
N14   N     N_R   0.289900 0.453317 0.080204 0.245572
O47   O     O_R   0.334375 0.399105 0.030335 -0.248949
O48   O     O_R   0.245782 0.596029 0.055091 -0.370402
N15   N     N_R   0.577793 0.844038 0.795642 0.258656
O49   O     O_R   0.555803 0.793306 0.862803 -0.213281
O50   O     O_R   0.518699 0.869940 0.735872 -0.419553
N16   N     N_R   0.422307 0.370308 0.204688 0.257703
O51   O     O_R   0.445392 0.323928 0.138930 -0.219275
O52   O     O_R   0.480852 0.400309 0.264588 -0.416971

loop_
_geom_bond_atom_site_label_1
_geom_bond_atom_site_label_2
_geom_bond_distance
_ccdc_geom_bond_type
O14   C42   1.325458 A    
C12   N10   1.429937 S    
C35   C39   1.591432 S    
O16   V4    2.012398 S    
C28   C36   1.628461 S    
O12   V3    2.031616 S    
C1    C36   1.569778 S    
O15   V3    2.013810 S    
N9    O37   1.300760 A    
O1    C3    1.322189 A    
C2    C35   1.568429 S    
O2    C4    1.340225 A    
N14   O47   1.301238 A    
C2    O7    1.348922 A    
N10   O39   1.301884 A    
C31   C33   1.562851 S    
N15   O50   1.299784 A    
N3    O25   1.301691 A    
C32   H8    1.098258 S    
C29   C37   1.541602 S    
C8    C14   1.404748 A    
C30   H10   1.113851 S    
O20   V4    2.211864 S    
C32   H6    1.111108 S    
C10   H16   1.082227 S    
C15   C17   1.415162 A    
N7    O33   1.301887 A    
C41   O18   1.321424 A    
H2    C30   1.104679 S    
C29   H9    1.113645 S    
C20   N2    1.434402 S    
O19   V3    2.258432 S    
O18   V4    2.004662 S    
C27   C35   1.628154 S    
C8    C12   1.421811 A    
H4    C38   1.105433 S    
O13   C41   1.336329 A    
O16   C44   1.345676 A    
O15   C43   1.349670 A    
C26   N14   1.505223 S    
C18   C20   1.422813 A    
C23   H17   1.083730 S    
C31   H7    1.097809 S    
C32   C34   1.559162 S    
O6    V2    2.026245 S    
C30   C38   1.543848 S    
C5    C21   1.408084 A    
O14   V4    2.026126 S    
N7    O34   1.300026 A    
C32   C40   1.575537 S    
C25   N13   1.502871 S    
N11   O42   1.302856 A    
C37   H11   1.103971 S    
C3    C8    1.496536 S    
O13   V3    1.973659 S    
N3    O26   1.292956 A    
C22   H14   1.078253 S    
C28   N16   1.493518 S    
C21   H13   1.083197 S    
O20   V3    1.765235 S    
O4    C2    1.383029 A    
C34   C43   1.543712 S    
N5    O29   1.300221 A    
N1    O22   1.300371 A    
C31   H5    1.111948 S    
O11   C43   1.318676 A    
C15   C23   1.401567 A    
C6    C41   1.494484 S    
C9    C17   1.402064 A    
C36   C40   1.594525 S    
C13   H19   1.083854 S    
N10   O40   1.297995 A    
O4    V2    2.012424 S    
C7    C11   1.424558 A    
N5    O30   1.302084 A    
C25   C33   1.624782 S    
O5    C3    1.342485 A    
C25   N11   1.499281 S    
C29   C33   1.559425 S    
O6    C4    1.323934 A    
N8    O36   1.300562 A    
N9    O38   1.300305 A    
O1    V2    2.002376 S    
C39   N5    1.486540 S    
N6    O32   1.302741 A    
O2    V1    1.973416 S    
C6    C22   1.409455 A    
C26   N12   1.498180 S    
C9    H15   1.082309 S    
N4    O28   1.293382 A    
N2    O24   1.301113 A    
C35   C37   1.562504 S    
C24   H18   1.083937 S    
N13   O45   1.301840 A    
C5    C19   1.417085 A    
C10   C12   1.397698 A    
C6    C20   1.413841 A    
C27   N3    1.450847 S    
N12   O44   1.302663 A    
N15   O49   1.299119 A    
O3    C1    1.388184 A    
O17   V3    1.975150 S    
O3    V1    2.013838 S    
C5    C42   1.497483 S    
H1    C29   1.104799 S    
C10   C18   1.399297 A    
C33   C44   1.542778 S    
C14   H20   1.084367 S    
C40   N8    1.494664 S    
N14   O48   1.300879 A    
N16   O52   1.299924 A    
N11   O41   1.298520 A    
C19   N1    1.434178 S    
N16   O51   1.299205 A    
C26   C34   1.623804 S    
C13   C15   1.416008 A    
C11   N9    1.432835 S    
C30   C34   1.562630 S    
C14   C16   1.412707 A    
C28   N4    1.450223 S    
C9    C11   1.400582 A    
O7    V1    2.015056 S    
C16   C18   1.417678 A    
C17   C19   1.424032 A    
O8    V2    2.015783 S    
C26   C28   1.653154 S    
C27   N15   1.492221 S    
C42   O17   1.329696 A    
C39   N7    1.493217 S    
C4    C7    1.502942 S    
O5    V1    1.973748 S    
N8    O35   1.301423 A    
C21   C23   1.399883 A    
C36   C38   1.562882 S    
C22   C24   1.394159 A    
N6    O31   1.299816 A    
C7    C13   1.410937 A    
O19   V4    1.732307 S    
H3    C37   1.099644 S    
C31   C39   1.573537 S    
N1    O21   1.300796 A    
C1    O8    1.350370 A    
C38   H12   1.104780 S    
N4    O27   1.301338 A    
C16   C24   1.395769 A    
C25   C27   1.652061 S    
N2    O23   1.300463 A    
O9    V2    1.732575 S    
N13   O46   1.299376 A    
O12   C44   1.316356 A    
O10   V1    1.765536 S    
N12   O43   1.298573 A    
O11   V4    2.032503 S    
C40   N6    1.485842 S    
