data_mof_unit_62707.cif
_audit_creation_date              2012-10-26T20:44:25-0400
_audit_creation_method            fapswitch 2.2
_symmetry_space_group_name_H-M    P1
_symmetry_Int_Tables_number       1
_space_group_crystal_system       triclinic
_cell_length_a                    13.139202
_cell_length_b                    14.430482
_cell_length_c                    17.439323
_cell_angle_alpha                 89.998859
_cell_angle_beta                  86.168417
_cell_angle_gamma                 90.001005
_cell_volume                      3299.19222411

loop_
_atom_site_label
_atom_site_type_symbol
_atom_type_description
_atom_site_fract_x
_atom_site_fract_y
_atom_site_fract_z
_atom_type_partial_charge
C1    C     C_R   0.500001 0.671293 0.499999 0.555335
C2    C     C_1   0.173614 0.500000 0.500014 0.118054
C3    C     C_1   0.949318 0.500000 0.499996 -0.048984
C4    C     C_1   0.050682 0.500000 0.500004 -0.048984
C5    C     C_R   0.487624 0.499122 0.651756 0.555590
C6    C     C_R   0.512376 0.500878 0.348244 0.555589
C7    C     C_R   0.481123 0.494155 0.735317 0.009601
C8    C     C_R   0.518876 0.505861 0.264682 0.009599
C9    C     C_R   0.570697 0.485156 0.773929 -0.130224
C10   C     C_R   0.429301 0.514872 0.226072 -0.130222
C11   C     C_R   0.565630 0.479492 0.853426 -0.104912
C12   C     C_R   0.499999 0.328707 0.500000 0.555334
C13   C     C_R   0.434368 0.520558 0.146575 -0.104913
C14   C     C_R   0.470793 0.484100 0.895377 0.043499
C15   C     C_R   0.529204 0.515960 0.104623 0.043500
C16   C     C_R   0.381036 0.490586 0.856743 -0.112241
C17   C     C_R   0.618961 0.509463 0.143255 -0.112238
C18   C     C_R   0.386090 0.495987 0.776927 -0.128600
C19   C     C_R   0.613909 0.504039 0.223072 -0.128600
C20   C     C_2   0.463434 0.482106 0.979459 -0.133366
C21   C     C_2   0.536561 0.517968 0.020542 -0.133368
C22   C     C_1   0.500002 0.772872 0.499995 -0.044180
C23   C     C_1   0.499998 0.227128 0.500005 -0.044180
C24   C     C_1   0.500001 0.857688 0.499995 -0.040043
C25   C     C_1   0.499998 0.142312 0.500005 -0.040043
C26   C     C_1   0.500000 0.957593 0.499998 0.001819
C27   C     C_1   0.499999 0.042407 0.500002 0.001819
C28   C     C_1   0.826385 0.500000 0.499986 0.118055
Cu1   Cu    Cu3+1 0.407320 0.500000 0.500010 0.978638
Cu2   Cu    Cu3+1 0.592680 0.500000 0.499990 0.978639
H1    H     H_    0.644684 0.481876 0.742662 0.128427
H2    H     H_    0.394896 0.452472 0.007800 0.117462
H3    H     H_    0.355315 0.518144 0.257340 0.128427
H4    H     H_    0.307295 0.493126 0.888438 0.104343
H5    H     H_    0.692702 0.506930 0.111559 0.104343
H6    H     H_    0.364125 0.529536 0.118394 0.104865
H7    H     H_    0.635872 0.470523 0.881610 0.104866
H8    H     H_    0.683937 0.498058 0.252137 0.127155
H9    H     H_    0.316062 0.501962 0.747861 0.127157
H10   H     H_    0.605099 0.547603 0.992200 0.117462
N1    N     N_1   0.731930 0.500000 0.499980 -0.170265
N2    N     N_1   0.268070 0.500000 0.500020 -0.170265
O1    O     O_R   0.421720 0.623950 0.500010 -0.472659
O2    O     O_R   0.578280 0.376050 0.499990 -0.472659
O3    O     O_R   0.578280 0.623950 0.499990 -0.471911
O4    O     O_R   0.421720 0.376050 0.500010 -0.471911
O5    O     O_R   0.412660 0.500000 0.613600 -0.493172
O6    O     O_R   0.587340 0.500000 0.386400 -0.493171
O7    O     O_R   0.569190 0.500000 0.613590 -0.494234
O8    O     O_R   0.430810 0.500000 0.386410 -0.494234

loop_
_geom_bond_atom_site_label_1
_geom_bond_atom_site_label_2
_ccdc_geom_bond_type
C2    C4    S    
C18   H9    S    
Cu2   N1    S    
Cu1   Cu2   S    
C19   H8    S    
C14   C20   S    
Cu1   N2    S    
C25   C27   S    
C5    O5    A    
Cu2   O3    S    
Cu1   O4    S    
C7    C18   A    
Cu2   O2    S    
C13   C15   A    
C1    C22   S    
C12   O2    A    
C16   C18   A    
Cu1   O1    S    
C9    C11   A    
C12   C23   S    
C1    O3    A    
C26   C27   T    
C21   H10   S    
C6    O6    A    
Cu1   O5    S    
Cu2   O6    S    
C3    C28   S    
C17   C19   A    
Cu2   O7    S    
C2    N2    T    
C10   H3    S    
C5    C7    S    
Cu1   O8    S    
C23   C25   T    
C11   H7    S    
C11   C14   A    
C22   C24   T    
C5    O7    A    
C8    C19   A    
C9    H1    S    
C3    C4    T    
C7    C9    A    
C28   N1    T    
C15   C21   S    
C20   C21   D    
C13   H6    S    
C12   O4    A    
C20   H2    S    
C15   C17   A    
C6    C8    S    
C17   H5    S    
C16   H4    S    
C14   C16   A    
C1    O1    A    
C8    C10   A    
C6    O8    A    
C24   C26   S    
C10   C13   A    
