data_mof_unit_65460.cif
_audit_creation_date              2012-10-26T17:29:50-0400
_audit_creation_method            fapswitch 2.2
_symmetry_space_group_name_H-M    P1
_symmetry_Int_Tables_number       1
_space_group_crystal_system       triclinic
_cell_length_a                    36.900024
_cell_length_b                    18.369354
_cell_length_c                    18.374451
_cell_angle_alpha                 89.981927
_cell_angle_beta                  119.694401
_cell_angle_gamma                 89.992236
_cell_volume                      10819.1874231

loop_
_atom_site_label
_atom_site_type_symbol
_atom_type_description
_atom_site_fract_x
_atom_site_fract_y
_atom_site_fract_z
_atom_type_partial_charge
C1    C     C_R   0.499971 0.000009 0.360106 0.558499
C2    C     C_1   0.337522 0.999905 0.337351 -0.080002
C3    C     C_3   0.804358 0.106499 0.540623 -0.451009
C4    C     C_3   0.289293 0.354823 0.775075 -0.272265
C5    C     C_3   0.282202 0.296174 0.709537 -0.311933
C6    C     C_3   0.297054 0.221732 0.750632 -0.448312
C7    C     C_3   0.703897 0.645246 0.194570 -0.275309
C8    C     C_3   0.697167 0.703088 0.247206 -0.312038
C9    C     C_3   0.676643 0.771455 0.195895 -0.443127
C10   C     C_3   0.711235 0.364015 0.267724 -0.271778
C11   C     C_3   0.718642 0.325650 0.348478 -0.311726
C12   C     C_3   0.705081 0.246061 0.331930 -0.450078
C13   C     C_1   0.162478 0.499825 0.662649 -0.080020
C14   C     C_3   0.296193 0.641887 0.756641 -0.277175
C15   C     C_3   0.285020 0.690872 0.680434 -0.312620
C16   C     C_3   0.307672 0.763850 0.707146 -0.446748
C17   C     C_3   0.780411 0.148925 0.806341 -0.223109
C18   C     C_3   0.826237 0.172857 0.842442 -0.296636
C19   C     C_3   0.829097 0.253781 0.827102 -0.461585
C20   C     C_3   0.203084 0.946489 0.067080 -0.227125
C21   C     C_3   0.229122 0.907340 0.034075 -0.313761
C22   C     C_3   0.201251 0.873166 0.948293 -0.457763
C23   C     C_3   0.219464 0.080982 0.098294 -0.242540
C24   C     C_1   0.837540 0.499674 0.337362 -0.080023
C25   C     C_3   0.227604 0.088301 0.023722 -0.309802
C26   C     C_3   0.223145 0.167379 0.994611 -0.461914
C27   C     C_3   0.791557 0.064333 0.926126 -0.241345
C28   C     C_3   0.780324 0.127619 0.966856 -0.315823
C29   C     C_3   0.791735 0.109690 0.056901 -0.459103
C30   C     C_3   0.280497 0.581014 0.901561 -0.242546
C31   C     C_3   0.272351 0.588387 0.976117 -0.309797
C32   C     C_3   0.276770 0.667484 0.005084 -0.461880
C33   C     C_3   0.703718 0.406918 0.088996 -0.227473
C34   C     C_3   0.730228 0.352879 0.070508 -0.313676
C35   C     C_1   0.624824 0.000305 0.625214 -0.030546
C36   C     C_3   0.702861 0.302837 0.997230 -0.459167
C37   C     C_3   0.718788 0.540235 0.078767 -0.241643
C38   C     C_3   0.728145 0.523600 0.007184 -0.309942
C39   C     C_3   0.723046 0.591803 0.955317 -0.461591
C40   C     C_3   0.296942 0.446537 0.933017 -0.227118
C41   C     C_3   0.270923 0.407414 0.966086 -0.313779
C42   C     C_3   0.298809 0.373280 0.051925 -0.457755
C43   C     C_1   0.375172 0.999999 0.375235 -0.030600
C44   C     C_1   0.124828 0.499934 0.624765 -0.030624
C45   C     C_1   0.875184 0.499977 0.375248 -0.030550
C46   C     C_1   0.499893 0.000025 0.282571 -0.053677
C47   C     C_1   0.500107 0.999975 0.717429 -0.053472
C48   C     C_1   0.999891 0.500024 0.282568 -0.053691
C49   C     C_R   0.500028 0.999991 0.639894 0.558546
C50   C     C_1   0.000109 0.499974 0.717431 -0.053547
C51   C     C_1   0.499865 0.000020 0.217298 -0.053144
C52   C     C_1   0.500135 0.999979 0.782703 -0.053004
C53   C     C_1   0.999864 0.500018 0.217296 -0.053179
C54   C     C_1   0.000136 0.499977 0.782704 -0.052996
C55   C     C_R   0.999982 0.139691 0.999973 0.556945
C56   C     C_R   0.999998 0.860309 0.000008 0.559129
C57   C     C_R   0.500013 0.639691 0.000003 0.557763
C58   C     C_R   0.499995 0.360309 0.000004 0.557591
C59   C     C_R   0.919980 0.000194 0.920070 0.553524
C60   C     C_R   0.999970 0.500009 0.360105 0.558514
C61   C     C_R   0.080017 0.000024 0.079907 0.554100
C62   C     C_R   0.419983 0.500023 0.920093 0.553886
C63   C     C_R   0.580021 0.499574 0.079908 0.553963
C64   C     C_R   0.500007 0.859957 0.999999 0.562004
C65   C     C_R   0.499994 0.140043 0.000001 0.562133
C66   C     C_R   0.000003 0.359956 0.999999 0.561695
C67   C     C_R   0.999995 0.640043 0.000006 0.562295
C68   C     C_R   0.499949 0.000007 0.139923 0.562379
C69   C     C_R   0.500051 0.999992 0.860077 0.562307
C70   C     C_R   0.999949 0.500005 0.139923 0.562239
C71   C     C_R   0.000030 0.499991 0.639895 0.558570
C72   C     C_R   0.000051 0.499991 0.860077 0.562334
C73   C     C_1   0.999986 0.217185 0.999964 -0.057498
C74   C     C_1   0.999991 0.782814 0.000019 -0.055164
C75   C     C_1   0.500023 0.717186 0.999997 -0.056802
C76   C     C_1   0.499986 0.282814 0.000011 -0.056059
C77   C     C_R   0.580016 0.000023 0.580040 0.553553
C78   C     C_R   0.419982 0.000008 0.420086 0.553683
C79   C     C_R   0.080018 0.499986 0.579914 0.553732
C80   C     C_R   0.919987 0.500009 0.420092 0.553770
C81   C     C_1   0.500022 0.782459 1.000000 -0.055402
C82   C     C_1   0.837534 0.003894 0.838603 -0.094071
C83   C     C_1   0.499984 0.217541 0.000005 -0.054608
C84   C     C_1   0.999999 0.282458 0.999983 -0.056135
C85   C     C_1   0.999987 0.717541 0.000013 -0.053815
C86   C     C_3   0.725452 0.025377 0.650963 -0.210781
C87   C     C_3   0.274656 0.934383 0.318020 -0.214417
C88   C     C_3   0.274414 0.071368 0.307572 -0.210630
C89   C     C_3   0.725792 0.926638 0.747862 -0.217003
C90   C     C_3   0.225552 0.571275 0.692300 -0.210623
C91   C     C_3   0.774825 0.449014 0.335060 -0.214499
C92   C     C_3   0.774227 0.577042 0.285155 -0.213326
C93   C     C_1   0.162470 0.000566 0.160769 -0.098922
C94   C     C_3   0.225375 0.434282 0.682099 -0.214419
C95   C     C_3   0.774475 0.927940 0.800227 -0.105549
C96   C     C_3   0.226243 0.066667 0.269931 -0.103315
C97   C     C_3   0.225992 0.931094 0.265158 -0.101292
C98   C     C_3   0.773567 0.014685 0.695231 -0.098784
C99   C     C_3   0.274041 0.431011 0.734967 -0.101289
C100  C     C_3   0.725895 0.575346 0.246815 -0.103207
C101  C     C_3   0.726207 0.444341 0.283542 -0.101108
C102  C     C_3   0.273724 0.566580 0.729947 -0.103316
C103  C     C_1   0.875183 0.001816 0.875638 -0.058573
C104  C     C_1   0.337529 0.500536 0.839229 -0.098909
C105  C     C_1   0.124821 0.000264 0.124178 -0.051158
C106  C     C_1   0.375178 0.500248 0.875822 -0.051134
C107  C     C_1   0.624830 0.498589 0.124141 -0.049254
C108  C     C_3   0.708523 0.002729 0.710108 0.027647
C109  C     C_3   0.291452 0.999712 0.290534 0.025216
C110  C     C_3   0.208548 0.499639 0.709467 0.025221
C111  C     C_3   0.791473 0.498875 0.290529 0.025218
C112  C     C_3   0.791326 0.006232 0.793558 0.093193
C113  C     C_3   0.208724 0.000769 0.205228 0.079032
C114  C     C_3   0.291276 0.500722 0.794770 0.079027
C115  C     C_1   0.662481 0.497978 0.160523 -0.097050
C116  C     C_3   0.708749 0.497981 0.204671 0.078759
C117  C     C_3   0.772949 0.069237 0.828130 0.066518
C118  C     C_3   0.226678 0.003592 0.140828 0.064982
C119  C     C_3   0.273320 0.503598 0.859166 0.064983
C120  C     C_3   0.726756 0.476841 0.143190 0.064465
C121  C     C_3   0.724142 0.057813 0.783498 -0.192941
C122  C     C_3   0.275374 0.990887 0.195165 -0.176982
C123  C     C_3   0.224631 0.490875 0.804851 -0.176982
C124  C     C_3   0.775562 0.467617 0.201090 -0.176024
C125  C     C_3   0.791285 0.893850 0.888968 -0.273570
C126  C     C_1   0.662467 0.001188 0.663321 -0.077181
C127  C     C_3   0.796070 0.810717 0.888015 -0.309962
C128  C     C_3   0.809793 0.777533 0.973999 -0.449010
C129  C     C_3   0.203739 0.141964 0.243096 -0.277175
C130  C     C_3   0.214875 0.190991 0.319214 -0.312633
C131  C     C_3   0.192192 0.263963 0.292364 -0.446727
C132  C     C_3   0.210777 0.854883 0.225191 -0.272265
C133  C     C_3   0.217896 0.796280 0.290837 -0.311930
C134  C     C_3   0.203080 0.721813 0.249881 -0.448322
C135  C     C_3   0.795833 0.067529 0.663479 -0.276026
C136  C     C_3   0.782237 0.054467 0.570680 -0.314249
Cu1   Cu    Cu3+1 0.500000 0.072550 0.500000 0.937983
Cu2   Cu    Cu3+1 0.458680 1.000000 0.958690 0.930499
Cu3   Cu    Cu3+1 0.041320 0.500000 0.041310 0.930448
Cu4   Cu    Cu3+1 0.958680 0.500000 0.958690 0.930395
Cu5   Cu    Cu3+1 0.500000 0.927450 0.500000 0.938417
Cu6   Cu    Cu3+1 0.000000 0.572550 0.500000 0.938770
Cu7   Cu    Cu3+1 0.000000 0.427450 0.500000 0.936892
Cu8   Cu    Cu3+1 0.000010 1.000000 0.927480 0.930697
Cu9   Cu    Cu3+1 0.999990 1.000000 0.072520 0.931964
Cu10  Cu    Cu3+1 0.500010 0.500000 0.927480 0.932612
Cu11  Cu    Cu3+1 0.499990 0.500000 0.072520 0.933165
Cu12  Cu    Cu3+1 0.541320 1.000000 0.041310 0.929286
H1    H     H_    0.778298 0.961347 0.672330 0.121689
H2    H     H_    0.284428 0.939652 0.385651 0.104648
H3    H     H_    0.247472 0.862758 0.077747 0.145233
H4    H     H_    0.186839 0.904171 0.081880 0.131134
H5    H     H_    0.176012 0.973808 0.013959 0.146629
H6    H     H_    0.191228 0.187734 0.974743 0.153542
H7    H     H_    0.246333 0.202385 0.045847 0.145811
H8    H     H_    0.228663 0.171125 0.940546 0.141192
H9    H     H_    0.259663 0.070089 0.042021 0.152299
H10   H     H_    0.205092 0.055530 0.969339 0.165522
H11   H     H_    0.186954 0.099087 0.076840 0.142483
H12   H     H_    0.241248 0.120220 0.144660 0.140255
H13   H     H_    0.289269 0.080562 0.376355 0.107748
H14   H     H_    0.773637 0.061911 0.058291 0.147039
H15   H     H_    0.825614 0.097746 0.095078 0.154979
H16   H     H_    0.784292 0.156939 0.084901 0.140977
H17   H     H_    0.797739 0.177551 0.968836 0.161362
H18   H     H_    0.746351 0.139348 0.930502 0.151538
H19   H     H_    0.779789 0.015298 0.941503 0.135372
H20   H     H_    0.826048 0.059345 0.958587 0.144759
H21   H     H_    0.308678 0.687842 0.024920 0.153582
H22   H     H_    0.253566 0.702461 0.953783 0.145782
H23   H     H_    0.271249 0.671270 0.059139 0.141233
H24   H     H_    0.715718 0.886162 0.696310 0.106516
H25   H     H_    0.240302 0.570173 0.957850 0.152297
H26   H     H_    0.294879 0.555646 0.030561 0.165541
H27   H     H_    0.312999 0.599119 0.922986 0.142479
H28   H     H_    0.258696 0.620230 0.855123 0.140258
H29   H     H_    0.680850 0.272188 0.010578 0.155820
H30   H     H_    0.684916 0.335085 0.938923 0.147606
H31   H     H_    0.722801 0.263289 0.987390 0.138947
H32   H     H_    0.752158 0.381753 0.055742 0.157118
H33   H     H_    0.748688 0.317923 0.126274 0.144575
H34   H     H_    0.687692 0.375230 0.115113 0.130277
H35   H     H_    0.210692 0.580428 0.623500 0.107747
H36   H     H_    0.676573 0.424701 0.028750 0.145863
H37   H     H_    0.690727 0.613190 0.927662 0.153349
H38   H     H_    0.745407 0.634607 0.994946 0.145809
H39   H     H_    0.729330 0.578273 0.903698 0.142311
H40   H     H_    0.760583 0.503739 0.032660 0.151633
H41   H     H_    0.706501 0.481794 0.964018 0.165296
H42   H     H_    0.685761 0.558232 0.049664 0.139780
H43   H     H_    0.739031 0.586766 0.112128 0.141718
H44   H     H_    0.320888 0.334082 0.048652 0.154438
H45   H     H_    0.316688 0.416137 0.098771 0.148446
H46   H     H_    0.784618 0.470735 0.398730 0.104869
H47   H     H_    0.279258 0.343691 0.072657 0.138381
H48   H     H_    0.248912 0.445275 0.971148 0.157885
H49   H     H_    0.252593 0.362814 0.922488 0.145220
H50   H     H_    0.313211 0.404206 0.918296 0.131144
H51   H     H_    0.323999 0.473883 0.986091 0.146639
H52   H     H_    0.788590 0.601552 0.348875 0.109999
H53   H     H_    0.215601 0.439508 0.614459 0.104648
H54   H     H_    0.711778 0.908802 0.786370 0.120817
H55   H     H_    0.283343 0.118508 0.281969 0.117566
H56   H     H_    0.289145 0.883404 0.311591 0.122333
H57   H     H_    0.214112 0.935438 0.310200 0.120700
H58   H     H_    0.716895 0.082944 0.631181 0.118715
H59   H     H_    0.210910 0.383315 0.688621 0.122304
H60   H     H_    0.783824 0.611892 0.248223 0.114160
H61   H     H_    0.789418 0.394277 0.344180 0.122236
H62   H     H_    0.216601 0.618437 0.717819 0.117572
H63   H     H_    0.707060 0.110177 0.759581 0.097645
H64   H     H_    0.284304 0.935526 0.185999 0.108402
H65   H     H_    0.292931 0.028597 0.176584 0.105581
H66   H     H_    0.714459 0.037628 0.828450 0.110692
H67   H     H_    0.207055 0.528606 0.823363 0.105584
H68   H     H_    0.221383 0.051400 0.323167 0.125038
H69   H     H_    0.785030 0.409674 0.208794 0.108327
H70   H     H_    0.792900 0.494238 0.173251 0.105554
H71   H     H_    0.215726 0.435526 0.814117 0.108381
H72   H     H_    0.840268 0.800662 0.021432 0.158526
H73   H     H_    0.786134 0.788416 0.993280 0.143939
H74   H     H_    0.813233 0.717694 0.971271 0.143513
H75   H     H_    0.765812 0.786013 0.841644 0.157865
H76   H     H_    0.819761 0.797199 0.869494 0.161499
H77   H     H_    0.822156 0.917159 0.934023 0.157540
H78   H     H_    0.769421 0.904228 0.912831 0.138937
H79   H     H_    0.785577 0.889502 0.768518 0.121760
H80   H     H_    0.201179 0.293479 0.250914 0.149327
H81   H     H_    0.157880 0.255468 0.258589 0.160106
H82   H     H_    0.200769 0.297918 0.348589 0.140083
H83   H     H_    0.206013 0.163719 0.362160 0.155375
H84   H     H_    0.249029 0.201315 0.354075 0.159046
H85   H     H_    0.211497 0.172701 0.201140 0.140660
H86   H     H_    0.169427 0.134003 0.209381 0.159988
H87   H     H_    0.169205 0.723362 0.203492 0.159086
H88   H     H_    0.220626 0.705175 0.217922 0.147396
H89   H     H_    0.208468 0.680694 0.298545 0.141274
H90   H     H_    0.278591 0.551273 0.676737 0.125041
H91   H     H_    0.251538 0.792453 0.338249 0.156946
H92   H     H_    0.200407 0.810761 0.323646 0.157878
H93   H     H_    0.176702 0.856632 0.180444 0.152179
H94   H     H_    0.227668 0.838058 0.191945 0.150299
H95   H     H_    0.796601 0.163838 0.546585 0.147977
H96   H     H_    0.838683 0.098768 0.577902 0.157416
H97   H     H_    0.794042 0.095520 0.473725 0.140427
H98   H     H_    0.789652 0.997633 0.561780 0.156103
H99   H     H_    0.748046 0.062821 0.531257 0.158347
H100  H     H_    0.789808 0.125238 0.669455 0.151600
H101  H     H_    0.714345 0.465434 0.324738 0.120969
H102  H     H_    0.830070 0.058791 0.700303 0.158114
H103  H     H_    0.330929 0.223300 0.797016 0.159139
H104  H     H_    0.279517 0.205125 0.782624 0.147367
H105  H     H_    0.291685 0.180578 0.702044 0.141277
H106  H     H_    0.248561 0.292326 0.662134 0.156924
H107  H     H_    0.299683 0.310623 0.676700 0.157906
H108  H     H_    0.323368 0.356590 0.819817 0.152208
H109  H     H_    0.272411 0.338031 0.808353 0.150294
H110  H     H_    0.696718 0.796108 0.173191 0.146606
H111  H     H_    0.645712 0.758019 0.141393 0.161273
H112  H     H_    0.720603 0.578291 0.301396 0.126155
H113  H     H_    0.672112 0.811896 0.235588 0.144891
H114  H     H_    0.676767 0.680703 0.270446 0.161269
H115  H     H_    0.727696 0.718124 0.302044 0.156897
H116  H     H_    0.722589 0.671380 0.169666 0.136794
H117  H     H_    0.673016 0.632107 0.140132 0.157602
H118  H     H_    0.671311 0.242153 0.285338 0.158750
H119  H     H_    0.723285 0.216317 0.308057 0.147515
H120  H     H_    0.710691 0.219911 0.391134 0.140828
H121  H     H_    0.752203 0.327628 0.396756 0.156220
H122  H     H_    0.700570 0.353594 0.373935 0.157840
H123  H     H_    0.285919 0.435317 0.689917 0.120712
H124  H     H_    0.677164 0.362022 0.222987 0.152072
H125  H     H_    0.728200 0.333220 0.241791 0.150518
H126  H     H_    0.298685 0.793396 0.748566 0.149327
H127  H     H_    0.341987 0.755360 0.740908 0.160073
H128  H     H_    0.299068 0.797775 0.650859 0.140066
H129  H     H_    0.293881 0.663570 0.637515 0.155384
H130  H     H_    0.250861 0.701191 0.645581 0.159041
H131  H     H_    0.288432 0.672650 0.798563 0.140663
H132  H     H_    0.330508 0.633934 0.790346 0.159963
H133  H     H_    0.811870 0.265692 0.758861 0.145559
H134  H     H_    0.710439 0.991726 0.592971 0.106890
H135  H     H_    0.815868 0.286934 0.858928 0.146895
H136  H     H_    0.862300 0.269297 0.852550 0.157107
H137  H     H_    0.844332 0.162840 0.910895 0.165246
H138  H     H_    0.841314 0.142656 0.812586 0.165479
H139  H     H_    0.762594 0.158798 0.738374 0.122920
H140  H     H_    0.765211 0.188337 0.828531 0.126738
H141  H     H_    0.179194 0.833970 0.951632 0.154438
H142  H     H_    0.183349 0.916001 0.901377 0.148407
H143  H     H_    0.220817 0.843567 0.927605 0.138381
H144  H     H_    0.251115 0.945190 0.028951 0.157889
O1    O     O_R   0.500010 0.061270 0.394200 -0.503741
O2    O     O_R   0.439720 0.938730 0.439720 -0.505401
O3    O     O_R   0.439720 0.061270 0.439720 -0.505018
O4    O     O_R   0.560280 0.938730 0.560280 -0.504890
O5    O     O_R   0.060280 0.561270 0.560280 -0.505020
O6    O     O_R   0.939720 0.438730 0.439720 -0.505784
O7    O     O_R   0.939720 0.561270 0.439720 -0.504782
O8    O     O_R   0.060280 0.438730 0.560280 -0.505391
O9    O     O_R   0.000000 0.105620 0.938740 -0.503962
O10   O     O_R   0.000000 0.894380 0.061260 -0.502869
O11   O     O_R   0.000000 0.105620 0.061260 -0.503949
O12   O     O_R   0.499990 0.938730 0.605800 -0.503740
O13   O     O_R   0.000000 0.894380 0.938740 -0.502901
O14   O     O_R   0.500000 0.605620 0.938740 -0.503770
O15   O     O_R   0.500000 0.394380 0.061260 -0.503729
O16   O     O_R   0.500000 0.605620 0.061260 -0.502964
O17   O     O_R   0.500000 0.394380 0.938740 -0.503351
O18   O     O_R   0.939730 1.000000 0.878470 -0.504886
O19   O     O_R   0.060270 1.000000 0.121530 -0.502983
O20   O     O_R   0.439730 0.500000 0.878470 -0.503044
O21   O     O_R   0.560270 0.500000 0.121530 -0.502837
O22   O     O_R   0.939720 0.000000 0.000940 -0.506872
O23   O     O_R   0.499990 0.061270 0.605800 -0.503757
O24   O     O_R   0.060280 1.000000 0.999060 -0.506736
O25   O     O_R   0.439720 0.500000 0.000940 -0.506918
O26   O     O_R   0.560280 0.500000 0.999060 -0.507529
O27   O     O_R   0.534900 0.894160 0.034870 -0.506664
O28   O     O_R   0.465100 0.105840 0.965130 -0.505984
O29   O     O_R   0.465100 0.894160 0.965130 -0.505747
O30   O     O_R   0.534900 0.105840 0.034870 -0.505795
O31   O     O_R   0.034900 0.394160 0.034870 -0.505559
O32   O     O_R   0.965100 0.605840 0.965130 -0.504731
O33   O     O_R   0.965100 0.394160 0.965130 -0.507706
O34   O     O_R   0.500010 0.938730 0.394200 -0.503636
O35   O     O_R   0.034900 0.605840 0.034870 -0.506288
O36   O     O_R   0.534890 1.000000 0.140680 -0.505507
O37   O     O_R   0.465110 1.000000 0.859320 -0.505312
O38   O     O_R   0.034890 0.500000 0.140680 -0.505296
O39   O     O_R   0.965110 0.500000 0.859320 -0.505031
O40   O     O_R   0.465110 1.000000 0.070890 -0.505292
O41   O     O_R   0.534890 1.000000 0.929110 -0.505299
O42   O     O_R   0.965110 0.500000 0.070890 -0.505520
O43   O     O_R   0.034890 0.500000 0.929110 -0.505427
O44   O     O_R   0.000010 0.561270 0.394200 -0.503630
O45   O     O_R   0.999990 0.438730 0.605800 -0.503968
O46   O     O_R   0.999990 0.561270 0.605800 -0.503497
O47   O     O_R   0.000010 0.438730 0.394200 -0.503892
O48   O     O_R   0.560280 0.061270 0.560280 -0.505544

loop_
_geom_bond_atom_site_label_1
_geom_bond_atom_site_label_2
_ccdc_geom_bond_type
C29   H15   S    
C23   C118  S    
C20   C118  S    
Cu11  O25   S    
C5    C6    S    
C17   H139  S    
C1    C46   S    
C61   O19   A    
Cu4   O39   S    
C133  H92   S    
C61   C105  S    
C49   O23   A    
C91   H61   S    
C21   C22   S    
Cu4   O32   S    
C36   H31   S    
C16   H127  S    
C76   C83   T    
C30   H28   S    
Cu7   O8    S    
C67   O35   A    
C49   O12   A    
C86   C108  S    
C67   C85   S    
Cu1   O3    S    
C64   O27   A    
C4    C5    S    
C136  H99   S    
C71   O45   A    
C37   C38   S    
C102  C114  S    
C110  C123  S    
C70   O42   A    
C94   H53   S    
C18   H138  S    
C88   C109  S    
C131  H82   S    
C41   H49   S    
C11   H122  S    
C122  H64   S    
C135  H102  S    
C125  H78   S    
C87   H56   S    
Cu8   O13   S    
Cu10  Cu11  S    
C111  C124  S    
C134  H87   S    
C44   C79   S    
C75   C81   T    
Cu8   Cu9   S    
Cu1   O23   S    
Cu3   Cu4   S    
C92   C111  S    
C47   C52   T    
C62   C106  S    
C40   H51   S    
C119  C123  S    
C19   H135  S    
C96   H68   S    
C122  H65   S    
C130  C131  S    
C77   O4    A    
C78   O3    A    
C30   C31   S    
C38   H40   S    
Cu11  O16   S    
C89   C108  S    
C45   C80   S    
C42   H47   S    
C95   H79   S    
C14   C102  S    
C40   C119  S    
C20   C21   S    
C33   H34   S    
C125  C127  S    
C134  H88   S    
C108  C126  S    
C13   C44   T    
Cu2   O28   S    
Cu7   O6    S    
C96   C129  S    
Cu8   O9    S    
C2    C109  S    
C63   O26   A    
C99   C114  S    
Cu5   O2    S    
C58   C76   S    
C7    C8    S    
C56   O13   A    
C38   C39   S    
Cu8   O18   S    
C62   O20   A    
C115  C116  S    
C3    C136  S    
C118  C122  S    
C95   C125  S    
Cu12  O36   S    
C131  H80   S    
C61   O24   A    
Cu2   Cu12  S    
Cu6   O7    S    
C23   H11   S    
C128  H72   S    
C114  C119  S    
C65   O28   A    
C64   O29   A    
C89   H54   S    
Cu11  O21   S    
C26   H7    S    
Cu12  O41   S    
C91   C101  S    
C12   H118  S    
C48   C53   T    
C19   H133  S    
Cu2   O37   S    
Cu3   O35   S    
C98   C112  S    
C20   H5    S    
C36   H30   S    
C16   H126  S    
Cu8   O24   S    
Cu5   O4    S    
C98   C135  S    
C25   C26   S    
C46   C51   T    
C116  C120  S    
C6    H105  S    
C63   O21   A    
C42   H45   S    
C12   H120  S    
C58   O15   A    
C31   C32   S    
C130  H84   S    
Cu9   O22   S    
C33   H36   S    
C17   C18   S    
C86   H134  S    
C136  H98   S    
C21   H144  S    
C90   H35   S    
C22   H143  S    
C127  H76   S    
C62   O25   A    
C66   O33   A    
C4    H108  S    
C129  C130  S    
C123  H71   S    
C124  H69   S    
Cu10  O26   S    
C29   H14   S    
C101  H101  S    
C16   H128  S    
C128  H73   S    
C70   O38   A    
C28   H18   S    
C1    O1    A    
C129  H86   S    
C59   C103  S    
C57   C75   S    
C40   H50   S    
Cu6   O5    S    
C99   H123  S    
C132  C133  S    
C34   C36   S    
C3    H96   S    
C21   H3    S    
C74   C85   T    
C57   O14   A    
C64   C81   S    
C10   C11   S    
C55   C73   S    
C33   C120  S    
C4    C99   S    
C25   H10   S    
C14   C15   S    
C133  H91   S    
C9    H110  S    
C8    H114  S    
Cu9   O11   S    
C31   H26   S    
C14   H131  S    
C32   H21   S    
C88   C96   S    
C4    H109  S    
C123  H67   S    
C41   C42   S    
C34   H32   S    
C100  C116  S    
C108  C121  S    
C68   O36   A    
C79   O5    A    
C104  C106  T    
C135  C136  S    
C43   C78   S    
C50   C54   T    
C6    H103  S    
C28   C29   S    
C95   C112  S    
C112  C117  S    
C63   C107  S    
C14   H132  S    
C34   H33   S    
C18   C19   S    
C7    H117  S    
C22   H141  S    
C52   C69   S    
C80   O7    A    
C39   H38   S    
C56   O10   A    
C87   H2    S    
C1    O34   A    
C17   C117  S    
C27   H20   S    
C131  H81   S    
C27   C117  S    
C10   H124  S    
C11   H121  S    
C29   H16   S    
Cu12  O27   S    
C125  H77   S    
C53   C70   S    
C56   C74   S    
C7    C100  S    
C15   H129  S    
C59   O22   A    
C65   O30   A    
C17   H140  S    
Cu10  O17   S    
Cu2   O40   S    
C35   C77   S    
C20   H4    S    
Cu4   O42   S    
C89   C95   S    
C57   O16   A    
C50   C71   S    
C69   O41   A    
C38   H41   S    
C93   C113  S    
C8    H115  S    
C28   H17   S    
C32   H23   S    
Cu3   O31   S    
C72   O43   A    
C9    H111  S    
C133  C134  S    
C134  H89   S    
C96   C113  S    
C127  C128  S    
C30   H27   S    
Cu1   Cu5   S    
Cu7   O47   S    
C10   C101  S    
C94   H59   S    
C97   C132  S    
C59   O18   A    
C87   C109  S    
C71   O46   A    
C121  H66   S    
C55   O11   A    
C94   C110  S    
C86   C98   S    
C78   O2    A    
Cu6   O46   S    
C132  H93   S    
Cu10  O14   S    
Cu2   O29   S    
C101  C116  S    
Cu6   Cu7   S    
C3    H97   S    
C77   O48   A    
C97   H57   S    
C15   C16   S    
C82   C112  S    
C98   H1    S    
Cu5   O12   S    
C100  H112  S    
C26   H8    S    
C86   H58   S    
C47   C49   S    
C18   H137  S    
C19   H136  S    
C24   C45   T    
C94   C99   S    
C41   H48   S    
C109  C122  S    
C65   C83   S    
C30   C119  S    
Cu1   O48   S    
C88   H13   S    
Cu11  O15   S    
C91   C111  S    
C117  C121  S    
C60   O44   A    
C93   C105  T    
C90   C102  S    
C8    C9    S    
C9    H113  S    
C82   C103  T    
C68   O40   A    
C73   C84   T    
C127  H75   S    
C39   H39   S    
C23   C25   S    
Cu7   O45   S    
C24   C111  S    
C58   O17   A    
Cu12  O30   S    
C48   C60   S    
C124  H70   S    
C102  H90   S    
Cu5   O34   S    
C128  H74   S    
C90   H62   S    
C91   H46   S    
C55   O9    A    
C113  C118  S    
C129  H85   S    
C5    H106  S    
C35   C126  T    
C13   C110  S    
C92   H60   S    
Cu6   O44   S    
Cu9   O19   S    
Cu10  O20   S    
C2    C43   T    
Cu4   O33   S    
C23   H12   S    
C33   C34   S    
C7    H116  S    
C15   H130  S    
C3    H95   S    
C107  C115  T    
C104  C114  S    
C40   C41   S    
C37   H43   S    
C25   H9    S    
C60   O47   A    
C26   H6    S    
C90   C110  S    
C97   C113  S    
Cu9   O10   S    
C92   C100  S    
C31   H25   S    
C132  H94   S    
C32   H22   S    
C135  H100  S    
C36   H29   S    
C89   H24   S    
C79   O8    A    
C11   C12   S    
C69   O37   A    
C80   O6    A    
C6    H104  S    
Cu1   O1    S    
C66   O31   A    
C12   H119  S    
C92   H52   S    
C37   C120  S    
Cu3   O43   S    
C130  H83   S    
C72   O39   A    
C37   H42   S    
C51   C68   S    
C121  H63   S    
C88   H55   S    
C5    H107  S    
C22   H142  S    
C66   C84   S    
C67   O32   A    
C39   H37   S    
C42   H44   S    
C54   C72   S    
C27   C28   S    
C10   H125  S    
C120  C124  S    
C27   H19   S    
C87   C97   S    
Cu3   O38   S    
