data_mof_unit_23312.cif
_audit_creation_date              2012-12-10T18:42:40-0500
_audit_creation_method            fapswitch 2.2
_symmetry_space_group_name_H-M    P1
_symmetry_Int_Tables_number       1
_space_group_crystal_system       triclinic
_cell_length_a                    10.81355
_cell_length_b                    15.084418
_cell_length_c                    13.85655
_cell_angle_alpha                 90.473223
_cell_angle_beta                  90.012471
_cell_angle_gamma                 90.046748
_cell_volume                      2260.14860936

loop_
_atom_site_label
_atom_site_type_symbol
_atom_type_description
_atom_site_fract_x
_atom_site_fract_y
_atom_site_fract_z
_atom_type_partial_charge
C1    C     C_R   0.500794 0.330139 0.499642 0.789967
C2    C     C_R   0.502343 0.670344 0.500449 0.796615
C3    C     C_R   0.871416 0.494493 0.499835 -0.078558
C4    C     C_R   0.128134 0.502422 0.499597 -0.079627
C5    C     C_R   0.938124 0.451708 0.573548 0.001583
C6    C     C_R   0.060956 0.543647 0.425085 -0.004049
C7    C     C_R   0.429903 0.094173 0.554991 -0.197639
C8    C     C_R   0.491354 0.906566 0.419064 -0.209830
C9    C     C_R   0.424603 0.185958 0.555809 -0.210463
C10   C     C_R   0.488323 0.814752 0.417289 -0.208949
C11   C     C_R   0.506295 0.234209 0.498880 -0.040325
C12   C     C_R   0.509265 0.767228 0.501824 -0.051310
C13   C     C_R   0.594723 0.190946 0.442046 -0.235028
C14   C     C_R   0.537751 0.812587 0.587795 -0.222187
C15   C     C_R   0.604907 0.098411 0.443156 0.104926
C16   C     C_R   0.545327 0.905308 0.590381 0.103533
C17   C     C_R   0.521041 0.049717 0.501309 0.078841
C18   C     C_R   0.521781 0.952543 0.504069 0.087405
C19   C     C_R   0.594214 0.542866 0.108463 -0.291713
C20   C     C_R   0.445449 0.430521 0.891498 -0.294797
C21   C     C_R   0.591564 0.542785 0.209941 0.082199
C22   C     C_R   0.445097 0.432343 0.790046 0.093367
C23   C     C_R   0.262141 0.501874 0.499893 0.798276
C24   C     C_R   0.737661 0.497301 0.500029 0.793983
C25   C     C_R   0.408795 0.457121 0.208918 0.103384
C26   C     C_R   0.556085 0.567157 0.791172 0.089862
C27   C     C_R   0.406767 0.456857 0.107425 -0.296381
C28   C     C_R   0.556729 0.568667 0.892677 -0.292780
C29   C     C_R   0.500687 0.499777 0.054704 0.131688
C30   C     C_R   0.501031 0.499634 0.945326 0.131175
C31   C     C_R   0.217773 0.732252 0.295254 -0.142186
C32   C     C_R   0.743598 0.274540 0.692428 -0.119351
C33   C     C_R   0.168240 0.680631 0.369160 -0.128547
C34   C     C_R   0.806861 0.322727 0.622194 -0.122054
C35   C     C_R   0.119938 0.596260 0.348251 0.134399
C36   C     C_R   0.876572 0.397821 0.648542 0.123877
C37   C     C_R   0.122371 0.563972 0.252961 -0.151732
C38   C     C_R   0.883685 0.423101 0.746143 -0.144454
C39   C     C_R   0.174240 0.615129 0.179627 -0.133579
C40   C     C_R   0.819869 0.374874 0.816136 -0.129624
C41   C     C_R   0.221875 0.699231 0.200755 -0.105178
C42   C     C_R   0.749701 0.300786 0.789273 -0.110699
C43   C     C_R   0.933018 0.538800 0.425914 -0.241654
C44   C     C_R   0.066427 0.457370 0.573371 -0.243787
Cu1   Cu    Cu3+1 0.500000 0.499990 0.596430 0.942508
Cu2   Cu    Cu3+1 0.500000 0.500010 0.403570 0.942030
H1    H     H_    0.261068 0.739077 0.143799 0.117971
H2    H     H_    0.699953 0.263802 0.843477 0.119103
H3    H     H_    0.670435 0.575613 0.072934 0.124579
H4    H     H_    0.403463 0.374453 0.926961 0.123885
H5    H     H_    0.663712 0.576790 0.249681 0.116067
H6    H     H_    0.400928 0.379014 0.750398 0.113536
H7    H     H_    0.336386 0.423244 0.247850 0.118873
H8    H     H_    0.600326 0.620367 0.752352 0.111342
H9    H     H_    0.330660 0.424151 0.071089 0.121607
H10   H     H_    0.599267 0.624555 0.929094 0.123429
H11   H     H_    0.252059 0.798166 0.311069 0.123994
H12   H     H_    0.689077 0.217302 0.671655 0.140904
H13   H     H_    0.165510 0.706863 0.442132 0.111405
H14   H     H_    0.800483 0.302264 0.547249 0.098482
H15   H     H_    0.084636 0.499217 0.235724 0.114764
H16   H     H_    0.936494 0.481026 0.767636 0.120482
H17   H     H_    0.176895 0.589778 0.106355 0.126139
H18   H     H_    0.824195 0.395253 0.891142 0.125767
H19   H     H_    0.881070 0.572437 0.370098 0.148434
H20   H     H_    0.118471 0.423826 0.629157 0.147786
H21   H     H_    0.362308 0.057480 0.596338 0.132182
H22   H     H_    0.468994 0.942091 0.353711 0.130770
H23   H     H_    0.355058 0.219321 0.599092 0.132677
H24   H     H_    0.467865 0.781000 0.349940 0.158471
H25   H     H_    0.657757 0.229920 0.398737 0.132343
H26   H     H_    0.555180 0.775490 0.653025 0.138372
N1    N     N_R   0.500000 0.500020 0.258690 -0.168424
N2    N     N_R   0.500000 0.499980 0.741310 -0.164837
O1    O     O_R   0.500010 0.371450 0.581430 -0.587190
O2    O     O_R   0.499990 0.628550 0.418570 -0.578534
O3    O     O_R   0.500010 0.371460 0.418560 -0.583306
O4    O     O_R   0.499990 0.628540 0.581440 -0.597080
O5    O     O_R   0.319640 0.500000 0.581430 -0.587527
O6    O     O_R   0.680360 0.500000 0.418570 -0.599520
O7    O     O_R   0.319640 0.500010 0.418560 -0.579675
O8    O     O_R   0.680360 0.499990 0.581440 -0.567397
C45   C     C_3   0.704715 0.055136 0.381551 -0.416505
C46   C     C_3   0.808406 0.015052 0.442752 -0.352101
C47   C     C_3   0.912761 0.979184 0.379445 -0.845796
H27   H     H_    0.877186 0.926859 0.329816 0.255615
H28   H     H_    0.954437 0.033424 0.336515 0.250110
H29   H     H_    0.985742 0.949935 0.425701 0.239919
H30   H     H_    0.846658 0.066530 0.492317 0.213745
H31   H     H_    0.771871 0.959494 0.486189 0.227599
H32   H     H_    0.664145 0.003777 0.333496 0.195797
H33   H     H_    0.746613 0.105069 0.332753 0.194240
C48   C     C_3   0.575607 0.950470 0.686119 -0.418965
C49   C     C_3   0.702895 0.995352 0.685530 -0.348300
C50   C     C_3   0.733878 0.035096 0.784249 -0.866402
H34   H     H_    0.663091 0.084871 0.805562 0.249343
H35   H     H_    0.737875 0.982281 0.839544 0.252256
H36   H     H_    0.825327 0.068496 0.781091 0.243511
H37   H     H_    0.775053 0.945997 0.665781 0.215676
H38   H     H_    0.704442 0.049642 0.632208 0.221605
H39   H     H_    0.503100 0.999371 0.705243 0.194441
H40   H     H_    0.574861 0.901019 0.745239 0.191202

loop_
_geom_bond_atom_site_label_1
_geom_bond_atom_site_label_2
_ccdc_geom_bond_type
C38   C40   A    
C48   C49   S    
C27   C29   A    
C1    O3    A    
C44   H20   S    
C50   H34   S    
C1    C11   S    
C32   H12   S    
C2    C12   S    
Cu2   O2    S    
C28   H10   S    
C50   H36   S    
C39   C41   A    
C20   C30   A    
Cu1   Cu2   S    
C45   H33   S    
C3    C43   A    
C16   C48   S    
C35   C37   A    
C9    H23   S    
C39   H17   S    
C27   H9    S    
C5    C36   S    
C21   N1    A    
C6    C35   S    
C7    C9    A    
C24   O8    A    
C20   H4    S    
C33   C35   A    
C24   O6    A    
Cu1   O8    S    
C7    C17   A    
C31   C33   A    
Cu1   O4    S    
C31   C41   A    
C25   N1    A    
C40   C42   A    
C33   H13   S    
C34   H14   S    
C3    C24   S    
C46   H31   S    
C26   H8    S    
C47   H28   S    
C1    O1    A    
C46   C47   S    
C4    C6    A    
C48   H39   S    
C4    C23   S    
C15   C45   S    
C13   H25   S    
C47   H27   S    
C8    C18   A    
C4    C44   A    
Cu1   N2    S    
C32   C34   A    
C29   C30   S    
C2    O4    A    
Cu2   O7    S    
C19   H3    S    
C45   C46   S    
C49   H38   S    
C43   H19   S    
C17   C18   S    
C41   H1    S    
Cu1   O5    S    
C42   H2    S    
C9    C11   A    
C10   C12   A    
C10   H24   S    
C8    C10   A    
C5    C44   A    
C20   C22   A    
C8    H22   S    
C6    C43   A    
C13   C15   A    
C14   C16   A    
C46   H30   S    
C22   N2    A    
C19   C29   A    
C21   H5    S    
C2    O2    A    
C22   H6    S    
C47   H29   S    
C15   C17   A    
C23   O7    A    
C19   C21   A    
C14   H26   S    
C25   H7    S    
C3    C5    A    
C48   H40   S    
Cu2   O3    S    
C37   H15   S    
C50   H35   S    
C25   C27   A    
C45   H32   S    
C26   C28   A    
C40   H18   S    
Cu1   O1    S    
C31   H11   S    
C28   C30   A    
C12   C14   A    
C37   C39   A    
Cu2   O6    S    
C11   C13   A    
C49   H37   S    
C36   C38   A    
C26   N2    A    
C34   C36   A    
C49   C50   S    
C7    H21   S    
C16   C18   A    
C32   C42   A    
C23   O5    A    
Cu2   N1    S    
C38   H16   S    
