data_mof_unit_59962.cif
_audit_creation_date              2012-12-10T16:33:52-0500
_audit_creation_method            fapswitch 2.2
_symmetry_space_group_name_H-M    P1
_symmetry_Int_Tables_number       1
_space_group_crystal_system       triclinic
_cell_length_a                    28.284557
_cell_length_b                    18.524881
_cell_length_c                    17.088398
_cell_angle_alpha                 90.000021
_cell_angle_beta                  60.913154
_cell_angle_gamma                 90.0
_cell_volume                      7824.55906673

loop_
_atom_site_label
_atom_site_type_symbol
_atom_type_description
_atom_site_fract_x
_atom_site_fract_y
_atom_site_fract_z
_atom_type_partial_charge
C1    C     C_R   0.703077 0.271087 0.674880 0.931703
C2    C     C_R   0.298240 0.731423 0.324118 0.890936
C3    C     C_R   0.296923 0.271087 0.325120 0.931702
C4    C     C_R   0.701760 0.731423 0.675882 0.890936
C5    C     C_R   0.203077 0.771087 0.674880 0.931702
C6    C     C_R   0.798240 0.231423 0.324118 0.890936
C7    C     C_R   0.796923 0.771088 0.325120 0.931702
C8    C     C_R   0.201760 0.231423 0.675882 0.890936
C9    C     C_R   0.032082 0.369004 0.551216 0.568436
C10   C     C_R   0.939504 0.620737 0.535737 0.576561
C11   C     C_R   0.967918 0.369004 0.448784 0.568436
C12   C     C_R   0.060496 0.620737 0.464263 0.576561
C13   C     C_R   0.532083 0.869004 0.551215 0.568435
C14   C     C_R   0.439505 0.120738 0.535735 0.576561
C15   C     C_R   0.467918 0.869004 0.448783 0.568436
C16   C     C_R   0.560497 0.120737 0.464261 0.576562
C17   C     C_R   0.716841 0.256397 0.956514 0.137639
C18   C     C_R   0.275515 0.726708 0.049627 0.138714
C19   C     C_R   0.283158 0.256397 0.043486 0.137640
C20   C     C_R   0.724485 0.726708 0.950373 0.138714
C21   C     C_R   0.216841 0.756396 0.956514 0.137639
C22   C     C_R   0.775515 0.226708 0.049627 0.138714
C23   C     C_R   0.783158 0.756397 0.043486 0.137640
C24   C     C_R   0.224485 0.226708 0.950373 0.138714
C25   C     C_R   0.773791 0.254471 0.911026 -0.184941
C26   C     C_R   0.218505 0.727986 0.095205 -0.184285
C27   C     C_R   0.226209 0.254471 0.088974 -0.184942
C28   C     C_R   0.781495 0.727986 0.904795 -0.184285
C29   C     C_R   0.273791 0.754471 0.911026 -0.184942
C30   C     C_R   0.718505 0.227986 0.095205 -0.184285
C31   C     C_R   0.726209 0.754471 0.088974 -0.184942
C32   C     C_R   0.281495 0.227986 0.904795 -0.184285
C33   C     C_R   0.802599 0.239962 0.956753 -0.188873
C34   C     C_R   0.189606 0.742682 0.049363 -0.184173
C35   C     C_R   0.197401 0.239962 0.043246 -0.188873
C36   C     C_R   0.810394 0.742682 0.950636 -0.184175
C37   C     C_R   0.302599 0.739962 0.956754 -0.188873
C38   C     C_R   0.689606 0.242682 0.049363 -0.184173
C39   C     C_R   0.697401 0.739962 0.043246 -0.188873
C40   C     C_R   0.310394 0.242682 0.950636 -0.184174
C41   C     C_R   0.641738 0.323357 0.947091 -0.278741
C42   C     C_R   0.353810 0.668468 0.056901 -0.288096
C43   C     C_R   0.358262 0.323357 0.052909 -0.278742
C44   C     C_R   0.646190 0.668468 0.943099 -0.288096
C45   C     C_R   0.141738 0.823357 0.947091 -0.278741
C46   C     C_R   0.853810 0.168468 0.056901 -0.288096
C47   C     C_R   0.858262 0.823357 0.052909 -0.278742
C48   C     C_R   0.146190 0.168468 0.943099 -0.288096
C49   C     C_R   0.620748 0.354256 0.894605 -0.181140
C50   C     C_R   0.383834 0.653587 0.101243 -0.185198
C51   C     C_R   0.379252 0.354256 0.105395 -0.181140
C52   C     C_R   0.616166 0.653587 0.898757 -0.185198
C53   C     C_R   0.120748 0.854256 0.894605 -0.181140
C54   C     C_R   0.883834 0.153587 0.101243 -0.185198
C55   C     C_R   0.879252 0.854256 0.105395 -0.181140
C56   C     C_R   0.116166 0.153587 0.898757 -0.185198
C57   C     C_R   0.646158 0.343943 0.803430 0.401724
C58   C     C_R   0.370531 0.685622 0.182502 0.391740
C59   C     C_R   0.353842 0.343943 0.196570 0.401724
C60   C     C_R   0.629469 0.685622 0.817498 0.391740
C61   C     C_R   0.146158 0.843943 0.803430 0.401723
C62   C     C_R   0.870531 0.185622 0.182502 0.391741
C63   C     C_R   0.853842 0.843943 0.196570 0.401724
C64   C     C_R   0.129469 0.185622 0.817498 0.391741
C65   C     C_R   0.683198 0.288852 0.767720 -0.174120
C66   C     C_R   0.320694 0.718918 0.228732 -0.163505
C67   C     C_R   0.316802 0.288852 0.232279 -0.174120
C68   C     C_R   0.679306 0.718918 0.771268 -0.163505
C69   C     C_R   0.183198 0.788852 0.767720 -0.174119
C70   C     C_R   0.820694 0.218918 0.228732 -0.163505
C71   C     C_R   0.816802 0.788852 0.232279 -0.174120
C72   C     C_R   0.179306 0.218918 0.771268 -0.163505
C73   C     C_R   0.705235 0.256869 0.818346 -0.282585
C74   C     C_R   0.289829 0.734463 0.185414 -0.280382
C75   C     C_R   0.294765 0.256869 0.181654 -0.282585
C76   C     C_R   0.710171 0.734463 0.814586 -0.280382
C77   C     C_R   0.205235 0.756869 0.818346 -0.282585
C78   C     C_R   0.789829 0.234463 0.185414 -0.280383
C79   C     C_R   0.794765 0.756869 0.181654 -0.282585
C80   C     C_R   0.210171 0.234463 0.814585 -0.280382
C81   C     C_R   0.686905 0.277627 0.907623 0.083692
C82   C     C_R   0.307039 0.710947 0.097522 0.081411
C83   C     C_R   0.313095 0.277627 0.092377 0.083692
C84   C     C_R   0.692961 0.710947 0.902478 0.081411
C85   C     C_R   0.186905 0.777627 0.907623 0.083692
C86   C     C_R   0.807039 0.210947 0.097521 0.081411
C87   C     C_R   0.813095 0.777627 0.092377 0.083692
C88   C     C_R   0.192961 0.210947 0.902478 0.081411
C89   C     C_R   0.695594 0.127816 0.520266 0.884315
C90   C     C_R   0.308523 0.870393 0.465440 0.870127
C91   C     C_R   0.304406 0.127816 0.479733 0.884315
C92   C     C_R   0.691477 0.870393 0.534559 0.870128
C93   C     C_R   0.195594 0.627816 0.520266 0.884315
C94   C     C_R   0.808523 0.370393 0.465441 0.870127
C95   C     C_R   0.804406 0.627816 0.479733 0.884315
C96   C     C_R   0.191477 0.370393 0.534559 0.870127
C97   C     C_R   0.073879 0.099853 0.934103 0.915299
C98   C     C_R   0.924484 0.902677 0.067299 0.933863
C99   C     C_R   0.926122 0.099853 0.065897 0.915300
C100  C     C_R   0.075516 0.902677 0.932700 0.933863
C101  C     C_R   0.573878 0.599853 0.934103 0.915299
C102  C     C_R   0.424484 0.402677 0.067299 0.933863
C103  C     C_R   0.426121 0.599853 0.065897 0.915299
C104  C     C_R   0.575516 0.402677 0.932700 0.933863
C105  C     C_R   0.546092 0.995503 0.510343 -0.132456
C106  C     C_R   0.453909 0.995503 0.489654 -0.132456
C107  C     C_R   0.046092 0.495503 0.510345 -0.132456
C108  C     C_R   0.953908 0.495503 0.489655 -0.132456
C109  C     C_R   0.526095 0.060374 0.495133 -0.040569
C110  C     C_R   0.480259 0.929786 0.485620 -0.049066
C111  C     C_R   0.473907 0.060374 0.504863 -0.040569
C112  C     C_R   0.519742 0.929786 0.514378 -0.049066
C113  C     C_R   0.026094 0.560374 0.495135 -0.040570
C114  C     C_R   0.980258 0.429786 0.485621 -0.049066
C115  C     C_R   0.973906 0.560374 0.504865 -0.040569
C116  C     C_R   0.019741 0.429786 0.514379 -0.049066
C117  C     C_R   0.609245 0.933689 0.546289 0.016266
C118  C     C_R   0.376920 0.060606 0.496459 0.009933
C119  C     C_R   0.390755 0.933689 0.453710 0.016266
C120  C     C_R   0.623081 0.060606 0.503539 0.009933
C121  C     C_R   0.109245 0.433689 0.546289 0.016266
C122  C     C_R   0.876919 0.560606 0.496460 0.009932
C123  C     C_R   0.890755 0.433689 0.453710 0.016266
C124  C     C_R   0.123081 0.560606 0.503540 0.009933
C125  C     C_R   0.659153 0.934906 0.548002 -0.093924
C126  C     C_R   0.333004 0.062162 0.477607 -0.086787
C127  C     C_R   0.340847 0.934906 0.451997 -0.093924
C128  C     C_R   0.666996 0.062162 0.522393 -0.086787
C129  C     C_R   0.159153 0.434906 0.548002 -0.093924
C130  C     C_R   0.833004 0.562162 0.477607 -0.086787
C131  C     C_R   0.840847 0.434906 0.451997 -0.093924
C132  C     C_R   0.166996 0.562162 0.522393 -0.086787
C133  C     C_R   0.684163 0.999530 0.544207 -0.314273
C134  C     C_R   0.315837 0.999530 0.455793 -0.314273
C135  C     C_R   0.184163 0.499530 0.544207 -0.314273
C136  C     C_R   0.815837 0.499530 0.455793 -0.314273
C137  C     C_R   0.592485 0.996742 0.521080 0.054345
C138  C     C_R   0.407516 0.996742 0.478919 0.054345
C139  C     C_R   0.092484 0.496742 0.521081 0.054345
C140  C     C_R   0.907515 0.496742 0.478919 0.054345
C141  C     C_R   0.075779 0.371974 0.568100 -0.300395
C142  C     C_R   0.890632 0.619170 0.534776 -0.302611
C143  C     C_R   0.924221 0.371974 0.431900 -0.300395
C144  C     C_R   0.109368 0.619170 0.465224 -0.302611
C145  C     C_R   0.575779 0.871974 0.568099 -0.300394
C146  C     C_R   0.390632 0.119170 0.534774 -0.302610
C147  C     C_R   0.424221 0.871974 0.431900 -0.300394
C148  C     C_R   0.609369 0.119169 0.465223 -0.302611
H1    H     H_    0.719818 0.000249 0.552509 0.194622
H2    H     H_    0.280182 0.000249 0.447491 0.194622
H3    H     H_    0.219818 0.500249 0.552509 0.194622
H4    H     H_    0.780182 0.500249 0.447491 0.194622
H5    H     H_    0.081846 0.325936 0.601054 0.191009
H6    H     H_    0.863602 0.663510 0.568102 0.198381
H7    H     H_    0.918154 0.325936 0.398946 0.191009
H8    H     H_    0.136398 0.663510 0.431897 0.198381
H9    H     H_    0.581846 0.825936 0.601054 0.191009
H10   H     H_    0.363602 0.163511 0.568101 0.198381
H11   H     H_    0.418154 0.825936 0.398945 0.191009
H12   H     H_    0.636399 0.163510 0.431896 0.198381
H13   H     H_    0.645838 0.242906 0.086732 0.127549
H14   H     H_    0.346382 0.740656 0.919362 0.126736
H15   H     H_    0.354163 0.242906 0.913268 0.127550
H16   H     H_    0.653618 0.740656 0.080638 0.126736
H17   H     H_    0.145837 0.742906 0.086732 0.127549
H18   H     H_    0.846382 0.240656 0.919362 0.126736
H19   H     H_    0.854162 0.742906 0.913268 0.127550
H20   H     H_    0.153618 0.240656 0.080638 0.126736
H21   H     H_    0.796375 0.266390 0.840117 0.130689
H22   H     H_    0.196069 0.716758 0.166257 0.124480
H23   H     H_    0.203625 0.266390 0.159882 0.130689
H24   H     H_    0.803931 0.716758 0.833743 0.124480
H25   H     H_    0.296375 0.766390 0.840118 0.130689
H26   H     H_    0.696070 0.216758 0.166257 0.124481
H27   H     H_    0.703625 0.766390 0.159882 0.130689
H28   H     H_    0.303931 0.216758 0.833743 0.124480
H29   H     H_    0.624750 0.338067 0.016939 0.171386
H30   H     H_    0.365522 0.644372 0.992263 0.174248
H31   H     H_    0.375250 0.338067 0.983061 0.171385
H32   H     H_    0.634478 0.644372 0.007737 0.174248
H33   H     H_    0.124750 0.838067 0.016939 0.171386
H34   H     H_    0.865522 0.144372 0.992263 0.174248
H35   H     H_    0.875250 0.838067 0.983061 0.171386
H36   H     H_    0.134478 0.144372 0.007737 0.174248
H37   H     H_    0.737591 0.217669 0.787713 0.175058
H38   H     H_    0.252129 0.763872 0.220470 0.175223
H39   H     H_    0.262409 0.217669 0.212286 0.175058
H40   H     H_    0.747870 0.763872 0.779531 0.175223
H41   H     H_    0.237591 0.717669 0.787713 0.175058
H42   H     H_    0.752130 0.263873 0.220469 0.175224
H43   H     H_    0.762409 0.717669 0.212286 0.175058
H44   H     H_    0.247871 0.263872 0.779531 0.175223
O1    O     O_R   0.746490 0.236330 0.638080 -0.644959
O2    O     O_R   0.253510 0.763670 0.361920 -0.654995
O3    O     O_R   0.253510 0.236330 0.361920 -0.644959
O4    O     O_R   0.746490 0.763670 0.638080 -0.654995
O5    O     O_R   0.246490 0.736330 0.638080 -0.644959
O6    O     O_R   0.753510 0.263670 0.361920 -0.654995
O7    O     O_R   0.753510 0.736330 0.361920 -0.644959
O8    O     O_R   0.246490 0.263670 0.638080 -0.654994
O9    O     O_R   0.674170 0.186160 0.516270 -0.633645
O10   O     O_R   0.325830 0.813840 0.483730 -0.633293
O11   O     O_R   0.325830 0.186160 0.483730 -0.633645
O12   O     O_R   0.674170 0.813840 0.516270 -0.633293
O13   O     O_R   0.174170 0.686160 0.516270 -0.633645
O14   O     O_R   0.825830 0.313840 0.483730 -0.633293
O15   O     O_R   0.825830 0.686160 0.483730 -0.633645
O16   O     O_R   0.174170 0.313840 0.516270 -0.633293
O17   O     O_R   0.739960 0.127620 0.525000 -0.638280
O18   O     O_R   0.260040 0.872380 0.475000 -0.635595
O19   O     O_R   0.260040 0.127620 0.475000 -0.638280
O20   O     O_R   0.739960 0.872380 0.525000 -0.635595
O21   O     O_R   0.239960 0.627620 0.525000 -0.638280
O22   O     O_R   0.760040 0.372380 0.475000 -0.635595
O23   O     O_R   0.760040 0.627620 0.475000 -0.638279
O24   O     O_R   0.239960 0.372380 0.525000 -0.635595
O25   O     O_R   0.680700 0.294870 0.629350 -0.560601
O26   O     O_R   0.319300 0.705130 0.370650 -0.579324
O27   O     O_R   0.319300 0.294870 0.370650 -0.560600
O28   O     O_R   0.680700 0.705130 0.629350 -0.579324
O29   O     O_R   0.180700 0.794870 0.629350 -0.560600
O30   O     O_R   0.819300 0.205130 0.370650 -0.579324
O31   O     O_R   0.819300 0.794870 0.370650 -0.560600
O32   O     O_R   0.180700 0.205130 0.629350 -0.579324
O33   O     O_R   0.062020 0.072840 0.007170 -0.646560
O34   O     O_R   0.937980 0.927160 0.992830 -0.641917
O35   O     O_R   0.937980 0.072840 0.992830 -0.646560
O36   O     O_R   0.062020 0.927160 0.007170 -0.641917
O37   O     O_R   0.562020 0.572840 0.007170 -0.646560
O38   O     O_R   0.437980 0.427160 0.992830 -0.641917
O39   O     O_R   0.437980 0.572840 0.992830 -0.646560
O40   O     O_R   0.562020 0.427160 0.007170 -0.641917
O41   O     O_R   0.947860 0.073950 0.109290 -0.574924
O42   O     O_R   0.052140 0.926050 0.890710 -0.566321
O43   O     O_R   0.052140 0.073950 0.890710 -0.574923
O44   O     O_R   0.947860 0.926050 0.109290 -0.566321
O45   O     O_R   0.447860 0.573950 0.109290 -0.574923
O46   O     O_R   0.552140 0.426050 0.890710 -0.566321
O47   O     O_R   0.552140 0.573950 0.890710 -0.574923
O48   O     O_R   0.447860 0.426050 0.109290 -0.566321
Zn1   Zn    Zn3+2 0.792340 0.208750 0.507670 0.971829
Zn2   Zn    Zn3+2 0.207660 0.791250 0.492330 0.979397
Zn3   Zn    Zn3+2 0.207660 0.208750 0.492330 0.971829
Zn4   Zn    Zn3+2 0.792340 0.791250 0.507670 0.979397
Zn5   Zn    Zn3+2 0.292340 0.708750 0.507670 0.971829
Zn6   Zn    Zn3+2 0.707660 0.291250 0.492330 0.979397
Zn7   Zn    Zn3+2 0.707660 0.708750 0.492330 0.971829
Zn8   Zn    Zn3+2 0.292340 0.291250 0.507670 0.979397
Zn9   Zn    Zn3+2 0.505960 0.500000 0.080520 0.971726
Zn10  Zn    Zn3+2 0.494040 0.500000 0.919480 0.971725
Zn11  Zn    Zn3+2 0.005960 0.000000 0.080520 0.971725
Zn12  Zn    Zn3+2 0.994040 0.000000 0.919480 0.971725
O49   O     O_3   0.000308 0.307565 0.576367 -0.555511
C149  C     C_3   0.953657 0.320583 0.659360 -0.324281
H45   H     H_    0.926315 0.359878 0.652131 0.163012
H46   H     H_    0.964084 0.339888 0.710817 0.139100
H47   H     H_    0.931106 0.269154 0.683954 0.196756
O50   O     O_3   0.951350 0.679980 0.572418 -0.555572
C150  C     C_3   0.933155 0.666010 0.663811 -0.328486
H48   H     H_    0.941522 0.714131 0.693761 0.202037
H49   H     H_    0.955089 0.619544 0.672590 0.160048
H50   H     H_    0.888711 0.656303 0.701023 0.140417
O51   O     O_3   0.999692 0.307565 0.423633 -0.555511
C151  C     C_3   0.046343 0.320583 0.340640 -0.324281
H51   H     H_    0.073685 0.359878 0.347869 0.163011
H52   H     H_    0.035916 0.339887 0.289183 0.139099
H53   H     H_    0.068893 0.269154 0.316046 0.196756
O52   O     O_3   0.048649 0.679980 0.427582 -0.555573
C152  C     C_3   0.066845 0.666010 0.336189 -0.328487
H54   H     H_    0.044911 0.619543 0.327410 0.160049
H55   H     H_    0.111288 0.656303 0.298977 0.140417
H56   H     H_    0.058478 0.714131 0.306239 0.202038
O53   O     O_3   0.500308 0.807565 0.576366 -0.555511
C153  C     C_3   0.453657 0.820583 0.659359 -0.324280
H57   H     H_    0.426315 0.859879 0.652130 0.163011
H58   H     H_    0.464084 0.839888 0.710816 0.139099
H59   H     H_    0.431106 0.769154 0.683953 0.196756
O54   O     O_3   0.451352 0.179981 0.572416 -0.555572
C154  C     C_3   0.433156 0.166011 0.663809 -0.328487
H60   H     H_    0.441523 0.214132 0.693758 0.202038
H61   H     H_    0.455090 0.119544 0.672588 0.160049
H62   H     H_    0.388713 0.156304 0.701021 0.140417
O55   O     O_3   0.499692 0.807564 0.423633 -0.555511
C155  C     C_3   0.546343 0.820583 0.340639 -0.324282
H63   H     H_    0.573685 0.859878 0.347869 0.163012
H64   H     H_    0.535916 0.839887 0.289183 0.139100
H65   H     H_    0.568894 0.769153 0.316046 0.196757
O56   O     O_3   0.548650 0.179980 0.427580 -0.555572
C156  C     C_3   0.566846 0.166009 0.336187 -0.328487
H66   H     H_    0.544912 0.119543 0.327408 0.160049
H67   H     H_    0.611289 0.156302 0.298975 0.140417
H68   H     H_    0.558479 0.214130 0.306237 0.202037
O57   O     O_3   0.635503 0.388961 0.748837 -0.578138
C157  C     C_3   0.671378 0.448422 0.723512 0.106168
H69   H     H_    0.714253 0.430198 0.684696 0.124087
H70   H     H_    0.665826 0.479373 0.783344 0.120982
C158  C     C_3   0.660073 0.499078 0.664530 -0.701853
H71   H     H_    0.617774 0.519110 0.701704 0.270341
H72   H     H_    0.688076 0.545906 0.644582 0.206246
H73   H     H_    0.666211 0.470319 0.603259 0.243144
O58   O     O_3   0.403287 0.677021 0.221277 -0.583683
C159  C     C_3   0.442651 0.732254 0.189263 0.119543
H74   H     H_    0.423366 0.785497 0.216581 0.121705
H75   H     H_    0.464728 0.734679 0.114602 0.106734
C160  C     C_3   0.483983 0.717212 0.219850 -0.792564
H76   H     H_    0.503456 0.663991 0.193991 0.257725
H77   H     H_    0.515676 0.759648 0.193621 0.184098
H78   H     H_    0.463964 0.716903 0.294139 0.265440
O59   O     O_3   0.364497 0.388961 0.251163 -0.578137
C161  C     C_3   0.328622 0.448422 0.276488 0.106166
H79   H     H_    0.285747 0.430198 0.315304 0.124087
H80   H     H_    0.334174 0.479373 0.216656 0.120982
C162  C     C_3   0.339927 0.499078 0.335470 -0.701852
H81   H     H_    0.382226 0.519110 0.298296 0.270341
H82   H     H_    0.311924 0.545906 0.355419 0.206246
H83   H     H_    0.333789 0.470319 0.396742 0.243144
O60   O     O_3   0.596713 0.677021 0.778723 -0.583683
C163  C     C_3   0.557349 0.732254 0.810737 0.119546
H84   H     H_    0.576634 0.785497 0.783418 0.121704
H85   H     H_    0.535272 0.734679 0.885398 0.106733
C164  C     C_3   0.516018 0.717212 0.780149 -0.792563
H86   H     H_    0.484324 0.759648 0.806378 0.184098
H87   H     H_    0.536037 0.716903 0.705861 0.265440
H88   H     H_    0.496544 0.663991 0.806008 0.257724
O61   O     O_3   0.135503 0.888961 0.748837 -0.578137
C165  C     C_3   0.171378 0.948422 0.723512 0.106166
H89   H     H_    0.214253 0.930198 0.684696 0.124088
H90   H     H_    0.165826 0.979373 0.783344 0.120982
C166  C     C_3   0.160073 0.999078 0.664530 -0.701851
H91   H     H_    0.117774 0.019110 0.701704 0.270341
H92   H     H_    0.188076 0.045906 0.644582 0.206246
H93   H     H_    0.166211 0.970319 0.603259 0.243144
O62   O     O_3   0.903287 0.177021 0.221277 -0.583683
C167  C     C_3   0.942651 0.232254 0.189263 0.119545
H94   H     H_    0.923366 0.285497 0.216581 0.121705
H95   H     H_    0.964728 0.234679 0.114602 0.106733
C168  C     C_3   0.983983 0.217212 0.219850 -0.792562
H96   H     H_    0.015676 0.259647 0.193621 0.184097
H97   H     H_    0.963964 0.216903 0.294139 0.265439
H98   H     H_    0.003456 0.163991 0.193991 0.257725
O63   O     O_3   0.864497 0.888961 0.251163 -0.578137
C169  C     C_3   0.828622 0.948422 0.276488 0.106167
H99   H     H_    0.785747 0.930198 0.315304 0.124087
H100  H     H_    0.834174 0.979373 0.216656 0.120982
C170  C     C_3   0.839927 0.999078 0.335470 -0.701852
H101  H     H_    0.882226 0.019110 0.298296 0.270341
H102  H     H_    0.811924 0.045906 0.355419 0.206246
H103  H     H_    0.833789 0.970319 0.396742 0.243144
O64   O     O_3   0.096713 0.177021 0.778723 -0.583683
C171  C     C_3   0.057349 0.232254 0.810737 0.119545
H104  H     H_    0.076634 0.285497 0.783418 0.121705
H105  H     H_    0.035272 0.234679 0.885398 0.106734
C172  C     C_3   0.016018 0.217212 0.780150 -0.792562
H106  H     H_    0.984324 0.259648 0.806378 0.184098
H107  H     H_    0.036036 0.216903 0.705861 0.265440
H108  H     H_    0.996544 0.163991 0.806009 0.257725

loop_
_geom_bond_atom_site_label_1
_geom_bond_atom_site_label_2
_ccdc_geom_bond_type
O23   Zn7   S    
C158  H72   S    
C100  O42   A    
C33   H18   S    
O8    Zn8   S    
C79   C87   A    
C168  H96   S    
C61   C69   A    
O58   C159  S    
C104  O46   A    
C56   C97   S    
C155  H63   S    
C13   C112  A    
C99   O41   A    
C96   O16   A    
C97   O43   A    
C62   C70   A    
C153  H57   S    
C148  H12   S    
C107  C113  A    
C149  H46   S    
O11   Zn8   S    
C165  H89   S    
C76   H40   S    
C13   O53   S    
C14   O54   S    
C50   C103  S    
O33   Zn11  S    
C79   H43   S    
C80   H44   S    
C76   C84   A    
C73   C81   A    
C172  H107  S    
C16   C109  A    
C161  H80   S    
C52   C101  S    
C94   O22   A    
O18   Zn2   S    
C47   H35   S    
C57   C65   A    
C59   O59   S    
C169  H99   S    
C20   C28   A    
C27   C35   A    
O62   C167  S    
C21   C29   A    
C3    O3    A    
C23   C31   A    
C1    O1    A    
C24   C32   A    
C7    O31   A    
C165  C166  S    
C170  H103  S    
C105  C112  A    
C63   C71   A    
C120  C148  A    
C152  H55   S    
C168  H98   S    
C108  C140  A    
C4    O4    A    
O10   Zn5   S    
C163  C164  S    
C9    C116  A    
C155  H65   S    
C9    O49   S    
C150  H49   S    
C169  C170  S    
C5    O5    A    
O24   Zn8   S    
C145  H9    S    
C96   O24   A    
C17   C25   A    
C80   C88   A    
C167  C168  S    
C42   H30   S    
C55   C98   S    
O5    Zn5   S    
C18   C82   S    
C101  O37   A    
C154  H61   S    
C171  H104  S    
C58   O58   S    
C158  H71   S    
C98   O44   A    
C26   H22   S    
C164  H86   S    
C2    O26   A    
O27   Zn8   S    
C39   H16   S    
C118  C138  A    
C11   C143  A    
C30   H26   S    
O37   Zn9   S    
C96   C129  S    
C113  C115  A    
O64   C171  S    
C43   C83   A    
C124  C139  A    
C69   C77   A    
C94   O14   A    
C127  C134  A    
C13   C145  A    
C75   C83   A    
C92   C125  S    
C49   C104  S    
C71   C79   A    
C51   C102  S    
C30   C38   A    
C108  C115  A    
C41   H29   S    
C109  C111  A    
O49   C149  S    
C162  H82   S    
C66   C74   A    
C49   C57   A    
C124  C132  A    
C61   O61   S    
C163  H85   S    
C52   C60   A    
C59   C67   A    
C129  C135  A    
C53   C61   A    
C28   H24   S    
C151  H51   S    
C160  H77   S    
C55   C63   A    
C95   C130  S    
C5    C69   S    
C56   C64   A    
C34   H17   S    
O36   Zn11  S    
C44   C52   A    
C45   C53   A    
O46   Zn10  S    
C166  H92   S    
O43   Zn12  S    
C19   C83   S    
C156  H66   S    
C106  C111  A    
C103  O39   A    
C159  H75   S    
O26   Zn5   S    
C90   O18   A    
C91   O19   A    
C131  C136  A    
O17   Zn1   S    
C4    C68   S    
C167  H94   S    
C89   O17   A    
C149  H47   S    
C47   C87   A    
C144  H8    S    
C12   O52   S    
O57   C157  S    
C143  H7    S    
C90   C127  S    
C164  H88   S    
C35   H20   S    
C142  H6    S    
O21   Zn5   S    
C60   C68   A    
C42   C50   A    
C151  H52   S    
C64   O64   S    
C23   C36   A    
C20   C84   S    
C54   C99   S    
C92   O20   A    
O14   Zn1   S    
C67   C75   A    
C102  O38   A    
O3    Zn3   S    
C22   C30   A    
C119  C138  A    
O1    Zn1   S    
C2    C66   S    
C8    O32   A    
C73   H37   S    
O32   Zn3   S    
C146  H10   S    
C68   C76   A    
C77   H41   S    
C46   H34   S    
C155  H64   S    
O50   C150  S    
C122  C140  A    
C72   C80   A    
O15   Zn4   S    
C141  H5    S    
C151  H53   S    
C158  H73   S    
C153  H58   S    
C17   C38   A    
C107  C139  A    
C110  C112  A    
C107  C116  A    
O12   Zn7   S    
C8    O8    A    
C19   C40   A    
C105  C137  A    
C121  C139  A    
O48   Zn9   S    
O55   C155  S    
O54   C154  S    
C37   H14   S    
C165  H90   S    
O40   Zn9   S    
C90   O10   A    
C117  C125  A    
C161  C162  S    
C99   O35   A    
C150  H48   S    
C25   C33   A    
C119  C127  A    
C97   O33   A    
C101  O47   A    
C153  H59   S    
C89   O9    A    
C18   C26   A    
C44   H32   S    
C172  H106  S    
C45   H33   S    
O51   C151  S    
O34   Zn12  S    
C43   H31   S    
C157  H69   S    
C169  H100  S    
C119  C147  A    
C156  H68   S    
C117  C145  A    
C10   C142  A    
C108  C114  A    
C100  O36   A    
C105  C109  A    
C136  H4    S    
C38   H13   S    
C4    O28   A    
C42   C82   A    
C154  H60   S    
C48   C88   A    
C170  H102  S    
C92   O12   A    
C93   O13   A    
C152  H54   S    
O47   Zn10  S    
C15   C110  A    
C74   C82   A    
C168  H97   S    
O30   Zn1   S    
C53   C100  S    
C95   O15   A    
C21   C85   S    
C8    C72   S    
C93   O21   A    
C50   C58   A    
O19   Zn3   S    
O25   Zn6   S    
C157  C158  S    
C20   C39   A    
C21   C34   A    
C54   C62   A    
C171  C172  S    
O63   C169  S    
C36   H19   S    
C2    O2    A    
C149  H45   S    
C121  C141  A    
C62   O62   S    
C114  C116  A    
O31   Zn4   S    
C41   C81   A    
C46   C54   A    
C171  H105  S    
C24   C88   S    
O28   Zn7   S    
C172  H108  S    
O41   Zn11  S    
C48   H36   S    
C6    C70   S    
C161  H79   S    
O9    Zn6   S    
C123  C131  A    
C75   H39   S    
C121  C129  A    
C44   C84   A    
C120  C128  A    
C41   C49   A    
C102  O48   A    
C94   C131  S    
C63   O63   S    
C15   C147  A    
C43   C51   A    
C162  H81   S    
O6    Zn6   S    
C135  H3    S    
C17   C81   S    
C22   C86   S    
O61   C165  S    
C106  C138  A    
O52   C152  S    
C28   C36   A    
C3    O27   A    
C160  H76   S    
C152  H56   S    
C29   C37   A    
C1    O25   A    
C120  C137  A    
C91   O11   A    
O35   Zn12  S    
C74   H38   S    
C89   C128  S    
C5    O29   A    
C91   C126  S    
C70   C78   A    
C95   O23   A    
C166  H91   S    
C15   O55   S    
C78   H42   S    
C150  H50   S    
C147  H11   S    
C31   H27   S    
O59   C161  S    
C32   H28   S    
C159  C160  S    
O4    Zn4   S    
C6    O30   A    
C18   C37   A    
C7    C71   S    
C167  H95   S    
C104  O40   A    
C134  H2    S    
C65   C73   A    
C154  H62   S    
C11   C114  A    
C58   C66   A    
C164  H87   S    
C10   O50   S    
C11   O51   S    
C16   O56   S    
C19   C27   A    
O7    Zn7   S    
C78   C86   A    
C32   C40   A    
C23   C87   S    
O45   Zn9   S    
C130  C136  A    
C126  C134  A    
C26   C34   A    
O29   Zn2   S    
C14   C111  A    
C24   C35   A    
C118  C146  A    
C133  H1    S    
C40   H15   S    
O42   Zn12  S    
C6    O6    A    
C9    C141  A    
C162  H83   S    
C117  C137  A    
C123  C140  A    
C12   C144  A    
C45   C85   A    
C163  H84   S    
C1    C65   S    
C103  O45   A    
C160  H78   S    
C125  C133  A    
O53   C153  S    
O22   Zn6   S    
C166  H93   S    
C51   C59   A    
C122  C142  A    
O44   Zn11  S    
O13   Zn2   S    
C93   C132  S    
C27   H23   S    
C47   C55   A    
C12   C113  A    
C106  C110  A    
C25   H21   S    
C48   C56   A    
C22   C33   A    
C159  H74   S    
O2    Zn2   S    
C3    C67   S    
C29   H25   S    
C14   C146  A    
C16   C148  A    
O56   C156  S    
O20   Zn4   S    
C128  C133  A    
C157  H70   S    
C132  C135  A    
C156  H67   S    
C31   C39   A    
C64   C72   A    
C7    O7    A    
O60   C163  S    
C57   O57   S    
C77   C85   A    
C123  C143  A    
C124  C144  A    
O16   Zn3   S    
C118  C126  A    
C98   O34   A    
C170  H101  S    
O38   Zn10  S    
O39   Zn10  S    
C122  C130  A    
C10   C115  A    
C60   O60   S    
C46   C86   A    
