data_mof_unit_63005.cif
_audit_creation_date              2012-12-10T18:40:33-0500
_audit_creation_method            fapswitch 2.2
_symmetry_space_group_name_H-M    P1
_symmetry_Int_Tables_number       1
_space_group_crystal_system       triclinic
_cell_length_a                    10.776682
_cell_length_b                    11.575523
_cell_length_c                    16.749001
_cell_angle_alpha                 89.997192
_cell_angle_beta                  84.943899
_cell_angle_gamma                 89.992179
_cell_volume                      2081.23637113

loop_
_atom_site_label
_atom_site_type_symbol
_atom_type_description
_atom_site_fract_x
_atom_site_fract_y
_atom_site_fract_z
_atom_type_partial_charge
C1    C     C_R   0.499995 0.718846 0.499984 0.915829
C2    C     C_R   0.517290 0.494445 0.346312 0.870822
C3    C     C_R   0.470651 0.480457 0.740198 -0.063232
C4    C     C_R   0.528169 0.455960 0.263401 -0.058583
C5    C     C_R   0.576368 0.486810 0.782604 -0.205508
C6    C     C_R   0.430255 0.392119 0.235776 -0.206892
C7    C     C_R   0.568887 0.455799 0.862581 -0.196738
C8    C     C_R   0.441483 0.346411 0.159324 -0.200613
C9    C     C_R   0.455717 0.416563 0.901255 0.188477
C10   C     C_R   0.549111 0.367225 0.108241 0.187246
C11   C     C_R   0.347537 0.414243 0.859939 0.128149
C12   C     C_R   0.500007 0.281155 0.499981 0.913810
C13   C     C_R   0.651233 0.425589 0.136694 0.139153
C14   C     C_R   0.356044 0.446011 0.779131 -0.235468
C15   C     C_R   0.640104 0.469101 0.215039 -0.236485
C16   C     C_2   0.447992 0.389029 0.986728 -0.214329
C17   C     C_2   0.545605 0.348154 0.022275 -0.240949
C18   C     C_1   0.499987 0.838969 0.499954 -0.191483
C19   C     C_1   0.500018 0.161043 0.499936 -0.186870
C20   C     C_1   0.499994 0.940853 0.499929 0.005887
C21   C     C_1   0.500009 0.059163 0.499918 0.006461
C22   C     C_1   0.930244 0.499994 0.500005 0.031190
C23   C     C_1   0.069756 0.499994 0.499996 0.029580
C24   C     C_R   0.482554 0.498682 0.653960 0.874781
H1    H     H_    0.665320 0.514514 0.753745 0.163529
H2    H     H_    0.165121 0.364255 0.858072 0.183482
H3    H     H_    0.741582 0.507229 0.042394 0.176570
H4    H     H_    0.832014 0.481405 0.116883 0.182128
H5    H     H_    0.345069 0.376408 0.273556 0.166829
H6    H     H_    0.717194 0.515297 0.237586 0.149738
H7    H     H_    0.273928 0.441117 0.746331 0.157230
H8    H     H_    0.630578 0.322420 0.987108 0.173112
H9    H     H_    0.364270 0.416352 0.022642 0.162102
H10   H     H_    0.363549 0.299396 0.138548 0.150506
H11   H     H_    0.651719 0.464454 0.894231 0.138793
H12   H     H_    0.196766 0.444560 0.936945 0.171505
N1    N     N_1   0.819370 0.500000 0.500010 -0.080452
N2    N     N_1   0.180630 0.500000 0.499990 -0.081464
N3    N     N_3   0.230663 0.377083 0.899686 -0.463366
N4    N     N_3   0.762599 0.445488 0.084734 -0.476665
O1    O     O_R   0.397470 0.665550 0.500010 -0.603596
O2    O     O_R   0.602530 0.334450 0.499990 -0.604369
O3    O     O_R   0.602530 0.665550 0.499990 -0.606491
O4    O     O_R   0.397470 0.334450 0.500010 -0.610129
O5    O     O_R   0.385350 0.500000 0.615800 -0.616868
O6    O     O_R   0.614650 0.500000 0.384200 -0.612085
O7    O     O_R   0.590410 0.500000 0.615800 -0.614189
O8    O     O_R   0.409590 0.500000 0.384200 -0.615416
Zn1   Zn    Zn3+2 0.363080 0.500000 0.500000 0.975465
Zn2   Zn    Zn3+2 0.636920 0.500000 0.500000 0.979869

loop_
_geom_bond_atom_site_label_1
_geom_bond_atom_site_label_2
_ccdc_geom_bond_type
O4    Zn1   S    
C2    C4    S    
C8    C10   A    
O3    Zn2   S    
C22   N1    T    
C16   H9    S    
C23   N2    T    
O6    Zn2   S    
O5    Zn1   S    
H3    N4    S    
C4    C15   A    
C1    C18   S    
C12   O4    A    
N2    Zn1   S    
C8    H10   S    
C2    O6    A    
C11   N3    S    
N1    Zn2   S    
C9    C11   A    
C3    C24   S    
C3    C14   A    
O2    Zn2   S    
C5    H1    S    
C24   O5    A    
C6    C8    A    
C12   C19   S    
O1    Zn1   S    
O8    Zn1   S    
C19   C21   T    
C9    C16   S    
O7    Zn2   S    
C18   C20   T    
C13   C15   A    
C17   H8    S    
C11   C14   A    
H2    N3    S    
H4    N4    S    
C10   C17   S    
C7    C9    A    
C6    H5    S    
C20   C21   S    
C15   H6    S    
C4    C6    A    
C1    O1    A    
C5    C7    A    
C14   H7    S    
C22   C23   S    
C13   N4    S    
C12   O2    A    
C2    O8    A    
C24   O7    A    
C7    H11   S    
C1    O3    A    
H12   N3    S    
C16   C17   D    
C3    C5    A    
C10   C13   A    
