data_mof_unit_12434.cif
_audit_creation_date              2012-12-11T15:24:34-0500
_audit_creation_method            fapswitch 2.2
_symmetry_space_group_name_H-M    P1
_symmetry_Int_Tables_number       1
_space_group_crystal_system       triclinic
_cell_length_a                    22.895824
_cell_length_b                    6.957855
_cell_length_c                    20.774922
_cell_angle_alpha                 89.999957
_cell_angle_beta                  93.242952
_cell_angle_gamma                 90.00014
_cell_volume                      3304.2662401

loop_
_atom_site_label
_atom_site_type_symbol
_atom_type_description
_atom_site_fract_x
_atom_site_fract_y
_atom_site_fract_z
_atom_type_partial_charge
O1    O     O_R   0.188030 0.379840 0.189340 -0.534680
O2    O     O_R   0.811970 0.620160 0.810660 -0.534677
O3    O     O_R   0.311970 0.879840 0.310660 -0.534667
O4    O     O_R   0.688030 0.120160 0.689340 -0.534671
O5    O     O_R   0.307090 0.708420 0.185790 -0.541949
O6    O     O_R   0.692910 0.291580 0.814210 -0.541951
O7    O     O_R   0.192910 0.208420 0.314210 -0.541945
O8    O     O_R   0.807090 0.791580 0.685790 -0.541940
C1    C     C_R   0.326623 0.540680 0.170586 0.729706
C2    C     C_R   0.673377 0.459320 0.829414 0.729699
C3    C     C_R   0.173377 0.040680 0.329414 0.729717
C4    C     C_R   0.826623 0.959320 0.670586 0.729725
O9    O     O_R   0.188180 0.709480 0.181650 -0.546086
O10   O     O_R   0.811820 0.290520 0.818350 -0.546083
O11   O     O_R   0.311820 0.209480 0.318350 -0.546068
O12   O     O_R   0.688180 0.790520 0.681650 -0.546076
O13   O     O_R   0.192210 0.880960 0.306500 -0.533499
O14   O     O_R   0.807790 0.119040 0.693500 -0.533505
O15   O     O_R   0.307790 0.380960 0.193500 -0.533507
O16   O     O_R   0.692210 0.619040 0.806500 -0.533504
C5    C     C_R   0.169114 0.540463 0.164108 0.712542
C6    C     C_R   0.830886 0.459537 0.835891 0.712532
C7    C     C_R   0.330894 0.040465 0.335882 0.712583
C8    C     C_R   0.669107 0.959534 0.664118 0.712601
O17   O     O_3   0.251460 0.546730 0.290970 -0.369128
O18   O     O_3   0.748540 0.453270 0.709030 -0.369133
O19   O     O_3   0.248540 0.046730 0.209030 -0.369148
O20   O     O_3   0.751460 0.953270 0.790970 -0.369144
V1    V     V_3+5 0.249730 0.821120 0.242400 1.410492
V2    V     V_3+5 0.750270 0.178880 0.757600 1.410486
V3    V     V_3+5 0.250270 0.321120 0.257600 1.410512
V4    V     V_3+5 0.749730 0.678880 0.742400 1.410510
C9    C     C_R   0.568312 0.051946 0.630015 -0.249909
C10   C     C_R   0.431691 0.948087 0.369982 -0.249901
C11   C     C_R   0.931636 0.552338 0.870036 -0.249862
C12   C     C_R   0.068367 0.447643 0.129961 -0.249867
C13   C     C_R   0.621115 0.969331 0.613361 -0.100665
C14   C     C_R   0.378885 0.030671 0.386639 -0.100681
C15   C     C_R   0.878875 0.469340 0.886651 -0.100788
C16   C     C_R   0.121125 0.530659 0.113348 -0.100779
C17   C     C_R   0.627119 0.899788 0.549603 0.095107
C18   C     C_R   0.372879 0.100191 0.450399 0.095096
C19   C     C_R   0.872914 0.399439 0.950375 0.095099
C20   C     C_R   0.127086 0.600565 0.049625 0.095101
C21   C     C_R   0.578096 0.911858 0.503839 0.083802
C22   C     C_R   0.421906 0.088159 0.496158 0.083832
C23   C     C_R   0.921951 0.411419 0.996122 0.083869
C24   C     C_R   0.078052 0.588564 0.003875 0.083855
C25   C     C_R   0.524656 0.993622 0.522374 0.028236
C26   C     C_R   0.475347 0.006404 0.477624 0.028231
C27   C     C_R   0.975345 0.493604 0.977627 0.028218
C28   C     C_R   0.024658 0.506378 0.022370 0.028221
C29   C     C_R   0.520328 0.063568 0.585510 0.103655
C30   C     C_R   0.479675 0.936468 0.414486 0.103658
C31   C     C_R   0.979621 0.563980 0.914537 0.103610
C32   C     C_R   0.020382 0.435996 0.085460 0.103610
C33   C     C_R   0.580650 0.844550 0.439905 -0.189576
C34   C     C_R   0.419355 0.155501 0.560089 -0.189568
C35   C     C_R   0.919455 0.343598 0.060002 -0.189555
C36   C     C_R   0.080550 0.656354 0.939991 -0.189554
C37   C     C_R   0.532249 0.856350 0.396249 -0.182509
C38   C     C_R   0.467756 0.143708 0.603745 -0.182511
C39   C     C_R   0.967860 0.355398 0.103652 -0.182525
C40   C     C_R   0.032145 0.644555 0.896342 -0.182521
H1    H     H_    0.564419 0.105472 0.678655 0.118710
H2    H     H_    0.435586 0.894577 0.321340 0.118706
H3    H     H_    0.935495 0.606160 0.821427 0.118770
H4    H     H_    0.064508 0.393812 0.178569 0.118772
H5    H     H_    0.619793 0.782082 0.422232 0.135730
H6    H     H_    0.380215 0.217999 0.577757 0.135724
H7    H     H_    0.880357 0.280702 0.077634 0.135741
H8    H     H_    0.119651 0.719220 0.922356 0.135739
H9    H     H_    0.536110 0.802688 0.347687 0.121754
H10   H     H_    0.463897 0.197389 0.652305 0.121753
H11   H     H_    0.964043 0.301354 0.152174 0.121756
H12   H     H_    0.035964 0.698579 0.847818 0.121755
C41   C     C_3   0.039711 0.127230 0.521326 0.196795
C42   C     C_3   0.960289 0.872770 0.478674 0.196797
C43   C     C_3   0.460290 0.627230 0.978674 0.196807
C44   C     C_3   0.539710 0.372770 0.021326 0.196807
C45   C     C_3   0.022696 0.944804 0.558458 -0.181015
C46   C     C_3   0.977304 0.055195 0.441542 -0.181013
C47   C     C_3   0.477304 0.444804 0.941542 -0.181011
C48   C     C_3   0.522696 0.555196 0.058458 -0.181011
H13   H     H_    0.041333 0.900584 0.606690 0.119565
H14   H     H_    0.958667 0.099415 0.393309 0.119565
H15   H     H_    0.458667 0.400584 0.893309 0.119567
H16   H     H_    0.541333 0.599416 0.106690 0.119567
H17   H     H_    0.046271 0.683300 0.490718 0.125776
H18   H     H_    0.953728 0.316700 0.509282 0.125775
H19   H     H_    0.453727 0.183301 0.009282 0.125775
H20   H     H_    0.546273 0.816699 0.990718 0.125775
C49   C     C_1   0.872039 0.969216 0.624779 -0.190337
C50   C     C_1   0.127961 0.030783 0.375221 -0.190334
C51   C     C_1   0.627961 0.469215 0.875221 -0.190336
C52   C     C_1   0.372039 0.530785 0.124779 -0.190338
C53   C     C_3   0.974551 0.173945 0.504728 -0.173928
C54   C     C_3   0.025449 0.826055 0.495271 -0.173929
C55   C     C_3   0.525449 0.673945 0.995271 -0.173932
C56   C     C_3   0.474550 0.326055 0.004728 -0.173932
C57   C     C_3   0.957642 0.990207 0.541051 0.093357
C58   C     C_3   0.042357 0.009793 0.458949 0.093356
C59   C     C_3   0.542357 0.490206 0.958949 0.093353
C60   C     C_3   0.457642 0.509794 0.041051 0.093353
C61   C     C_1   0.910455 0.978570 0.586913 -0.060224
C62   C     C_1   0.089544 0.021430 0.413087 -0.060227
C63   C     C_1   0.589544 0.478569 0.913087 -0.060215
C64   C     C_1   0.410455 0.521431 0.086913 -0.060216
C65   C     C_3   0.686015 0.823229 0.529963 -0.367161
C66   C     C_3   0.719199 0.975849 0.493850 -0.774818
H21   H     H_    0.693747 0.023113 0.449627 0.231455
H22   H     H_    0.728178 0.102455 0.525474 0.225592
H23   H     H_    0.761597 0.915984 0.479776 0.213442
H24   H     H_    0.714687 0.777580 0.571748 0.187100
H25   H     H_    0.680308 0.690646 0.500652 0.171950
C67   C     C_3   0.313974 0.176667 0.470046 -0.367132
C68   C     C_3   0.280828 0.024039 0.506199 -0.774805
H26   H     H_    0.271899 0.897305 0.474617 0.225614
H27   H     H_    0.306283 0.976984 0.550443 0.231441
H28   H     H_    0.238407 0.083809 0.520239 0.213439
H29   H     H_    0.319667 0.309309 0.499331 0.171944
H30   H     H_    0.285282 0.222186 0.428261 0.187058
C69   C     C_3   0.814042 0.322651 0.970012 -0.367061
C70   C     C_3   0.780898 0.474886 0.006343 -0.774907
H31   H     H_    0.806378 0.521647 0.050608 0.231467
H32   H     H_    0.771915 0.601857 0.974886 0.225598
H33   H     H_    0.738504 0.414878 0.020374 0.213445
H34   H     H_    0.785316 0.277431 0.928217 0.187136
H35   H     H_    0.819786 0.189778 0.999168 0.171945
C71   C     C_3   0.185957 0.677374 0.029991 -0.367074
C72   C     C_3   0.219118 0.525115 0.993689 -0.774899
H36   H     H_    0.228109 0.398199 0.025168 0.225588
H37   H     H_    0.193645 0.478267 0.949430 0.231468
H38   H     H_    0.261508 0.585137 0.979653 0.213446
H39   H     H_    0.180210 0.810208 0.000815 0.171942
H40   H     H_    0.214670 0.722674 0.071785 0.187151
C73   C     C_3   0.086352 0.271823 0.544822 -0.362820
C74   C     C_3   0.068275 0.379599 0.604456 -0.769549
H41   H     H_    0.027397 0.462033 0.593363 0.225572
H42   H     H_    0.061259 0.277213 0.644303 0.228754
H43   H     H_    0.103329 0.482071 0.620441 0.217292
H44   H     H_    0.128045 0.194310 0.556368 0.177518
H45   H     H_    0.093591 0.376108 0.505642 0.173885
C75   C     C_3   0.913648 0.728176 0.455178 -0.362822
C76   C     C_3   0.931725 0.620400 0.395544 -0.769550
H46   H     H_    0.938741 0.722786 0.355697 0.228755
H47   H     H_    0.972603 0.537966 0.406637 0.225572
H48   H     H_    0.896671 0.517928 0.379558 0.217292
H49   H     H_    0.906408 0.623892 0.494357 0.173886
H50   H     H_    0.871955 0.805690 0.443632 0.177518
C77   C     C_3   0.413648 0.771824 0.955176 -0.362817
C78   C     C_3   0.431727 0.879599 0.895543 -0.769569
H51   H     H_    0.472605 0.962031 0.906636 0.225573
H52   H     H_    0.438742 0.777211 0.855696 0.228756
H53   H     H_    0.396674 0.982071 0.879557 0.217291
H54   H     H_    0.371956 0.694311 0.943630 0.177516
H55   H     H_    0.406409 0.876109 0.994356 0.173881
C79   C     C_3   0.586351 0.228176 0.044823 -0.362816
C80   C     C_3   0.568273 0.120402 0.104457 -0.769571
H56   H     H_    0.561258 0.222790 0.144304 0.228756
H57   H     H_    0.527395 0.037970 0.093364 0.225573
H58   H     H_    0.603326 0.017929 0.120443 0.217291
H59   H     H_    0.593591 0.123890 0.005644 0.173880
H60   H     H_    0.628044 0.305689 0.056369 0.177516

loop_
_geom_bond_atom_site_label_1
_geom_bond_atom_site_label_2
_ccdc_geom_bond_type
C34   C38   A    
C55   C59   S    
C73   H44   S    
O1    C5    A    
O19   V1    S    
O13   V1    S    
O3    C7    A    
C71   H39   S    
C56   C60   S    
C44   C48   S    
C72   H38   S    
O15   V3    S    
C10   H2    S    
C76   H46   S    
C9    H1    S    
C69   C70   S    
C45   C57   S    
O18   V4    S    
C21   C33   A    
C26   C30   A    
C67   H30   S    
C77   H55   S    
O9    V1    S    
C41   C73   S    
C14   C18   A    
C68   H27   S    
C11   C15   A    
O4    C8    A    
C45   C54   S    
C36   H8    S    
C20   C71   S    
O1    V3    S    
C67   C68   S    
O17   V1    S    
O2    V4    S    
C18   C22   A    
O3    V1    S    
C66   H21   S    
C22   C34   A    
C12   C16   A    
C75   H50   S    
C66   H22   S    
C49   C61   T    
C1    O15   A    
C50   C62   T    
C2    O16   A    
C42   C54   S    
C77   C78   S    
C80   H57   S    
C41   C53   S    
O14   V2    S    
C21   C25   A    
H19   C56   S    
C65   C66   S    
H18   C53   S    
C79   H60   S    
O11   C7    A    
C73   H45   S    
O12   C8    A    
C17   C65   S    
C69   H35   S    
C42   C57   S    
C9    C29   A    
C41   C58   S    
O10   V2    S    
C76   H47   S    
C24   C36   A    
O5    V1    S    
C57   C61   S    
C44   C56   S    
C80   H58   S    
O4    V2    S    
O7    V3    S    
C67   H29   S    
C47   C59   S    
C44   C59   S    
C11   C31   A    
C27   C28   A    
O8    V4    S    
O20   V4    S    
C74   H41   S    
C68   H28   S    
C34   H6    S    
C15   C19   A    
C37   H9    S    
C54   C58   S    
O19   V3    S    
C52   C64   T    
C9    C13   A    
C46   C58   S    
O7    C3    A    
O5    C1    A    
C75   H49   S    
C12   C32   A    
C42   C75   S    
C29   C38   A    
C42   C46   S    
C44   C79   S    
C80   H56   S    
C1    C52   S    
C78   H53   S    
C41   C45   S    
O8    C4    A    
C31   C40   A    
C8    C13   S    
C40   H12   S    
C32   C39   A    
O9    C5    A    
C77   H54   S    
C33   C37   A    
C66   H23   S    
C51   C63   T    
C65   H24   S    
C70   H33   S    
C79   H59   S    
C3    C50   S    
C18   C67   S    
O6    V2    S    
C78   H52   S    
C10   C30   A    
C47   C56   S    
C79   C80   S    
C48   C60   S    
C46   C53   S    
C43   C60   S    
C16   C20   A    
C72   H36   S    
C19   C69   S    
C60   C64   S    
C76   H48   S    
C70   H32   S    
O16   V4    S    
C43   C77   S    
C43   C55   S    
C3    O13   A    
C10   C14   A    
C48   C55   S    
O17   V3    S    
C71   H40   S    
C48   H16   S    
C75   C76   S    
C72   H37   S    
C74   H43   S    
C47   H15   S    
O6    C2    A    
C23   C27   A    
C12   H4    S    
O11   V3    S    
C74   H42   S    
C30   C37   A    
O12   V4    S    
C7    C14   S    
C73   C74   S    
C22   C26   A    
C35   C39   A    
H17   C54   S    
C36   C40   A    
O10   C6    A    
O20   V2    S    
C71   C72   S    
C46   H14   S    
O2    C6    A    
C43   C47   S    
C69   H34   S    
C5    C16   S    
C39   H11   S    
C2    C51   S    
C25   C29   A    
C6    C15   S    
C58   C62   S    
C27   C31   A    
C13   C17   A    
C4    C49   S    
C53   C57   S    
C11   H3    S    
C65   H25   S    
C23   C35   A    
C20   C24   A    
C24   C28   A    
C78   H51   S    
C25   C26   A    
C4    O14   A    
C17   C21   A    
C38   H10   S    
C59   C63   S    
C33   H5    S    
C68   H26   S    
C19   C23   A    
C45   H13   S    
C28   C32   A    
H20   C55   S    
C35   H7    S    
C70   H31   S    
O18   V2    S    
