data_mof_unit_25952.cif
_audit_creation_date              2012-12-11T13:59:55-0500
_audit_creation_method            fapswitch 2.2
_symmetry_space_group_name_H-M    P1
_symmetry_Int_Tables_number       1
_space_group_crystal_system       triclinic
_cell_length_a                    11.553028
_cell_length_b                    11.532544
_cell_length_c                    18.974349
_cell_angle_alpha                 89.367801
_cell_angle_beta                  90.579896
_cell_angle_gamma                 120.092075
_cell_volume                      2187.16841431

loop_
_atom_site_label
_atom_site_type_symbol
_atom_type_description
_atom_site_fract_x
_atom_site_fract_y
_atom_site_fract_z
_atom_type_partial_charge
C1    C     C_R   0.543762 0.478782 0.852554 0.551285
C2    C     C_R   0.480511 0.542821 0.350618 0.557479
C3    C     C_R   0.070396 0.522328 0.352992 0.560771
C4    C     C_R   0.456374 0.935260 0.351036 0.560205
C5    C     C_2   0.005317 0.504453 0.582235 -0.105432
C6    C     C_2   0.549148 0.463038 0.566680 -0.101681
C7    C     C_2   0.506162 0.026124 0.574169 -0.093427
C8    C     C_2   0.505005 0.006631 0.417360 -0.103462
C9    C     C_2   0.510319 0.488391 0.413792 -0.108447
C10   C     C_2   0.024192 0.505129 0.425408 -0.094320
C11   C     C_2   0.069029 0.445931 0.470901 -0.150989
C12   C     C_R   0.524145 0.067572 0.854102 0.533278
C13   C     C_2   0.627393 0.559106 0.448076 -0.152019
C14   C     C_2   0.426750 0.038136 0.454196 -0.159859
C15   C     C_2   0.448248 0.072337 0.528648 -0.155420
C16   C     C_2   0.649516 0.530699 0.521175 -0.162331
C17   C     C_2   0.035255 0.425026 0.545345 -0.157017
C18   C     C_2   0.006955 0.505147 0.920001 -0.121145
C19   C     C_2   0.502129 0.503286 0.921643 -0.128130
C20   C     C_2   0.512216 0.009699 0.926120 -0.143409
C21   C     C_2   0.505198 0.007297 0.080023 -0.121534
C22   C     C_2   0.502971 0.502102 0.078264 -0.127968
C23   C     C_R   0.935340 0.456895 0.852492 0.545342
C24   C     C_2   0.009544 0.512044 0.073970 -0.143822
C25   C     C_2   0.033856 0.622080 0.033825 -0.045397
C26   C     C_2   0.403250 0.405496 0.039356 -0.023157
C27   C     C_2   0.608780 0.011737 0.044057 -0.008117
C28   C     C_2   0.622129 0.034184 0.966217 -0.045673
C29   C     C_2   0.405305 0.403584 0.960545 -0.024261
C30   C     C_2   0.011195 0.608708 0.956015 -0.008202
C31   C     C_3   0.084760 0.754953 0.072795 -0.223774
C32   C     C_3   0.122528 0.897940 0.053992 -0.350612
C33   C     C_3   0.163175 0.981384 0.122412 -0.426099
C34   C     C_R   0.478674 0.543721 0.147416 0.540611
C35   C     C_3   0.279788 0.297065 0.074857 -0.225673
C36   C     C_3   0.169072 0.329054 0.067564 -0.234769
C37   C     C_3   0.047490 0.220429 0.105919 -0.412886
C38   C     C_3   0.715534 0.996619 0.081123 -0.204366
C39   C     C_3   0.704917 0.862771 0.064596 -0.259684
C40   C     C_3   0.800337 0.841313 0.111788 -0.418282
C41   C     C_3   0.754923 0.085184 0.927235 -0.223636
C42   C     C_3   0.897698 0.123102 0.946129 -0.350858
C43   C     C_3   0.981386 0.163533 0.877783 -0.424413
C44   C     C_3   0.297011 0.280121 0.925038 -0.225956
C45   C     C_R   0.067472 0.524083 0.145928 0.531073
C46   C     C_3   0.328768 0.169068 0.932329 -0.235615
C47   C     C_3   0.220472 0.047458 0.893928 -0.412214
C48   C     C_3   0.995868 0.715552 0.919004 -0.204609
C49   C     C_3   0.862169 0.704660 0.935616 -0.261360
C50   C     C_3   0.840965 0.800553 0.888543 -0.417318
C51   C     C_R   0.456855 0.935387 0.147524 0.542239
C52   C     C_R   0.577914 0.453300 0.640674 0.565445
C53   C     C_R   0.522731 0.071188 0.646800 0.555366
C54   C     C_R   0.935054 0.456380 0.648862 0.553247
Cr1   Cr    Cr6+3 0.464030 0.233680 0.750360 0.989279
Cr2   Cr    Cr6+3 0.766320 0.230350 0.750360 0.982982
Cr3   Cr    Cr6+3 0.769650 0.535970 0.750360 0.988449
Cr4   Cr    Cr6+3 0.233680 0.464030 0.249640 0.990734
Cr5   Cr    Cr6+3 0.230350 0.766320 0.249640 0.984255
Cr6   Cr    Cr6+3 0.535970 0.769650 0.249640 0.993839
H1    H     H_    0.128379 0.403239 0.452450 0.153670
H2    H     H_    0.549995 0.967111 0.557163 0.101862
H3    H     H_    0.445178 0.415146 0.550221 0.101807
H4    H     H_    0.016793 0.596533 0.559591 0.101793
H5    H     H_    0.960106 0.413330 0.050890 0.078962
H6    H     H_    0.598543 0.568295 0.054233 0.075990
H7    H     H_    0.441508 0.039382 0.054846 0.070828
H8    H     H_    0.413640 0.960225 0.949253 0.079193
H9    H     H_    0.568363 0.598885 0.945666 0.075752
H10   H     H_    0.039164 0.441457 0.945137 0.070775
H11   H     H_    0.139121 0.919973 0.171337 0.183585
H12   H     H_    0.708848 0.648228 0.423951 0.153505
H13   H     H_    0.271483 0.056051 0.122351 0.159645
H14   H     H_    0.109348 0.035242 0.128953 0.105155
H15   H     H_    0.210317 0.938422 0.019354 0.147989
H16   H     H_    0.041102 0.905260 0.027702 0.156643
H17   H     H_    0.009787 0.729070 0.115427 0.174981
H18   H     H_    0.185835 0.775012 0.087015 0.222524
H19   H     H_    0.012822 0.127257 0.076713 0.111141
H20   H     H_    0.071352 0.207145 0.161283 0.167894
H21   H     H_    0.966546 0.244383 0.106407 0.150600
H22   H     H_    0.209605 0.433502 0.082883 0.217963
H23   H     H_    0.338661 0.033409 0.430257 0.154499
H24   H     H_    0.140889 0.337424 0.013341 0.105596
H25   H     H_    0.242238 0.199250 0.052015 0.135539
H26   H     H_    0.298885 0.276867 0.129736 0.156494
H27   H     H_    0.902066 0.915230 0.097835 0.119716
H28   H     H_    0.787414 0.856048 0.168284 0.179866
H29   H     H_    0.787818 0.740554 0.104431 0.143964
H30   H     H_    0.599772 0.782801 0.070087 0.202825
H31   H     H_    0.728794 0.858286 0.008900 0.133415
H32   H     H_    0.807800 0.076161 0.062857 0.119382
H33   H     H_    0.727603 0.021348 0.137899 0.157406
H34   H     H_    0.406597 0.132587 0.547181 0.148673
H35   H     H_    0.920319 0.139166 0.828810 0.185040
H36   H     H_    0.056036 0.272001 0.877692 0.160356
H37   H     H_    0.035270 0.109675 0.871529 0.105336
H38   H     H_    0.938142 0.211150 0.980648 0.147642
H39   H     H_    0.904920 0.041609 0.972579 0.156597
H40   H     H_    0.729260 0.010101 0.884673 0.176062
H41   H     H_    0.774859 0.186346 0.912903 0.222089
H42   H     H_    0.127297 0.012885 0.923021 0.110593
H43   H     H_    0.207566 0.071565 0.838540 0.169441
H44   H     H_    0.244224 0.966211 0.893594 0.150884
H45   H     H_    0.752398 0.578851 0.539974 0.136887
H46   H     H_    0.433078 0.209524 0.917093 0.217049
H47   H     H_    0.336958 0.140747 0.986555 0.105304
H48   H     H_    0.199306 0.242584 0.947866 0.135066
H49   H     H_    0.277097 0.299504 0.870155 0.158665
H50   H     H_    0.914928 0.902303 0.902578 0.119732
H51   H     H_    0.855735 0.787874 0.832017 0.182039
H52   H     H_    0.740465 0.788184 0.895959 0.144776
H53   H     H_    0.857654 0.728342 0.991354 0.133760
H54   H     H_    0.782354 0.599359 0.930002 0.201723
H55   H     H_    0.075088 0.807950 0.937298 0.119772
H56   H     H_    0.030010 0.336538 0.569338 0.157494
H57   H     H_    0.020674 0.727892 0.862220 0.158337
H58   H     H_    0.966026 0.549922 0.442377 0.090680
H59   H     H_    0.430633 0.395005 0.435250 0.093993
H60   H     H_    0.596832 0.017847 0.439911 0.108473
O1    O     O_R   0.434100 0.092480 0.829780 -0.535173
O2    O     O_R   0.362730 0.477510 0.175360 -0.511963
O3    O     O_R   0.114780 0.637270 0.175360 -0.526745
O4    O     O_R   0.522490 0.885220 0.175360 -0.505501
O5    O     O_R   0.432250 0.092620 0.670380 -0.523066
O6    O     O_R   0.907380 0.339630 0.670380 -0.516630
O7    O     O_R   0.660370 0.567750 0.670380 -0.504921
O8    O     O_R   0.092620 0.432250 0.329620 -0.518934
O9    O     O_R   0.339630 0.907380 0.329620 -0.519856
O10   O     O_R   0.567750 0.660370 0.329620 -0.517127
O11   O     O_R   0.475790 0.362860 0.676880 -0.505825
O12   O     O_R   0.907520 0.341620 0.829780 -0.550748
O13   O     O_R   0.637140 0.112930 0.676880 -0.498116
O14   O     O_R   0.887070 0.524210 0.676880 -0.522230
O15   O     O_R   0.362860 0.475790 0.323120 -0.507881
O16   O     O_R   0.112930 0.637140 0.323120 -0.498845
O17   O     O_R   0.524210 0.887070 0.323120 -0.502864
O18   O     O_3   0.666667 0.333333 0.749450 -0.277481
O19   O     O_3   0.333333 0.666667 0.250550 -0.256112
O20   O     O_R   0.658380 0.565900 0.829780 -0.533239
O21   O     O_R   0.092480 0.434100 0.170220 -0.536243
O22   O     O_R   0.341620 0.907520 0.170220 -0.552718
O23   O     O_R   0.565900 0.658380 0.170220 -0.538274
O24   O     O_R   0.477510 0.362730 0.824640 -0.506629
O25   O     O_R   0.637270 0.114780 0.824640 -0.524360
O26   O     O_R   0.885220 0.522490 0.824640 -0.504475

loop_
_geom_bond_atom_site_label_1
_geom_bond_atom_site_label_2
_ccdc_geom_bond_type
Cr4   O19   S    
C18   H10   S    
C49   H53   S    
Cr1   O1    S    
Cr4   O8    S    
C41   C42   S    
C28   C41   S    
C35   C36   S    
C4    C8    S    
C32   H15   S    
Cr2   O13   S    
C45   O3    A    
C37   H19   S    
Cr1   O18   S    
C24   C45   S    
C40   H27   S    
C30   C48   S    
C36   C37   S    
C42   H38   S    
Cr6   O23   S    
C38   C39   S    
C35   H26   S    
C5    C17   D    
C27   C38   S    
C54   O14   A    
C38   H32   S    
Cr5   O16   S    
C50   H50   S    
Cr2   O18   S    
C3    O16   A    
Cr2   O25   S    
Cr6   O4    S    
C9    C13   D    
C22   H6    S    
C4    O17   A    
Cr5   O9    S    
C12   O1    A    
Cr1   O5    S    
Cr5   O22   S    
C36   H22   S    
C23   O12   A    
C43   H35   S    
C18   C30   D    
Cr2   O6    S    
C40   H29   S    
C39   H30   S    
Cr6   O17   S    
C44   H49   S    
C7    C15   D    
C49   H54   S    
C21   C27   D    
C34   O2    A    
C47   H42   S    
Cr3   O26   S    
C21   H7    S    
C45   O21   A    
C51   O4    A    
C47   H43   S    
C37   H21   S    
C14   H23   S    
C15   H34   S    
C39   H31   S    
C23   O26   A    
C52   O7    A    
C44   C46   S    
C31   H17   S    
C44   H48   S    
Cr5   O3    S    
C22   C34   S    
C37   H20   S    
C34   O23   A    
Cr4   O2    S    
C1    C19   S    
C48   H57   S    
C18   C23   S    
C5    C54   S    
C53   O13   A    
C24   C25   D    
Cr6   O10   S    
C39   C40   S    
C3    O8    A    
C20   C28   D    
C5    H4    S    
C12   O25   A    
C7    H2    S    
C32   H16   S    
C10   H58   S    
C6    H3    S    
C54   O6    A    
C26   C35   S    
C31   C32   S    
Cr5   O19   S    
C46   H47   S    
C12   C20   S    
C50   H52   S    
C43   H36   S    
C41   H40   S    
Cr2   O12   S    
C1    O20   A    
C53   O5    A    
C16   H45   S    
C48   H55   S    
C24   H5    S    
C33   H13   S    
C48   C49   S    
Cr1   O11   S    
C29   C44   S    
C9    H59   S    
Cr3   O14   S    
C19   H9    S    
C42   C43   S    
C7    C53   S    
C19   C29   D    
C21   C51   S    
C8    H60   S    
C31   H18   S    
C51   O22   A    
C25   C30   S    
C46   C47   S    
C11   C17   S    
C8    C14   D    
Cr1   O24   S    
C52   O11   A    
C25   C31   S    
C20   H8    S    
C43   H37   S    
C11   H1    S    
Cr3   O7    S    
C4    O9    A    
C13   H12   S    
Cr4   O15   S    
C2    O15   A    
C32   C33   S    
C40   H28   S    
C3    C10   S    
C42   H39   S    
C35   H25   S    
Cr4   O21   S    
C47   H44   S    
C36   H24   S    
C46   H46   S    
C38   H33   S    
C50   H51   S    
C2    O10   A    
C41   H41   S    
Cr3   O18   S    
C10   C11   D    
C33   H11   S    
Cr6   O19   S    
C6    C16   D    
C33   H14   S    
Cr3   O20   S    
C26   C29   S    
C49   C50   S    
C22   C26   D    
C13   C16   S    
C27   C28   S    
C1    O24   A    
C14   C15   S    
C6    C52   S    
C2    C9    S    
C17   H56   S    
