data_mof_unit_66708.cif
_audit_creation_date              2013-03-05T15:44:40-0500
_audit_creation_method            fapswitch 2.2
_symmetry_space_group_name_H-M    P1
_symmetry_Int_Tables_number       1
_space_group_crystal_system       triclinic
_cell_length_a                    24.842935
_cell_length_b                    7.144562
_cell_length_c                    14.763123
_cell_angle_alpha                 88.034727
_cell_angle_beta                  102.013583
_cell_angle_gamma                 88.372217
_cell_volume                      2559.74334594

loop_
_atom_site_label
_atom_site_type_symbol
_atom_site_description
_atom_site_fract_x
_atom_site_fract_y
_atom_site_fract_z
_atom_type_partial_charge
O1    O     O_R   0.319150 0.364170 0.330530 -0.582637
O2    O     O_R   0.680850 0.635830 0.669470 -0.582646
O3    O     O_R   0.180850 0.864170 0.169470 -0.559579
O4    O     O_R   0.819150 0.135830 0.830530 -0.559633
O5    O     O_R   0.210330 0.696850 0.354180 -0.563954
O6    O     O_R   0.789670 0.303150 0.645820 -0.564083
O7    O     O_R   0.289670 0.196850 0.145820 -0.583361
O8    O     O_R   0.710330 0.803150 0.854180 -0.583256
C1    C     C_R   0.196104 0.524986 0.376271 1.012055
C2    C     C_R   0.803903 0.474998 0.623734 1.011811
C3    C     C_R   0.303756 0.025787 0.123359 1.005236
C4    C     C_R   0.696289 0.974214 0.876712 1.005025
O9    O     O_R   0.320550 0.694110 0.341970 -0.557467
O10   O     O_R   0.679450 0.305890 0.658030 -0.557590
O11   O     O_R   0.179450 0.194110 0.158030 -0.575809
O12   O     O_R   0.820550 0.805890 0.841970 -0.575866
O13   O     O_R   0.291860 0.861000 0.157170 -0.568271
O14   O     O_R   0.708140 0.139000 0.842830 -0.568264
O15   O     O_R   0.208140 0.361000 0.342830 -0.583555
O16   O     O_R   0.791860 0.639000 0.657170 -0.583328
C5    C     C_R   0.341445 0.520037 0.363003 1.045634
C6    C     C_R   0.658551 0.479997 0.636981 1.045507
C7    C     C_R   0.158186 0.030621 0.136844 1.049664
C8    C     C_R   0.841813 0.969361 0.863166 1.049630
O17   O     O_3   0.240460 0.529330 0.189380 -0.269807
O18   O     O_3   0.759540 0.470670 0.810620 -0.269896
O19   O     O_3   0.259540 0.029330 0.310620 -0.271989
O20   O     O_3   0.740460 0.970670 0.689380 -0.272081
V1    V     V_3+5 0.251770 0.805510 0.261240 1.338969
V2    V     V_3+5 0.748230 0.194490 0.738760 1.338671
V3    V     V_3+5 0.248230 0.305510 0.238760 1.326046
V4    V     V_3+5 0.751770 0.694490 0.761240 1.325939
C9    C     C_R   0.102257 0.039449 0.074124 -0.390473
C10   C     C_R   0.897748 0.960427 0.925884 -0.390606
C11   C     C_R   0.396930 0.493676 0.425583 -0.391857
C12   C     C_R   0.603052 0.506506 0.574411 -0.392367
C13   C     C_R   0.963213 0.822985 0.060873 0.244080
C14   C     C_R   0.036816 0.176553 0.939052 0.244413
C15   C     C_R   0.540842 0.670613 0.443659 0.261952
C16   C     C_R   0.459114 0.329906 0.556441 0.262665
C17   C     C_R   0.911208 0.824783 0.000000 0.177677
C18   C     C_R   0.088811 0.174889 0.999930 0.177297
C19   C     C_R   0.592753 0.651033 0.504488 0.175240
C20   C     C_R   0.407176 0.349628 0.495706 0.174094
C21   C     C_R   0.938307 0.083780 0.908867 0.381863
C22   C     C_R   0.061709 0.916055 0.091159 0.381786
C23   C     C_R   0.559867 0.390813 0.587118 0.375284
C24   C     C_R   0.440118 0.609206 0.412755 0.375575
C25   C     C_R   0.993692 0.065832 0.961228 -0.136093
C26   C     C_R   0.006327 0.933865 0.038764 -0.136288
C27   C     C_R   0.504823 0.429184 0.536534 -0.134213
C28   C     C_R   0.495151 0.571037 0.463423 -0.134515
C29   C     C_R   0.664434 0.983971 0.949398 -0.243647
C30   C     C_R   0.335606 0.016072 0.050685 -0.243508
C31   C     C_R   0.835770 0.482237 0.550752 -0.245499
C32   C     C_R   0.164347 0.517577 0.449391 -0.245386
C33   C     C_R   0.657097 0.053103 0.105663 0.265079
C34   C     C_R   0.342871 0.947540 0.894351 0.265168
C35   C     C_R   0.844030 0.426881 0.393353 0.264099
C36   C     C_R   0.156252 0.572742 0.606861 0.264033
C37   C     C_R   0.689715 0.025355 0.039995 0.124752
C38   C     C_R   0.310305 0.974630 0.960118 0.124707
C39   C     C_R   0.811124 0.444181 0.459366 0.127996
C40   C     C_R   0.189027 0.556462 0.540630 0.128092
C41   C     C_R   0.607753 0.957547 0.926805 -0.054102
C42   C     C_R   0.392266 0.042924 0.073194 -0.054110
C43   C     C_R   0.891966 0.517552 0.573789 -0.048680
C44   C     C_R   0.108231 0.481080 0.426648 -0.050028
C45   C     C_R   0.574421 0.986816 0.992055 0.102691
C46   C     C_R   0.425568 0.013893 0.007872 0.102805
C47   C     C_R   0.925630 0.499279 0.508105 0.099270
C48   C     C_R   0.074628 0.499143 0.492448 0.099277
C49   C     C_R   0.599098 0.064810 0.076767 -0.113857
C50   C     C_R   0.400872 0.936069 0.923129 -0.113823
C51   C     C_R   0.902072 0.423176 0.422287 -0.111707
C52   C     C_R   0.098204 0.575480 0.578212 -0.111189
C53   C     C_R   0.516758 0.956231 0.972505 -0.091842
C54   C     C_R   0.483220 0.044600 0.027363 -0.091937
C55   C     C_R   0.982790 0.538457 0.528181 -0.092233
C56   C     C_R   0.017483 0.459780 0.472463 -0.092538
C57   C     C_R   0.507994 0.168417 0.096405 0.276769
C58   C     C_R   0.491964 0.832580 0.903388 0.276938
C59   C     C_R   0.994417 0.336693 0.401900 0.270703
C60   C     C_R   0.005846 0.661618 0.598723 0.270863
C61   C     C_R   0.565750 0.172908 0.122940 0.178594
C62   C     C_R   0.434205 0.828275 0.876805 0.178525
C63   C     C_R   0.936842 0.324485 0.374870 0.177064
C64   C     C_R   0.063425 0.673911 0.625726 0.176824
H1    H     H_    0.410368 0.070483 0.144325 0.183664
H2    H     H_    0.589671 0.930119 0.855652 0.183907
H3    H     H_    0.090462 0.456248 0.355054 0.184230
H4    H     H_    0.909704 0.542059 0.645443 0.184423
N1    N     N_R   0.078125 0.770869 0.161534 0.238113
O21   O     O_R   0.087404 0.600865 0.138181 -0.373293
O22   O     O_R   0.091576 0.813245 0.248255 -0.363113
N2    N     N_R   0.921904 0.229067 0.838537 0.238106
O23   O     O_R   0.908369 0.186810 0.751807 -0.363837
O24   O     O_R   0.912868 0.399209 0.861940 -0.373342
N3    N     N_R   0.426738 0.769148 0.350100 0.242025
O25   O     O_R   0.426243 0.936175 0.382434 -0.366666
O26   O     O_R   0.409499 0.746961 0.261732 -0.379845
N4    N     N_R   0.573237 0.230580 0.649591 0.242176
O27   O     O_R   0.590594 0.252262 0.737972 -0.380207
O28   O     O_R   0.573147 0.063521 0.617117 -0.366611
I1    I     I_    0.146920 0.382819 0.976826 -0.139650
I2    I     I_    0.853120 0.616623 0.022957 -0.139643
I3    I     I_    0.343864 0.158196 0.512737 -0.140825
I4    I     I_    0.655839 0.843949 0.487953 -0.140248
I5    I     I_    0.968818 0.668414 0.191660 -0.144248
I6    I     I_    0.031267 0.330292 0.808077 -0.144854
I7    I     I_    0.538780 0.827832 0.314905 -0.129382
I8    I     I_    0.461194 0.173317 0.685367 -0.129072
I9    I     I_    0.600255 0.402676 0.202190 -0.128401
I10   I     I_    0.399637 0.599312 0.796999 -0.128362
I11   I     I_    0.905485 0.096183 0.291618 -0.131103
I12   I     I_    0.094755 0.901936 0.709200 -0.131360
I13   I     I_    0.223729 0.938428 0.925432 -0.222834
I14   I     I_    0.776357 0.060423 0.074852 -0.223117
I15   I     I_    0.275068 0.603200 0.575796 -0.218662
I16   I     I_    0.724790 0.401664 0.423520 -0.219418
I17   I     I_    0.694382 0.005344 0.248611 -0.142859
I18   I     I_    0.305481 0.996761 0.751594 -0.142880
I19   I     I_    0.805855 0.474278 0.250651 -0.142534
I20   I     I_    0.194799 0.525078 0.749372 -0.142666
N5    N     N_R   0.475275 0.308491 0.130102 0.239152
O29   O     O_R   0.442647 0.423695 0.072028 -0.359706
O30   O     O_R   0.477826 0.321048 0.218648 -0.349924
N6    N     N_R   0.524653 0.692504 0.869628 0.239081
O31   O     O_R   0.522163 0.680279 0.781081 -0.349898
O32   O     O_R   0.557212 0.577020 0.927650 -0.359824
N7    N     N_R   0.028944 0.204837 0.366728 0.240854
O33   O     O_R   0.026886 0.198532 0.278055 -0.348252
O34   O     O_R   0.062600 0.090378 0.423619 -0.354175
N8    N     N_R   0.971306 0.793576 0.633827 0.240940
O35   O     O_R   0.937333 0.906870 0.576854 -0.354610
O36   O     O_R   0.973403 0.800232 0.722496 -0.348047

loop_
_geom_bond_atom_site_label_1
_geom_bond_atom_site_label_2
_geom_bond_distance
_ccdc_geom_bond_type
C34   C38   1.402044 A    
C59   C63   1.408745 A    
O1    C5    1.318267 A    
N1    O21   1.301216 A    
C13   C26   1.434339 A    
O19   V1    1.778968 S    
O13   V1    2.031567 S    
C45   C53   1.425881 A    
O3    C7    1.331551 A    
C48   C52   1.414356 A    
O15   V3    2.041067 S    
N6    O31   1.301848 A    
C47   C55   1.426776 A    
C16   I8    2.164887 S    
C14   C25   1.434249 A    
C53   C54   1.426460 A    
O7    C3    1.333382 A    
C60   N8    1.437482 S    
C40   I15   2.130842 S    
C9    C18   1.415746 A    
O9    V1    1.995864 S    
C14   C18   1.411216 A    
C55   C60   1.424819 A    
O4    C8    1.331687 A    
C46   C54   1.425794 A    
O1    V3    2.050007 S    
C44   H3    1.080078 S    
C12   C23   1.411712 A    
O2    V4    2.050006 S    
C33   C49   1.414176 A    
C33   C37   1.402457 A    
C36   I20   2.133795 S    
C46   C50   1.413618 A    
C38   I13   2.130089 S    
C29   C37   1.399553 A    
C1    O15   1.336804 A    
C2    O16   1.336915 A    
C7    C9    1.499125 S    
C31   C39   1.399921 A    
O2    C6    1.318163 A    
C32   C40   1.399641 A    
C45   C49   1.413646 A    
O14   V2    2.031567 S    
C14   I6    2.167730 S    
C29   C41   1.397704 A    
C52   C64   1.408795 A    
C16   C20   1.409982 A    
C63   I11   2.142224 S    
C4    C29   1.462234 S    
C44   C48   1.413221 A    
O11   C7    1.316267 A    
C15   C28   1.431505 A    
O12   C8    1.316176 A    
C23   N4    1.431765 S    
C9    C22   1.412757 A    
C10   C17   1.415911 A    
O10   V2    1.995864 S    
C56   C59   1.424749 A    
C11   C24   1.411561 A    
C42   H1    1.079980 S    
O5    V1    2.026211 S    
C35   I19   2.133893 S    
C41   H2    1.079944 S    
C34   I18   2.131638 S    
O7    V3    2.039810 S    
C17   I2    2.167959 S    
C27   C28   1.432845 A    
O8    V4    2.039812 S    
C10   C21   1.412696 A    
O18   V4    1.723294 S    
C15   C19   1.410015 A    
C30   C38   1.399407 A    
C58   C62   1.408132 A    
C36   C52   1.415211 A    
C8    C10   1.499225 S    
N2    O24   1.301156 A    
C64   I12   2.142194 S    
O5    C1    1.335727 A    
C11   C20   1.413517 A    
C31   C43   1.398761 A    
N3    O25   1.301054 A    
C21   C25   1.430935 A    
O8    C4    1.333427 A    
C49   C61   1.407950 A    
N2    O23   1.302581 A    
O9    C5    1.335044 A    
C15   I7    2.164995 S    
C1    C32   1.464061 S    
C50   C62   1.407907 A    
N4    O28   1.301301 A    
C2    C31   1.464207 S    
C58   N6    1.437356 S    
C3    C30   1.461971 S    
C5    C11   1.494056 S    
C51   C63   1.408636 A    
O6    V2    2.026211 S    
N5    O29   1.301518 A    
N7    O33   1.301797 A    
C35   C51   1.415281 A    
C34   C50   1.414033 A    
O16   V4    2.041067 S    
C20   I3    2.161245 S    
C24   N3    1.431710 S    
C3    O13   1.327959 A    
C57   N5    1.437356 S    
C37   I14   2.130487 S    
C13   I5    2.167979 S    
O17   V3    1.723293 S    
C60   C64   1.408868 A    
N7    O34   1.301908 A    
N6    O32   1.301514 A    
O6    C2    1.335655 A    
C23   C27   1.429090 A    
O11   V3    2.065946 S    
N8    O35   1.301520 A    
C30   C42   1.397717 A    
O12   V4    2.065945 S    
C16   C27   1.431559 A    
C6    C12   1.494364 S    
C22   C26   1.430983 A    
C35   C39   1.402659 A    
C62   I10   2.142988 S    
C36   C40   1.402264 A    
O10   C6    1.335319 A    
C61   I9    2.143050 S    
C59   N7    1.437307 S    
C48   C56   1.426741 A    
C32   C44   1.398568 A    
C47   C51   1.414199 A    
C39   I16   2.132610 S    
C54   C57   1.425437 A    
O3    V1    2.010162 S    
C42   C46   1.411921 A    
C22   N1    1.430863 S    
C53   C58   1.425532 A    
C41   C45   1.411879 A    
O20   V2    1.778966 S    
C43   H4    1.080232 S    
N8    O36   1.301761 A    
C43   C47   1.413122 A    
C19   I4    2.162046 S    
C13   C17   1.411339 A    
N4    O27   1.302247 A    
C18   I1    2.167784 S    
O4    V2    2.010163 S    
C33   I17   2.132358 S    
C55   C56   1.426437 A    
C24   C28   1.429059 A    
N1    O22   1.302565 A    
C25   C26   1.434350 A    
C4    O14   1.328000 A    
N5    O30   1.301826 A    
C12   C19   1.413951 A    
C21   N2    1.430900 S    
N3    O26   1.302282 A    
C57   C61   1.408094 A    
