data_mof_unit_26336.cif
_audit_creation_date              2012-12-10T16:50:57-0500
_audit_creation_method            fapswitch 2.2
_symmetry_space_group_name_H-M    P1
_symmetry_Int_Tables_number       1
_space_group_crystal_system       triclinic
_cell_length_a                    7.817167
_cell_length_b                    8.588582
_cell_length_c                    10.636924
_cell_angle_alpha                 90.383314
_cell_angle_beta                  85.780427
_cell_angle_gamma                 93.470771
_cell_volume                      710.901959487

loop_
_atom_site_label
_atom_site_type_symbol
_atom_type_description
_atom_site_fract_x
_atom_site_fract_y
_atom_site_fract_z
_atom_type_partial_charge
C1    C     C_R   0.545528 0.794486 0.496622 0.986959
C2    C     C_R   0.916655 0.291756 0.059355 0.507603
C3    C     C_R   0.011255 0.431801 0.087285 -0.169289
C4    C     C_R   0.940656 0.356570 0.936009 -0.186507
C5    C     C_R   0.163259 0.412251 0.145582 -0.167536
C6    C     C_R   0.790284 0.357406 0.869618 -0.267264
C7    C     C_R   0.323710 0.429222 0.078550 0.098198
C8    C     C_R   0.633344 0.395036 0.934065 0.151506
C9    C     C_R   0.334491 0.473034 0.952787 -0.001778
C10   C     C_R   0.619244 0.367101 0.064014 0.048619
C11   C     C_R   0.474865 0.410512 0.136407 -0.206657
C12   C     C_R   0.454489 0.205488 0.503535 0.937450
C13   C     C_R   0.492947 0.459538 0.877817 -0.188547
C14   C     C_3   0.898181 0.700415 0.850277 -0.342521
C15   C     C_3   0.913123 0.021406 0.032362 -0.261970
C16   C     C_2   0.569401 0.958025 0.494712 -0.398238
C17   C     C_2   0.430655 0.041990 0.505312 -0.369757
C18   C     C_R   0.500214 0.492916 0.741972 0.861336
C19   C     C_R   0.491544 0.465986 0.265171 0.894318
C20   C     C_R   0.188411 0.541203 0.911916 -0.228485
C21   C     C_R   0.748192 0.288997 0.118191 -0.254472
C22   C     C_R   0.019069 0.506658 0.968505 0.522599
H1    H     H_    0.029817 0.290750 0.875185 0.142735
H2    H     H_    0.993350 0.637780 0.572759 0.177126
H3    H     H_    0.914147 0.615934 0.772390 0.183703
H4    H     H_    0.993834 0.800085 0.833208 0.146095
H5    H     H_    0.768372 0.745484 0.848537 0.188621
H6    H     H_    0.998951 0.923813 0.035662 0.233977
H7    H     H_    0.794884 0.988315 0.093034 0.180816
H8    H     H_    0.881656 0.036503 0.933092 0.144493
H9    H     H_    0.944424 0.501307 0.159979 0.178803
H10   H     H_    0.210518 0.639790 0.849374 0.174309
H11   H     H_    0.723667 0.234192 0.209884 0.163979
H12   H     H_    0.151503 0.354533 0.236042 0.171340
H13   H     H_    0.801432 0.326154 0.771182 0.180919
H14   H     H_    0.700556 0.008825 0.484615 0.179910
H15   H     H_    0.299499 0.991211 0.515380 0.179503
H16   H     H_    0.007259 0.364224 0.424288 0.179949
N1    N     N_2   0.950330 0.457950 0.466250 -0.186226
N2    N     N_2   0.049670 0.542050 0.533750 -0.187101
O1    O     O_R   0.389250 0.738570 0.508280 -0.608368
O2    O     O_3   0.000768 0.155574 0.079363 -0.626693
O3    O     O_R   0.610750 0.261430 0.491720 -0.629346
O4    O     O_R   0.678390 0.711630 0.486650 -0.623411
O5    O     O_R   0.321610 0.288370 0.513350 -0.638747
O6    O     O_R   0.355430 0.513480 0.694040 -0.623726
O7    O     O_R   0.644570 0.486520 0.305960 -0.614656
O8    O     O_R   0.644570 0.486540 0.672410 -0.639494
O9    O     O_R   0.355430 0.513460 0.327590 -0.621477
O10   O     O_3   0.913663 0.633889 0.970306 -0.616577
Zn1   Zn    Zn3+2 0.306940 0.517990 0.514440 0.925374
Zn2   Zn    Zn3+2 0.693060 0.482010 0.485560 0.918602

loop_
_geom_bond_atom_site_label_1
_geom_bond_atom_site_label_2
_ccdc_geom_bond_type
C12   C17   S    
C2    C4    A    
C5    C7    A    
O7    Zn2   S    
C14   H5    S    
N2    Zn1   S    
C4    C22   A    
C19   O9    A    
C1    O4    A    
C7    C11   A    
C22   O10   S    
C5    H12   S    
O4    Zn2   S    
C2    C21   A    
N1    Zn2   S    
C14   H3    S    
C1    C16   S    
C17   H15   S    
C16   H14   S    
C3    H9    S    
C11   C19   S    
C15   H6    S    
C8    C13   A    
C13   C18   S    
C2    O2    S    
C6    C8    A    
C18   O6    A    
C4    C6    A    
H2    N2    S    
C20   C22   A    
C15   H7    S    
C12   O3    A    
C2    C3    A    
C10   C21   A    
H16   N1    S    
C19   O7    A    
O3    Zn2   S    
C21   H11   S    
C10   C11   A    
C14   O10   S    
O8    Zn2   S    
C6    H13   S    
C15   H8    S    
C8    C10   A    
C20   H10   S    
C1    O1    A    
N1    N2    D    
C7    C9    A    
C4    H1    S    
O5    Zn1   S    
C12   O5    A    
C3    C22   A    
C9    C13   A    
C9    C20   A    
C3    C5    A    
O6    Zn1   S    
O1    Zn1   S    
C14   H4    S    
C15   O2    S    
C16   C17   D    
O9    Zn1   S    
C18   O8    A    
