data_mof_unit_34114.cif
_audit_creation_date              2012-12-11T15:36:45-0500
_audit_creation_method            fapswitch 2.2
_symmetry_space_group_name_H-M    P1
_symmetry_Int_Tables_number       1
_space_group_crystal_system       triclinic
_cell_length_a                    15.065234
_cell_length_b                    15.077265
_cell_length_c                    34.846742
_cell_angle_alpha                 91.255228
_cell_angle_beta                  91.731986
_cell_angle_gamma                 60.113477
_cell_volume                      6859.21984014

loop_
_atom_site_label
_atom_site_type_symbol
_atom_type_description
_atom_site_fract_x
_atom_site_fract_y
_atom_site_fract_z
_atom_type_partial_charge
C1    C     C_R   0.610741 0.302614 0.444067 0.543358
C2    C     C_R   0.597702 0.096966 0.763078 -0.114057
C3    C     C_R   0.093168 0.766311 0.886249 -0.126113
C4    C     C_R   0.122043 0.754524 0.848117 -0.122341
C5    C     C_R   0.124682 0.674895 0.825701 0.032069
C6    C     C_R   0.105261 0.602892 0.842703 -0.121328
C7    C     C_R   0.076919 0.614318 0.880920 -0.126313
C8    C     C_R   0.199548 0.577917 0.765296 -0.119440
C9    C     C_R   0.208366 0.574583 0.725624 -0.116481
C10   C     C_R   0.157298 0.664889 0.704168 0.028712
C11   C     C_R   0.097918 0.758742 0.722870 -0.118348
C12   C     C_R   0.088583 0.762050 0.762568 -0.115393
C13   C     C_R   0.596182 0.170779 0.788897 0.028100
C14   C     C_R   0.654862 0.764942 0.164477 -0.120339
C15   C     C_R   0.139307 0.671612 0.784063 0.029248
C16   C     C_R   0.200801 0.725113 0.645615 -0.121756
C17   C     C_R   0.234369 0.707290 0.607959 -0.128750
C18   C     C_R   0.199928 0.566435 0.602853 -0.125047
C19   C     C_R   0.166682 0.584149 0.640470 -0.122460
C20   C     C_R   0.171335 0.660542 0.662572 0.031412
C21   C     C_R   0.238820 0.624609 0.586963 0.022529
C22   C     C_R   0.673062 0.079166 0.906177 0.021548
C23   C     C_R   0.598197 0.064732 0.886653 -0.129169
C24   C     C_R   0.548312 0.195789 0.640826 -0.120482
C25   C     C_R   0.568394 0.099423 0.849018 -0.122425
C26   C     C_R   0.827396 0.620802 0.161055 -0.123660
C27   C     C_R   0.550616 0.219726 0.602509 -0.124996
C28   C     C_R   0.692130 0.248849 0.617879 -0.125319
C29   C     C_R   0.688801 0.226341 0.656189 -0.122331
C30   C     C_R   0.614635 0.203140 0.668134 0.029131
C31   C     C_R   0.620186 0.250043 0.590992 0.022825
C32   C     C_R   0.045368 0.739151 0.048611 0.540425
C33   C     C_R   0.742465 0.687269 0.182879 0.031148
C34   C     C_R   0.747420 0.746732 0.064105 0.543890
C35   C     C_R   0.751353 0.040181 0.050714 0.541260
C36   C     C_R   0.017117 0.722423 0.939807 0.544536
C37   C     C_R   0.717203 0.730098 0.954926 0.541595
C38   C     C_R   0.826830 0.635791 0.121625 -0.127498
C39   C     C_R   0.721413 0.024441 0.942081 0.542400
C40   C     C_R   0.776388 0.582375 0.241582 -0.117262
C41   C     C_R   0.767252 0.575676 0.280971 -0.114398
C42   C     C_R   0.727062 0.664024 0.304270 0.029651
C43   C     C_R   0.701396 0.758187 0.287789 -0.118229
C44   C     C_R   0.612505 0.149614 0.830557 0.031378
C45   C     C_R   0.709924 0.764925 0.248398 -0.117556
C46   C     C_R   0.744751 0.677563 0.224893 0.027039
C47   C     C_R   0.606249 0.733999 0.358649 -0.119242
C48   C     C_R   0.593368 0.610187 0.449420 0.544679
C49   C     C_R   0.573508 0.721160 0.394014 -0.126598
C50   C     C_R   0.733076 0.561934 0.402775 -0.126725
C51   C     C_R   0.765938 0.574988 0.367451 -0.121733
C52   C     C_R   0.701353 0.659331 0.344478 0.032803
C53   C     C_R   0.635092 0.633156 0.415752 0.021554
C54   C     C_R   0.101555 0.728958 0.085155 0.021539
C55   C     C_R   0.681853 0.170152 0.851221 -0.118411
C56   C     C_R   0.147740 0.635019 0.104468 -0.125849
C57   C     C_R   0.170306 0.631076 0.143628 -0.122458
C58   C     C_R   0.148445 0.720595 0.164009 0.030118
C59   C     C_R   0.113082 0.812414 0.144098 -0.122078
C60   C     C_R   0.303842 0.591506 0.442399 0.542161
C61   C     C_R   0.089622 0.816666 0.104809 -0.127994
C62   C     C_R   0.207429 0.756218 0.227352 -0.118387
C63   C     C_R   0.214844 0.748180 0.267337 -0.114955
C64   C     C_R   0.165353 0.704580 0.286759 0.028957
C65   C     C_R   0.105248 0.672890 0.265504 -0.118962
C66   C     C_R   0.711766 0.135323 0.888603 -0.124456
C67   C     C_R   0.099068 0.679659 0.225628 -0.116417
C68   C     C_R   0.151752 0.719405 0.206251 0.026391
C69   C     C_R   0.199874 0.590478 0.342899 -0.120275
C70   C     C_R   0.231778 0.563613 0.380927 -0.126850
C71   C     C_R   0.226995 0.725215 0.391543 -0.127418
C72   C     C_R   0.605499 0.300714 0.553776 0.542050
C73   C     C_R   0.194412 0.752381 0.353512 -0.122133
C74   C     C_R   0.183886 0.683793 0.328452 0.032991
C75   C     C_R   0.249266 0.629093 0.405236 0.021474
C76   C     C_R   0.725099 0.097053 0.087301 0.023904
C77   C     C_R   0.591662 0.259105 0.774331 -0.119980
C78   C     C_R   0.800912 0.105003 0.109039 -0.126616
C79   C     C_R   0.785849 0.132414 0.147751 -0.123040
C80   C     C_R   0.694468 0.153284 0.165098 0.031602
C81   C     C_R   0.615167 0.154613 0.142509 -0.119915
C82   C     C_R   0.630428 0.126524 0.103896 -0.125404
C83   C     C_R   0.594742 0.238952 0.223707 -0.117729
C84   C     C_R   0.587440 0.606351 0.559117 0.541584
C85   C     C_R   0.585239 0.245252 0.263461 -0.114619
C86   C     C_R   0.666145 0.175847 0.287285 0.028258
C87   C     C_R   0.756551 0.099756 0.270647 -0.119671
C88   C     C_R   0.595454 0.270235 0.734950 -0.117598
C89   C     C_R   0.766152 0.093676 0.230898 -0.116191
C90   C     C_R   0.685486 0.163513 0.207137 0.028494
C91   C     C_R   0.740292 0.183211 0.351369 -0.119644
C92   C     C_R   0.727314 0.212729 0.389869 -0.125129
C93   C     C_R   0.552996 0.244413 0.385842 -0.129294
C94   C     C_R   0.566041 0.214885 0.347300 -0.124232
C95   C     C_R   0.658393 0.188140 0.329374 0.031764
C96   C     C_R   0.297983 0.589147 0.551684 0.544231
C97   C     C_R   0.632110 0.247919 0.406977 0.021518
C98   C     C_R   0.691632 0.689735 0.919921 0.020952
C99   C     C_R   0.602471 0.193953 0.709373 0.025993
C100  C     C_R   0.765697 0.597053 0.903464 -0.127702
C101  C     C_R   0.753451 0.572176 0.865615 -0.123683
C102  C     C_R   0.667027 0.639514 0.843576 0.032088
C103  C     C_R   0.588604 0.727227 0.861232 -0.120576
C104  C     C_R   0.600630 0.751938 0.899103 -0.127775
C105  C     C_R   0.571308 0.651061 0.782079 -0.120395
C106  C     C_R   0.566209 0.650470 0.742052 -0.118519
C107  C     C_R   0.653690 0.623977 0.720665 0.027368
C108  C     C_R   0.741009 0.717159 0.103514 0.021427
C109  C     C_R   0.747132 0.594815 0.739941 -0.117296
C110  C     C_R   0.600237 0.108813 0.723544 -0.117313
C111  C     C_R   0.752145 0.596031 0.779983 -0.113992
C112  C     C_R   0.663930 0.625599 0.801464 0.028807
C113  C     C_R   0.718741 0.544404 0.656440 -0.123157
C114  C     C_R   0.704279 0.541507 0.616765 -0.128934
C115  C     C_R   0.550287 0.707435 0.620004 -0.126728
C116  C     C_R   0.564480 0.709942 0.659637 -0.123054
C117  C     C_R   0.646727 0.626874 0.678326 0.031381
C118  C     C_R   0.617676 0.621270 0.598369 0.021649
C119  C     C_R   0.066941 0.698334 0.902525 0.023704
C120  C     C_R   0.653937 0.779562 0.125154 -0.124300
Cr1   Cr    Cr6+3 0.426010 0.422500 0.497000 1.009194
Cr2   Cr    Cr6+3 0.651300 0.426310 0.501970 1.008797
Cr3   Cr    Cr6+3 0.422670 0.651170 0.501050 1.008784
Cr4   Cr    Cr6+3 0.905130 0.911420 0.992650 1.009538
Cr5   Cr    Cr6+3 0.911860 0.682710 0.002320 1.009251
Cr6   Cr    Cr6+3 0.682710 0.906840 0.004710 1.010377
H1    H     H_    0.586526 0.842689 0.112067 0.128528
H2    H     H_    0.199397 0.559144 0.158497 0.103537
H3    H     H_    0.064439 0.641124 0.279656 0.105816
H4    H     H_    0.895275 0.586758 0.105746 0.126298
H5    H     H_    0.053663 0.653061 0.209783 0.110174
H6    H     H_    0.193626 0.535333 0.324273 0.099468
H7    H     H_    0.248627 0.488866 0.390540 0.124377
H8    H     H_    0.096158 0.882189 0.159428 0.100946
H9    H     H_    0.239128 0.777631 0.409691 0.121580
H10   H     H_    0.874680 0.082658 0.097012 0.121448
H11   H     H_    0.570567 0.121423 0.087721 0.119046
H12   H     H_    0.497683 0.777394 0.403274 0.126480
H13   H     H_    0.502463 0.217242 0.331061 0.099898
H14   H     H_    0.515532 0.306057 0.275609 0.106774
H15   H     H_    0.531740 0.293740 0.205913 0.103700
H16   H     H_    0.840305 0.517228 0.357455 0.100667
H17   H     H_    0.847355 0.132682 0.164582 0.101227
H18   H     H_    0.819625 0.044861 0.288382 0.105752
H19   H     H_    0.836013 0.033266 0.218674 0.109432
H20   H     H_    0.812223 0.163157 0.338230 0.101938
H21   H     H_    0.789906 0.214011 0.405503 0.126529
H22   H     H_    0.544044 0.170383 0.155284 0.101227
H23   H     H_    0.895621 0.560173 0.174759 0.099413
H24   H     H_    0.478930 0.270505 0.398314 0.124134
H25   H     H_    0.836266 0.546969 0.918901 0.122088
H26   H     H_    0.542020 0.823786 0.910957 0.124394
H27   H     H_    0.509177 0.775359 0.675905 0.101657
H28   H     H_    0.786344 0.502284 0.292791 0.104757
H29   H     H_    0.493732 0.670988 0.727752 0.107596
H30   H     H_    0.502500 0.672814 0.797870 0.103386
H31   H     H_    0.813997 0.502847 0.852967 0.099161
H32   H     H_    0.815466 0.574371 0.724026 0.104006
H33   H     H_    0.824223 0.577901 0.794066 0.104095
H34   H     H_    0.782729 0.493824 0.419122 0.123430
H35   H     H_    0.782899 0.479538 0.670260 0.099908
H36   H     H_    0.757494 0.473940 0.600937 0.121573
H37   H     H_    0.521269 0.780917 0.844973 0.100333
H38   H     H_    0.482985 0.770280 0.606740 0.124970
H39   H     H_    0.087191 0.831102 0.902474 0.121720
H40   H     H_    0.803216 0.514168 0.223910 0.104488
H41   H     H_    0.056854 0.560962 0.892761 0.126000
H42   H     H_    0.142248 0.534866 0.652969 0.103779
H43   H     H_    0.256600 0.501624 0.711732 0.109362
H44   H     H_    0.240246 0.507445 0.781330 0.105151
H45   H     H_    0.158808 0.565975 0.090041 0.124146
H46   H     H_    0.138932 0.809629 0.835767 0.101058
H47   H     H_    0.058000 0.829086 0.706718 0.104668
H48   H     H_    0.040053 0.835028 0.776368 0.106512
H49   H     H_    0.204901 0.784490 0.662298 0.101642
H50   H     H_    0.263544 0.753599 0.596354 0.125013
H51   H     H_    0.106195 0.541157 0.825904 0.101039
H52   H     H_    0.587656 0.815629 0.180709 0.104575
H53   H     H_    0.201172 0.503083 0.587120 0.127599
H54   H     H_    0.567309 0.021410 0.899543 0.123938
H55   H     H_    0.769253 0.147931 0.903061 0.125492
H56   H     H_    0.053948 0.890214 0.090736 0.122988
H57   H     H_    0.741671 0.230836 0.676839 0.105440
H58   H     H_    0.594619 0.337750 0.724429 0.112819
H59   H     H_    0.588434 0.318137 0.793488 0.105956
H60   H     H_    0.513842 0.083695 0.833876 0.100841
H61   H     H_    0.605186 0.049418 0.704171 0.106505
H62   H     H_    0.602479 0.027519 0.773460 0.106769
H63   H     H_    0.490835 0.177601 0.649535 0.103261
H64   H     H_    0.671925 0.827070 0.305198 0.105256
H65   H     H_    0.494303 0.220002 0.582365 0.119551
H66   H     H_    0.718187 0.207511 0.837727 0.104013
H67   H     H_    0.180655 0.825655 0.343386 0.098731
H68   H     H_    0.746321 0.272307 0.609967 0.125057
H69   H     H_    0.687174 0.838825 0.236111 0.110304
H70   H     H_    0.554326 0.799289 0.341396 0.101851
H71   H     H_    0.262801 0.772115 0.282846 0.102859
H72   H     H_    0.248147 0.787507 0.212812 0.104264
O1    O     O_R   0.324990 0.503440 0.453910 -0.521621
O2    O     O_R   0.675430 0.831160 0.051290 -0.518562
O3    O     O_R   0.698870 0.998880 0.039560 -0.500746
O4    O     O_R   0.522030 0.339050 0.458320 -0.503565
O5    O     O_R   0.811290 0.006780 0.950620 -0.517061
O6    O     O_R   0.980960 0.812920 0.953200 -0.500688
O7    O     O_R   0.001480 0.656720 0.955830 -0.520854
O8    O     O_R   0.809240 0.683250 0.968050 -0.501802
O9    O     O_R   0.652500 0.818540 0.967340 -0.520837
O10   O     O_R   0.677620 0.987170 0.961730 -0.502528
O11   O     O_3   0.833240 0.833660 0.999890 -0.235144
O12   O     O_R   0.639980 0.519500 0.542640 -0.503332
O13   O     O_R   0.676180 0.324490 0.458320 -0.519018
O14   O     O_R   0.643570 0.521510 0.464260 -0.501713
O15   O     O_R   0.504630 0.675350 0.460920 -0.519523
O16   O     O_R   0.339850 0.642450 0.459830 -0.501618
O17   O     O_R   0.321120 0.501280 0.538470 -0.519081
O18   O     O_R   0.518440 0.337050 0.536710 -0.499914
O19   O     O_R   0.672300 0.322330 0.542880 -0.521114
O20   O     O_R   0.500750 0.673190 0.545480 -0.520745
O21   O     O_R   0.336260 0.640450 0.538210 -0.503742
O22   O     O_3   0.499990 0.499990 0.500010 -0.234263
O23   O     O_R   0.834210 0.019400 0.034570 -0.522509
O24   O     O_R   0.002210 0.824620 0.031030 -0.503295
O25   O     O_R   0.024400 0.669340 0.039790 -0.519628
O26   O     O_R   0.830490 0.694950 0.045870 -0.502208

loop_
_geom_bond_atom_site_label_1
_geom_bond_atom_site_label_2
_ccdc_geom_bond_type
C45   H69   S    
Cr3   O22   S    
C49   C53   A    
C93   C94   A    
C94   H13   S    
Cr2   O19   S    
C39   O5    A    
C1    O13   A    
C18   C21   A    
C77   H59   S    
C41   C42   A    
C108  C120  A    
C25   H60   S    
C9    H43   S    
C111  C112  A    
C24   C27   A    
C32   O25   A    
C14   C33   A    
C81   C82   A    
C120  H1    S    
C47   C49   A    
C85   C86   A    
C56   C57   A    
C40   C46   A    
C72   O19   A    
C61   H56   S    
C101  C102  A    
C96   O17   A    
Cr2   O22   S    
Cr4   O6    S    
C38   H4    S    
C28   C29   A    
C76   C78   A    
Cr1   O4    S    
C113  C114  A    
C82   H11   S    
C73   H67   S    
C69   C70   A    
C109  C111  A    
C71   H9    S    
C5    C6    A    
C80   C81   A    
C14   C120  A    
C84   O12   A    
C114  H36   S    
C106  C107  A    
C109  H32   S    
C115  C116  A    
Cr5   O8    S    
C116  C117  A    
C18   C19   A    
C37   O8    A    
C115  H38   S    
C36   C119  S    
C2    C13   A    
C60   O16   A    
C22   C66   A    
C7    H41   S    
C60   O1    A    
C102  C112  S    
Cr1   O1    S    
C19   C20   A    
C77   C88   A    
Cr6   O10   S    
C8    C9    A    
C65   C67   A    
C70   H7    S    
C28   H68   S    
Cr2   O12   S    
C24   H63   S    
C87   H18   S    
C29   C30   A    
C29   H57   S    
C9    C10   A    
C40   H40   S    
C17   H50   S    
C115  C118  A    
C101  H31   S    
C100  H25   S    
C49   H12   S    
C63   C64   A    
C92   H21   S    
C80   C90   S    
C33   C46   S    
C107  C109  A    
C93   H24   S    
C94   C95   A    
C27   H65   S    
C57   H2    S    
C1    O4    A    
C25   C44   A    
C32   C54   S    
C37   C98   S    
C34   O26   A    
C92   C97   A    
C54   C61   A    
C6    C7    A    
C13   C77   A    
Cr5   O26   S    
Cr5   O25   S    
Cr6   O3    S    
C48   C53   S    
C110  H61   S    
C54   C56   A    
C35   C76   S    
C59   C61   A    
C50   C53   A    
C11   H47   S    
Cr4   O5    S    
C27   C31   A    
C51   C52   A    
Cr1   O18   S    
C48   O14   A    
C47   H70   S    
C62   H72   S    
C19   H42   S    
C86   C95   S    
C10   C20   S    
C91   C92   A    
C83   H15   S    
Cr5   O11   S    
C86   C87   A    
C35   O3    A    
C50   H34   S    
C58   C59   A    
C45   C46   A    
C99   C110  A    
C91   C95   A    
C30   C99   S    
C43   H64   S    
C17   C21   A    
C63   H71   S    
C89   H19   S    
C67   C68   A    
C28   C31   A    
C62   C63   A    
C7    C119  A    
C26   C33   A    
C32   O24   A    
C12   C15   A    
C1    C97   S    
Cr6   O9    S    
C16   C20   A    
C81   H22   S    
C39   O10   A    
C50   C51   A    
C23   H54   S    
C69   C74   A    
C14   H52   S    
C13   C44   S    
C43   C45   A    
C85   H14   S    
C116  H27   S    
C114  C118  A    
C3    C119  A    
C113  C117  A    
C16   H49   S    
C58   C68   S    
C31   C72   S    
C72   O18   A    
Cr3   O20   S    
Cr4   O24   S    
C18   H53   S    
C8    C15   A    
C98   C100  A    
Cr3   O15   S    
C56   H45   S    
Cr1   O22   S    
Cr2   O14   S    
C24   C30   A    
C42   C43   A    
C76   C82   A    
C3    C4    A    
C73   C74   A    
C93   C97   A    
C70   C75   A    
C55   C66   A    
C3    H39   S    
C12   H48   S    
C41   H28   S    
C51   H16   S    
Cr6   O2    S    
C83   C90   A    
Cr3   O21   S    
C48   O15   A    
C40   C41   A    
C4    H46   S    
C83   C85   A    
C78   C79   A    
C66   H55   S    
C26   H23   S    
C26   C38   A    
C111  H33   S    
C4    C5    A    
Cr6   O11   S    
C65   H3    S    
C11   C12   A    
C47   C52   A    
C84   O20   A    
C21   C96   S    
C8    H44   S    
C96   O21   A    
C105  C106  A    
C60   C75   S    
C103  H37   S    
C62   C68   A    
C34   C108  S    
C55   H66   S    
C104  H26   S    
C35   O23   A    
C87   C89   A    
C6    H51   S    
C64   C65   A    
C71   C75   A    
C44   C55   A    
C57   C58   A    
C16   C17   A    
C78   H10   S    
C69   H6    S    
C98   C104  A    
C22   C39   S    
Cr5   O7    S    
C100  C101  A    
C22   C23   A    
C36   O7    A    
C23   C25   A    
C38   C108  A    
C102  C103  A    
C67   H5    S    
C2    H62   S    
C5    C15   S    
C88   C99   A    
C88   H58   S    
C10   C11   A    
C113  H35   S    
C79   C80   A    
C34   O2    A    
C105  H30   S    
Cr4   O23   S    
Cr1   O17   S    
C84   C118  S    
C106  H29   S    
Cr4   O11   S    
Cr3   O16   S    
C71   C73   A    
C103  C104  A    
C105  C112  A    
C64   C74   S    
Cr2   O13   S    
C36   O6    A    
C89   C90   A    
C37   O9    A    
C79   H17   S    
C107  C117  S    
C91   H20   S    
C42   C52   S    
C59   H8    S    
C2    C110  A    
