data_mof_unit_31236.cif
_audit_creation_date              2012-12-10T18:59:13-0500
_audit_creation_method            fapswitch 2.2
_symmetry_space_group_name_H-M    P1
_symmetry_Int_Tables_number       1
_space_group_crystal_system       triclinic
_cell_length_a                    10.749267
_cell_length_b                    10.805565
_cell_length_c                    9.544181
_cell_angle_alpha                 90.192402
_cell_angle_beta                  90.152013
_cell_angle_gamma                 90.523677
_cell_volume                      1108.51824202

loop_
_atom_site_label
_atom_site_type_symbol
_atom_type_description
_atom_site_fract_x
_atom_site_fract_y
_atom_site_fract_z
_atom_type_partial_charge
C1    C     C_R   0.497333 0.262332 0.499663 0.776167
C2    C     C_R   0.064590 0.382289 0.516926 0.047179
C3    C     C_R   0.128666 0.496154 0.499450 -0.084415
C4    C     C_R   0.064320 0.607849 0.480943 0.155993
C5    C     C_R   0.935201 0.605593 0.481577 -0.162432
C6    C     C_R   0.870749 0.494495 0.500328 -0.130160
C7    C     C_R   0.461525 0.064098 0.621264 0.058980
C8    C     C_R   0.483584 0.129293 0.497828 -0.107449
C9    C     C_R   0.485482 0.063895 0.370325 -0.197353
C10   C     C_R   0.485236 0.935050 0.370748 -0.147126
C11   C     C_R   0.483402 0.870696 0.498676 -0.153723
C12   C     C_R   0.262704 0.499352 0.499855 0.799524
C13   C     C_R   0.460974 0.936869 0.621905 0.108253
C14   C     C_3   0.520957 0.932187 0.763292 0.111927
C15   C     C_3   0.521701 0.073101 0.762024 -0.468339
C16   C     C_R   0.567141 0.586943 0.074170 0.282309
C17   C     C_R   0.425187 0.421581 0.073914 -0.068869
C18   C     C_R   0.425113 0.421631 0.924995 -0.053895
C19   C     C_R   0.567385 0.586568 0.926808 0.279146
C20   C     C_3   0.704553 0.607204 0.920775 -0.526760
C21   C     C_3   0.704626 0.607254 0.079946 0.040320
C22   C     C_R   0.497214 0.737716 0.500066 0.822121
C23   C     C_R   0.737278 0.499508 0.500115 0.810044
C24   C     C_R   0.128159 0.269176 0.532300 -0.215272
C25   C     C_R   0.062834 0.157823 0.546651 -0.103973
C26   C     C_R   0.932727 0.156481 0.546777 0.234824
C27   C     C_R   0.868542 0.267984 0.532939 -0.170017
C28   C     C_R   0.933462 0.381510 0.517371 0.044314
Cu1   Cu    Cu3+1 0.499990 0.499980 0.640670 0.964760
Cu2   Cu    Cu3+1 0.500010 0.500020 0.359330 0.970406
H1    H     H_    0.615289 0.890830 0.761614 0.131856
H2    H     H_    0.459239 0.115917 0.840757 0.222026
H3    H     H_    0.616562 0.114540 0.757712 0.177831
H4    H     H_    0.366576 0.356359 0.129394 0.148925
H5    H     H_    0.366394 0.356490 0.868679 0.143741
H6    H     H_    0.754906 0.526983 0.875878 0.199279
H7    H     H_    0.728822 0.697995 0.873268 0.228859
H8    H     H_    0.755783 0.527956 0.125478 0.160125
H9    H     H_    0.228638 0.265570 0.532392 0.132077
H10   H     H_    0.114189 0.072566 0.557462 0.148065
H11   H     H_    0.767872 0.264833 0.533247 0.128908
H12   H     H_    0.884027 0.690854 0.468178 0.162963
H13   H     H_    0.494249 0.111448 0.271063 0.181610
H14   H     H_    0.493532 0.886787 0.271634 0.222697
N1    N     N_R   0.500790 0.500930 0.147930 -0.214582
N2    N     N_R   0.500790 0.500890 0.852020 -0.187473
O1    O     O_R   0.500000 0.319640 0.618810 -0.587506
O2    O     O_R   0.500010 0.319680 0.381230 -0.592253
O3    O     O_R   0.319640 0.499980 0.618820 -0.569516
O4    O     O_R   0.319650 0.500020 0.381230 -0.576414
O5    O     O_R   0.499990 0.680320 0.618770 -0.560983
O6    O     O_R   0.500000 0.680360 0.381190 -0.557159
O7    O     O_R   0.680350 0.499980 0.618770 -0.588302
O8    O     O_R   0.680360 0.500020 0.381180 -0.569990
C29   C     C_3   0.132264 0.729569 0.461652 -0.811151
H15   H     H_    0.066990 0.807682 0.448032 0.231710
H16   H     H_    0.191394 0.749485 0.554779 0.231553
H17   H     H_    0.191996 0.725121 0.367069 0.247202
Br1   Br    Br    0.747383 0.767228 0.160736 -0.525557
C30   C     C_3   0.861456 0.037004 0.561194 -0.864843
H18   H     H_    0.924587 0.956462 0.567238 0.231522
H19   H     H_    0.805098 0.039283 0.658280 0.225592
H20   H     H_    0.798560 0.023860 0.469693 0.254030
Br2   Br    Br    0.408383 0.864328 0.902685 -0.521325

loop_
_geom_bond_atom_site_label_1
_geom_bond_atom_site_label_2
_ccdc_geom_bond_type
C16   N1    A    
C12   O4    A    
C5    H12   S    
C1    O2    A    
C21   Br1   S    
Cu1   Cu2   S    
C1    C8    S    
C11   C13   A    
C9    C10   A    
C27   H11   S    
C11   C22   S    
C19   C20   S    
Cu1   N2    S    
C29   H15   S    
C14   Br2   S    
C15   H2    S    
C7    C15   S    
C12   O3    A    
Cu2   O4    S    
C19   N2    A    
C7    C8    A    
C4    C29   S    
Cu1   O3    S    
C13   C14   S    
C20   C21   S    
C20   H7    S    
Cu2   O8    S    
C26   C27   A    
C16   C21   S    
Cu1   O7    S    
Cu1   O1    S    
C30   H20   S    
C6    C23   S    
C18   N2    A    
C23   O7    A    
C22   O6    A    
C17   N1    A    
C17   C18   A    
C2    C3    A    
C10   C11   A    
C29   H16   S    
C25   H10   S    
C2    C24   A    
C5    C6    A    
C9    H13   S    
C17   H4    S    
Cu1   O5    S    
C10   H14   S    
C3    C4    A    
C20   H6    S    
C7    C13   A    
C24   H9    S    
C24   C25   A    
C23   O8    A    
C30   H19   S    
C18   H5    S    
C29   H17   S    
Cu2   O2    S    
C27   C28   A    
C14   H1    S    
Cu2   O6    S    
C14   C15   S    
C1    O1    A    
C2    C28   A    
C3    C12   S    
Cu2   N1    S    
C30   H18   S    
C25   C26   A    
C4    C5    A    
C26   C30   S    
C15   H3    S    
C22   O5    A    
C6    C28   A    
C21   H8    S    
C8    C9    A    
C16   C19   A    
