data_mof_unit_38732.cif
_audit_creation_date              2013-03-05T15:54:20-0500
_audit_creation_method            fapswitch 2.2
_symmetry_space_group_name_H-M    P1
_symmetry_Int_Tables_number       1
_space_group_crystal_system       triclinic
_cell_length_a                    15.067006
_cell_length_b                    14.860297
_cell_length_c                    14.845573
_cell_angle_alpha                 108.499861
_cell_angle_beta                  109.06553
_cell_angle_gamma                 110.557745
_cell_volume                      2567.22702518

loop_
_atom_site_label
_atom_site_type_symbol
_atom_site_description
_atom_site_fract_x
_atom_site_fract_y
_atom_site_fract_z
_atom_type_partial_charge
C1    C     C_R   0.007481 0.804920 0.099307 -0.137017
H1    H     H_    0.992106 0.831606 0.165887 0.167481
N1    N     N_R   0.995640 0.706130 0.053910 -0.056064
C2    C     C_R   0.778143 0.212295 0.688747 -0.135208
H2    H     H_    0.801453 0.186104 0.628617 0.122033
N2    N     N_R   0.848310 0.293860 0.791110 -0.055065
C3    C     C_R   0.028912 0.595140 0.779418 -0.058440
H3    H     H_    0.060699 0.681013 0.802120 0.116101
N3    N     N_R   0.054010 0.556790 0.847890 -0.044155
C4    C     C_R   0.685440 0.407743 0.939802 -0.070100
H4    H     H_    0.622290 0.323214 0.896917 0.149452
N4    N     N_R   0.789940 0.443190 0.997130 -0.035269
C5    C     C_R   0.939065 0.411338 0.685276 -0.098501
N5    N     N_R   0.997630 0.443170 0.791110 -0.049301
C6    C     C_R   0.777315 0.592367 0.029023 -0.112483
N6    N     N_R   0.846320 0.556810 0.053910 -0.045748
C7    C     C_R   0.688789 0.212238 0.781891 -0.082665
H5    H     H_    0.633102 0.185463 0.810432 0.184661
N7    N     N_R   0.791080 0.293860 0.847890 -0.053988
C8    C     C_R   0.094485 0.806121 0.004594 -0.100958
H6    H     H_    0.151320 0.833416 0.976775 0.169410
N8    N     N_R   0.052880 0.706130 0.997130 -0.056714
C9    C     C_R   0.069558 0.871159 0.071143 0.077783
C10   C     C_R   0.674564 0.165519 0.677995 0.126396
C11   C     C_R   0.954311 0.505438 0.676771 0.030065
C12   C     C_R   0.674762 0.499566 0.957527 -0.034128
C13   C     C_R   0.995024 0.590800 0.298938 -0.134428
H7    H     H_    0.021096 0.675553 0.350226 0.137390
N9    N     N_R   0.002370 0.556830 0.208890 -0.070743
C14   C     C_R   0.209583 0.410233 0.905577 -0.188400
H8    H     H_    0.177655 0.325815 0.847537 0.136602
N10   N     N_R   0.153680 0.443190 0.946090 -0.061053
C15   C     C_R   0.296661 0.805894 0.204461 -0.094913
N11   N     N_R   0.208920 0.706140 0.152110 -0.056610
C16   C     C_R   0.974889 0.253022 0.068213 -0.094208
H9    H     H_    0.948324 0.250605 0.126602 0.160597
N12   N     N_R   0.947120 0.293870 0.002870 -0.043800
C17   C     C_R   0.064572 0.248939 0.974336 -0.107255
H10   H     H_    0.117483 0.237844 0.943004 0.110539
N13   N     N_R   0.004360 0.293870 0.946090 -0.048396
C18   C     C_R   0.209418 0.803149 0.299380 -0.062439
H11   H     H_    0.178819 0.826701 0.353556 0.155165
N14   N     N_R   0.151690 0.706140 0.208890 -0.059249
C19   C     C_R   0.899012 0.408064 0.206377 0.328253
N15   N     N_R   0.945990 0.443210 0.152110 -0.094111
C20   C     C_R   0.302739 0.593075 0.000820 0.322816
N16   N     N_R   0.210060 0.556810 0.002870 -0.086593
Ni1   Ni    Ni4+2 0.999010 0.630300 0.130220 0.241164
Ni2   Ni    Ni4+2 0.000990 0.369700 0.869780 0.227041
Ni3   Ni    Ni4+2 0.130280 0.630280 0.000000 0.289057
Ni4   Ni    Ni4+2 0.869720 0.369720 0.000000 0.306802
C21   C     C_R   0.927698 0.499730 0.299316 -0.081717
C22   C     C_R   0.304234 0.502675 0.938237 -0.125395
C23   C     C_R   0.299768 0.869409 0.297083 0.061548
C24   C     C_R   0.048145 0.223252 0.052325 0.062794
C25   C     C_3   0.471903 0.383986 0.859842 -0.322526
H12   H     H_    0.476010 0.321398 0.883850 0.208311
H13   H     H_    0.465464 0.359660 0.777949 0.207067
C26   C     C_3   0.369559 0.384743 0.854817 -0.369404
H14   H     H_    0.311260 0.358878 0.769937 0.192970
H15   H     H_    0.330386 0.323110 0.877202 0.178122
H16   H     H_    0.590789 0.472323 0.085225 0.188474
H17   H     H_    0.439086 0.473651 0.076439 0.175518
C27   C     C_3   0.581387 0.531727 0.057878 -0.329039
C28   C     C_3   0.561740 0.582769 0.907796 -0.404524
C29   C     C_3   0.574235 0.499364 0.944687 0.278936
C30   C     C_3   0.400206 0.501499 0.935097 0.312874
C31   C     C_3   0.479404 0.532845 0.052144 -0.373337
C32   C     C_3   0.456703 0.582063 0.899250 -0.321223
H18   H     H_    0.400275 0.556254 0.813750 0.173265
H19   H     H_    0.479566 0.667451 0.950129 0.232753
H20   H     H_    0.653537 0.614858 0.120605 0.210660
H21   H     H_    0.503453 0.615909 0.112728 0.216877
C33   C     C_R   0.574710 0.098194 0.480146 0.054701
C34   C     C_R   0.571122 0.108695 0.575823 -0.132042
C35   C     C_R   0.468456 0.082418 0.571393 0.196909
C36   C     C_R   0.374794 0.033609 0.469813 0.201104
C37   C     C_R   0.380053 0.986052 0.374887 -0.087499
C38   C     C_R   0.480852 0.036985 0.380261 0.077943
C39   C     C_3   0.538732 0.000449 0.324327 0.217350
C40   C     C_3   0.641032 0.067816 0.434514 -0.567674
H22   H     H_    0.667363 0.016008 0.462818 0.204508
H23   H     H_    0.706899 0.139819 0.442750 0.223328
C41   C     C_R   0.962495 0.606860 0.482175 -0.016195
C42   C     C_R   0.895290 0.507949 0.383210 0.073458
C43   C     C_R   0.821258 0.415657 0.379882 -0.007464
H24   H     H_    0.758925 0.341690 0.304323 0.205512
C44   C     C_R   0.831346 0.416536 0.476999 -0.138676
H25   H     H_    0.780873 0.341425 0.473698 0.150603
C45   C     C_R   0.911944 0.511635 0.577327 0.054521
C46   C     C_R   0.970915 0.608721 0.578658 0.117209
C47   C     C_3   0.962285 0.709797 0.616444 -0.591207
C48   C     C_3   0.953512 0.708539 0.511683 0.215360
H26   H     H_    0.887919 0.694589 0.623886 0.234200
H27   H     H_    0.024141 0.779806 0.524493 0.119857
C49   C     C_R   0.057735 0.034589 0.164857 0.066891
C50   C     C_R   0.108400 0.989898 0.115408 -0.084027
C51   C     C_R   0.181797 0.058562 0.093770 0.330634
C52   C     C_R   0.171270 0.146395 0.084780 -0.268744
H28   H     H_    0.217506 0.191058 0.055516 0.174716
C53   C     C_R   0.093993 0.169024 0.103995 -0.005424
C54   C     C_R   0.052106 0.124205 0.160938 0.040872
C55   C     C_3   0.943024 0.084805 0.155915 0.056671
C56   C     C_3   0.947653 0.984383 0.156754 0.010269
H29   H     H_    0.874958 0.063609 0.078931 0.085665
H30   H     H_    0.884323 0.906971 0.078548 0.063757
H31   H     H_    0.340222 0.836500 0.166335 0.195299
N17   N     N_R   0.804179 0.301660 0.152509 0.211041
O1    O     O_R   0.803071 0.235779 0.192797 -0.346626
O2    O     O_R   0.731856 0.260847 0.051665 -0.403785
N18   N     N_R   0.366187 0.703361 0.025233 0.204948
O3    O     O_R   0.465608 0.765221 0.106160 -0.425497
O4    O     O_R   0.320706 0.746160 0.975545 -0.380086
H32   H     H_    0.632772 0.667312 0.967185 0.185062
H33   H     H_    0.558364 0.560921 0.827303 0.176364
N19   N     N_R   0.455003 0.090844 0.663870 0.243961
O5    O     O_R   0.443594 0.012464 0.688589 -0.346038
O6    O     O_R   0.434306 0.164851 0.710475 -0.408145
N20   N     N_R   0.274223 0.026001 0.461316 0.251681
O7    O     O_R   0.209540 0.026967 0.378843 -0.358338
O8    O     O_R   0.241360 0.007461 0.527839 -0.311174
H34   H     H_    0.512393 0.911746 0.289242 0.114846
N21   N     N_R   0.547819 0.045100 0.250670 0.299236
O9    O     O_R   0.573290 0.147000 0.279532 -0.339728
O10   O     O_R   0.531804 0.983258 0.155745 -0.221840
H35   H     H_    0.039180 0.781138 0.690060 0.201373
N22   N     N_R   0.847950 0.689185 0.438088 0.256115
O11   O     O_R   0.844934 0.749633 0.391440 -0.342800
O12   O     O_R   0.756875 0.611354 0.417163 -0.379102
N23   N     N_R   0.263951 0.039234 0.078465 0.240927
O13   O     O_R   0.317045 0.009631 0.139962 -0.365495
O14   O     O_R   0.297641 0.067259 0.016023 -0.346828
N24   N     N_R   0.947966 0.156070 0.254347 0.300765
O15   O     O_R   0.869040 0.119210 0.274957 -0.260763
O16   O     O_R   0.029347 0.256559 0.320813 -0.359467
N25   N     N_R   0.951957 0.974761 0.253349 0.288720
O17   O     O_R   0.872676 0.890719 0.241438 -0.354105
O18   O     O_R   0.031732 0.050623 0.351239 -0.246669
H36   H     H_    0.891248 0.328163 0.618916 0.108415
H37   H     H_    0.798341 0.677548 0.065868 0.136834

loop_
_geom_bond_atom_site_label_1
_geom_bond_atom_site_label_2
_geom_bond_distance
_ccdc_geom_bond_type
C14   N10   1.320905 A    
C53   C54   1.402562 A    
C49   C54   1.381777 A    
C13   N9    1.327330 A    
C28   H33   1.112832 S    
C28   H32   1.112411 S    
C16   H9    1.071992 S    
C15   H31   1.074419 S    
C34   C35   1.429217 A    
N6    Ni1   1.875218 S    
C56   H30   1.113353 S    
C40   H22   1.112473 S    
N21   O9    1.302512 A    
N18   O4    1.300691 A    
C39   H34   1.108239 S    
C36   C37   1.404256 A    
C25   H12   1.110069 S    
N2    N7    1.388856 A    
C11   C45   1.451666 S    
C27   C31   1.517228 S    
C21   C42   1.465321 S    
C16   N12   1.330943 A    
N12   N13   1.388979 A    
C14   H8    1.080262 S    
N12   Ni4   1.885059 S    
C25   C29   1.551663 S    
N21   O10   1.299593 A    
N5    Ni2   1.835191 S    
N15   Ni4   1.863014 S    
C6    N6    1.324926 A    
N1    Ni1   1.835347 S    
N17   O1    1.297346 A    
C1    H1    1.073902 S    
C18   H11   1.076495 S    
C32   H19   1.101864 S    
H16   C27   1.114374 S    
C26   C30   1.552261 S    
H17   C31   1.114481 S    
C17   C24   1.395975 A    
N4    N6    1.380089 A    
N19   O6    1.297827 A    
C19   N15   1.342673 A    
C41   C46   1.386414 A    
C25   H13   1.112453 S    
N14   Ni1   1.874790 S    
N8    Ni3   1.885060 S    
C19   C21   1.396511 A    
C19   N17   1.430255 S    
C26   H14   1.113359 S    
C48   H27   1.112971 S    
C5    N5    1.341802 A    
C18   N14   1.329074 A    
C5    C11   1.389067 A    
C54   C55   1.505329 S    
C40   H23   1.112042 S    
C50   C51   1.419461 A    
N16   Ni3   1.885861 S    
N20   O8    1.301044 A    
C18   C23   1.390730 A    
C14   C22   1.380471 A    
N11   Ni3   1.863461 S    
C7    C10   1.380900 A    
C26   H15   1.113238 S    
C33   C34   1.400074 A    
N3    Ni3   1.863016 S    
N9    Ni1   1.835191 S    
C16   C24   1.384351 A    
C30   C31   1.549722 S    
C12   C29   1.462287 S    
C3    H3    1.078784 S    
C15   N11   1.330595 A    
C35   C36   1.410102 A    
C2    N2    1.333311 A    
C46   C47   1.495921 S    
C43   H24   1.073680 S    
C39   C40   1.511188 S    
C6    C12   1.385300 A    
C31   H21   1.110096 S    
C42   C43   1.405071 A    
N9    N15   1.380090 A    
C30   C32   1.557448 S    
C27   C29   1.548890 S    
N23   O14   1.301667 A    
N3    N5    1.380089 A    
N22   O12   1.302351 A    
C52   H28   1.081914 S    
C8    C9    1.393769 A    
C49   C50   1.405520 A    
C51   N23   1.434683 S    
C47   H26   1.112471 S    
C7    H5    1.070808 S    
C55   H29   1.111809 S    
C41   C42   1.398831 A    
C4    N4    1.318507 A    
N25   O18   1.301946 A    
C52   C53   1.407553 A    
C8    N8    1.345019 A    
C1    C9    1.374267 A    
C33   C38   1.377233 A    
C49   C56   1.505218 S    
N24   O15   1.301688 A    
N10   N16   1.380089 A    
C33   C40   1.492055 S    
N22   O11   1.300544 A    
C5    H36   1.074940 S    
C13   H7    1.081127 S    
N4    Ni4   1.885861 S    
C13   C21   1.380191 A    
C35   N19   1.425512 S    
C6    H37   1.080554 S    
C15   C23   1.373704 A    
C3    N3    1.330004 A    
C20   N16   1.323235 A    
C56   N25   1.468638 S    
N18   O3    1.299492 A    
C9    C50   1.474945 S    
C8    H6    1.077873 S    
C37   C38   1.400359 A    
C48   N22   1.466345 S    
N11   N14   1.388855 A    
C44   C45   1.402702 A    
C2    H2    1.073317 S    
C36   N20   1.438954 S    
C47   H35   1.111543 S    
N20   O7    1.300194 A    
C10   C34   1.470144 S    
C24   C53   1.466982 S    
C3    C11   1.379167 A    
C25   C26   1.523507 S    
N23   O13   1.300718 A    
C55   N24   1.467599 S    
C28   C29   1.548814 S    
C17   N13   1.341359 A    
C4    C12   1.382396 A    
C45   C46   1.393369 A    
C17   H10   1.079332 S    
C2    C10   1.396125 A    
C28   C32   1.541795 S    
C20   C22   1.382460 A    
C47   C48   1.510665 S    
C7    N7    1.323994 A    
N17   O2    1.300155 A    
N19   O5    1.301044 A    
C43   C44   1.394773 A    
C41   C48   1.501869 S    
C27   H20   1.113771 S    
N2    Ni2   1.874790 S    
C32   H18   1.112701 S    
C22   C30   1.467886 S    
N10   Ni2   1.875216 S    
C4    H4    1.070454 S    
C38   C39   1.504770 S    
N7    Ni4   1.863463 S    
C44   H25   1.082312 S    
C51   C52   1.410212 A    
C55   C56   1.521936 S    
N24   O16   1.302160 A    
N25   O17   1.300786 A    
N1    N8    1.388978 A    
C1    N1    1.323196 A    
C20   N18   1.423927 S    
N13   Ni2   1.835346 S    
C23   C37   1.464923 S    
C39   N21   1.466002 S    
