data_mof_unit_25022.cif
_audit_creation_date              2013-03-05T15:52:28-0500
_audit_creation_method            fapswitch 2.2
_symmetry_space_group_name_H-M    P1
_symmetry_Int_Tables_number       1
_space_group_crystal_system       triclinic
_cell_length_a                    27.782296
_cell_length_b                    10.845183
_cell_length_c                    9.560601
_cell_angle_alpha                 90.796446
_cell_angle_beta                  89.543154
_cell_angle_gamma                 92.299768
_cell_volume                      2877.97057511

loop_
_atom_site_label
_atom_site_type_symbol
_atom_site_description
_atom_site_fract_x
_atom_site_fract_y
_atom_site_fract_z
_atom_type_partial_charge
O1    O     O_R   0.500000 0.319640 0.618810 -0.588448
O2    O     O_R   0.500000 0.319660 0.381240 -0.576606
C1    C     C_R   0.503866 0.263036 0.499343 0.820121
O3    O     O_R   0.430260 0.500010 0.618770 -0.573560
O4    O     O_R   0.430270 0.500030 0.381200 -0.566558
C2    C     C_R   0.407718 0.499229 0.500258 0.875182
Cu1   Cu    Cu3+1 0.500000 0.499990 0.640660 0.973800
Cu2   Cu    Cu3+1 0.500000 0.500010 0.359340 0.964771
O5    O     O_R   0.500000 0.680340 0.618760 -0.580082
O6    O     O_R   0.500000 0.680360 0.381190 -0.615618
O7    O     O_R   0.569730 0.499970 0.618800 -0.561671
O8    O     O_R   0.569740 0.499990 0.381230 -0.554591
C3    C     C_R   0.497256 0.737829 0.502248 0.750213
C4    C     C_R   0.592846 0.499373 0.499374 0.846739
C5    C     C_R   0.175965 0.414878 0.586259 0.559247
O9    O     O_2   0.198790 0.355234 0.687704 -0.536568
N1    N     N_R   0.202185 0.477223 0.485987 -0.452066
C6    C     C_R   0.180046 0.540084 0.382969 0.565800
C7    C     C_R   0.278487 0.595292 0.516732 -0.128767
C8    C     C_R   0.328889 0.603863 0.518337 -0.017252
C9    C     C_R   0.330329 0.380928 0.476000 0.345285
C10   C     C_R   0.279697 0.375343 0.472285 -0.197368
C11   C     C_R   0.253873 0.482224 0.492566 0.281311
C12   C     C_R   0.102079 0.479693 0.481148 -0.055687
C13   C     C_R   0.125365 0.414533 0.585455 -0.040118
C14   C     C_R   0.097967 0.358105 0.692141 -0.185900
C15   C     C_R   0.129625 0.543908 0.379784 -0.057052
C16   C     C_R   0.354942 0.495217 0.500074 -0.082206
H1    H     H_    0.260269 0.288308 0.452630 0.147727
H2    H     H_    0.116079 0.318226 0.779636 0.183582
C17   C     C_R   0.646571 0.497597 0.497109 -0.171292
C18   C     C_R   0.973727 0.391367 0.550173 0.000379
C19   C     C_R   0.977670 0.573270 0.400329 0.069969
C20   C     C_R   0.950413 0.483312 0.476187 -0.016175
C21   C     C_R   0.946659 0.283936 0.589009 0.382935
C22   C     C_R   0.896044 0.284212 0.587179 -0.248568
C23   C     C_R   0.872383 0.386340 0.537100 -0.082753
C24   C     C_R   0.899601 0.484513 0.477336 -0.054513
C25   C     C_R   0.876116 0.583690 0.418463 -0.011741
C26   C     C_R   0.825670 0.585294 0.425565 0.565058
N2    N     N_R   0.799711 0.489746 0.485863 -0.425908
C27   C     C_R   0.821943 0.390414 0.539313 0.640675
C28   C     C_R   0.722077 0.482401 0.367284 -0.308667
C29   C     C_R   0.671734 0.486781 0.367951 0.311544
C30   C     C_R   0.673048 0.504037 0.623805 0.195814
C31   C     C_R   0.724180 0.507848 0.619330 0.366345
C32   C     C_R   0.748069 0.492675 0.491138 0.249645
O10   O     O_2   0.795282 0.295859 0.593999 -0.524108
C33   C     C_R   0.023859 0.407367 0.574047 0.068121
C34   C     C_R   0.051307 0.481652 0.479182 -0.043930
C35   C     C_R   0.028131 0.559490 0.384356 0.005666
C36   C     C_R   0.047478 0.359595 0.692683 0.154398
H3    H     H_    0.741510 0.471687 0.269440 0.171785
H4    H     H_    0.875359 0.203431 0.622050 0.183862
O11   O     O_2   0.206810 0.598930 0.284034 -0.543296
C37   C     C_R   0.106473 0.610011 0.277163 -0.239982
H5    H     H_    0.258052 0.677430 0.532827 0.154435
H6    H     H_    0.127547 0.655761 0.195827 0.183245
C38   C     C_R   0.953498 0.674146 0.346405 -0.141225
C39   C     C_R   0.903537 0.679413 0.355915 -0.179033
O12   O     O_2   0.802731 0.681704 0.373379 -0.542965
C40   C     C_R   0.056137 0.618402 0.277485 0.381549
H7    H     H_    0.972714 0.753178 0.302667 0.206363
H8    H     H_    0.886494 0.758659 0.313414 0.190664
H9    H     H_    0.490372 0.107368 0.279816 0.166170
C41   C     C_R   0.541675 0.124487 0.739129 -0.150762
H10   H     H_    0.561002 0.212536 0.728860 0.176553
C42   C     C_R   0.542022 0.068041 0.868856 -0.254522
H11   H     H_    0.559932 0.113785 0.956560 0.165173
C43   C     C_R   0.516131 0.957355 0.887993 -0.140396
H12   H     H_    0.512037 0.920487 0.992337 0.155774
C44   C     C_R   0.493924 0.896207 0.774563 0.420476
C45   C     C_R   0.501425 0.942441 0.636056 -0.025820
C46   C     C_R   0.517541 0.066668 0.624577 0.058201
C47   C     C_R   0.508243 0.129205 0.499404 -0.089678
C48   C     C_R   0.496394 0.061845 0.377937 -0.189574
H13   H     H_    0.485965 0.884641 0.283810 0.174504
C49   C     C_R   0.492220 0.934567 0.381348 -0.224054
C50   C     C_R   0.494660 0.872751 0.508847 -0.129784
H14   H     H_    0.445822 0.360091 0.128654 0.149668
C51   C     C_R   0.564138 0.663670 0.145034 -0.105399
H15   H     H_    0.566261 0.667707 0.254512 0.204187
C52   C     C_R   0.595854 0.745115 0.073921 0.075539
C53   C     C_R   0.595554 0.742762 0.929104 -0.253708
H16   H     H_    0.619600 0.804710 0.870912 0.159259
C54   C     C_R   0.563968 0.663412 0.856739 -0.055985
H17   H     H_    0.566558 0.672420 0.746695 0.202106
C55   C     C_R   0.531476 0.580486 0.925602 0.237614
C56   C     C_R   0.531534 0.580487 0.075110 0.170744
N3    N     N_R   0.500460 0.501210 0.147910 -0.196038
C57   C     C_R   0.470198 0.423073 0.073516 -0.048062
H18   H     H_    0.445845 0.360149 0.869307 0.149980
C58   C     C_R   0.470212 0.423114 0.925342 -0.037391
N4    N     N_R   0.500480 0.501290 0.852040 -0.191451
O13   O     O_3   0.356519 0.276495 0.455569 -0.742948
H19   H     H_    0.333880 0.205161 0.437775 0.322373
O14   O     O_3   0.648498 0.504426 0.749965 -0.723104
H20   H     H_    0.668139 0.464871 0.821403 0.336714
O15   O     O_3   0.751917 0.528387 0.737255 -0.709547
H21   H     H_    0.733425 0.576681 0.806307 0.328675
O16   O     O_3   0.033941 0.675033 0.168085 -0.764994
H22   H     H_    0.058602 0.708800 0.101898 0.324900
O17   O     O_3   0.460394 0.803819 0.806609 -0.719474
H23   H     H_    0.436041 0.800836 0.731757 0.318748
C59   C     C_3   0.630513 0.837042 0.146251 -0.378183
C60   C     C_3   0.628148 0.840044 0.307071 -0.388933
C61   C     C_3   0.663190 0.938280 0.367709 -0.768517
H24   H     H_    0.700738 0.918841 0.336236 0.272977
H25   H     H_    0.654202 0.031172 0.330642 0.253250
H26   H     H_    0.660633 0.937978 0.483690 0.242300
H27   H     H_    0.591197 0.861425 0.342498 0.221652
H28   H     H_    0.637605 0.748968 0.348493 0.231557
H29   H     H_    0.667790 0.815839 0.113238 0.219098
H30   H     H_    0.623020 0.930723 0.107979 0.197513
O18   O     O_3   0.646730 0.478240 0.243498 -0.703672
H31   H     H_    0.669757 0.473284 0.163998 0.329383
O19   O     O_3   0.970121 0.176153 0.612135 -0.742190
H32   H     H_    0.946023 0.109240 0.634490 0.324461
C62   C     C_3   0.021883 0.334018 0.831958 -0.403420
C63   C     C_3   0.999887 0.451068 0.892741 -0.368874
C64   C     C_3   0.975692 0.426288 0.034140 -0.739899
H33   H     H_    0.946704 0.353297 0.023281 0.243415
H34   H     H_    0.002533 0.396773 0.111099 0.256396
H35   H     H_    0.959391 0.511802 0.074139 0.273767
H36   H     H_    0.028626 0.524508 0.906261 0.242611
H37   H     H_    0.972485 0.485201 0.820372 0.225550
H38   H     H_    0.993916 0.259394 0.824912 0.247763
H39   H     H_    0.047869 0.301141 0.909727 0.193724
C65   C     C_3   0.353128 0.730116 0.538517 -0.406195
C66   C     C_3   0.347400 0.810324 0.409224 -0.335659
C67   C     C_3   0.361992 0.944805 0.441059 -0.814255
H40   H     H_    0.336004 0.984778 0.516207 0.253633
H41   H     H_    0.398469 0.952437 0.487203 0.270633
H42   H     H_    0.362036 0.998507 0.343033 0.252041
H43   H     H_    0.370426 0.775284 0.322920 0.231792
H44   H     H_    0.309418 0.806322 0.373246 0.242003
H45   H     H_    0.337201 0.775098 0.632355 0.214955
H46   H     H_    0.392056 0.723332 0.557888 0.172704

loop_
_geom_bond_atom_site_label_1
_geom_bond_atom_site_label_2
_geom_bond_distance
_ccdc_geom_bond_type
C41   C42   1.390998 A    
C31   O15   1.381190 S    
C3    C50   1.468380 S    
C58   N4    1.366370 A    
C10   H1    1.083248 S    
N2    C27   1.369992 A    
C7    C8    1.399817 A    
C12   C15   1.404997 A    
C4    C17   1.493479 S    
C47   C48   1.397798 A    
C67   H42   1.110229 S    
C51   H15   1.049018 S    
Cu1   Cu2   2.689591 S    
C60   H28   1.111239 S    
H13   C49   1.083499 S    
C7    H5    1.083933 S    
Cu1   O7    1.946851 S    
O16   H22   0.991636 S    
H9    C48   1.083403 S    
C59   H29   1.112169 S    
C22   C23   1.402256 A    
C53   C54   1.386290 A    
O4    C2    1.294890 A    
O7    C4    1.305600 A    
C54   C55   1.413850 A    
C5    C13   1.405721 A    
C60   C61   1.525612 S    
C5    O9    1.349570 S    
C41   C46   1.414586 A    
Cu1   O5    1.969995 S    
C45   C46   1.408026 A    
C23   C27   1.403788 A    
O5    C3    1.288350 A    
C64   H35   1.110188 S    
C28   H3    1.083513 S    
C2    C16   1.465166 S    
C65   H46   1.104219 S    
O13   H19   0.990981 S    
C29   O18   1.382691 S    
C37   H6    1.083425 S    
C42   H11   1.082623 S    
C61   H24   1.110904 S    
C43   H12   1.083333 S    
C1    C47   1.461366 S    
C8    C65   1.512035 S    
C40   O16   1.382018 S    
C51   C56   1.417244 A    
C62   H39   1.112538 S    
C41   H10   1.081873 S    
C38   C39   1.393680 A    
C19   C38   1.412030 A    
C20   C24   1.412202 A    
C9    C10   1.406260 A    
C61   H25   1.111026 S    
C35   C40   1.422367 A    
O3    Cu1   1.950477 S    
C51   C52   1.401249 A    
O14   H20   0.990528 S    
C60   H27   1.110742 S    
C12   C34   1.411865 A    
C55   N4    1.381083 A    
C17   C29   1.419881 A    
C18   C21   1.413535 A    
C59   H30   1.112652 S    
C12   C13   1.406766 A    
O3    C2    1.298721 A    
C46   C47   1.414373 A    
C25   C26   1.403377 A    
C15   C37   1.398897 A    
C27   O10   1.349564 S    
C9    O13   1.381337 S    
C34   C35   1.422423 A    
C13   C14   1.400656 A    
C30   C31   1.419811 A    
C26   O12   1.349592 S    
C52   C59   1.521093 S    
O1    C1    1.294910 A    
C21   C22   1.406579 A    
C18   C20   1.411720 A    
C7    C11   1.397155 A    
C28   C29   1.401315 A    
C23   C24   1.406167 A    
C14   C36   1.403409 A    
C57   C58   1.416632 A    
C52   C53   1.384506 A    
Cu2   O8    1.950472 S    
C33   C36   1.428636 A    
C67   H41   1.108090 S    
N1    C6    1.369359 A    
N2    C32   1.436819 S    
N1    C11   1.436686 S    
C53   H16   1.084266 S    
C64   H33   1.110798 S    
C6    O11   1.349955 S    
Cu2   O6    1.964163 S    
C26   N2    1.369778 A    
C66   H43   1.112125 S    
O8    C4    1.303877 A    
C14   H2    1.083621 S    
C61   H26   1.110594 S    
C37   C40   1.405023 A    
C21   O19   1.382316 S    
Cu2   N3    2.021556 S    
C67   H40   1.110665 S    
C63   C64   1.527315 S    
C54   H17   1.059582 S    
C65   C66   1.534326 S    
C5    N1    1.369015 A    
Cu1   N4    2.020921 S    
C31   C32   1.399939 A    
O1    Cu1   1.964163 S    
C9    C16   1.408354 A    
C66   H44   1.111495 S    
C6    C15   1.403650 A    
C48   C49   1.381390 A    
C44   C45   1.433196 A    
C45   C50   1.432616 A    
O6    C3    1.310022 A    
O4    Cu2   1.946854 S    
C62   C63   1.535796 S    
C44   O17   1.376446 S    
C19   C35   1.422612 A    
C8    C16   1.415431 A    
C59   C60   1.538356 S    
C38   H7    1.078987 S    
O15   H21   0.990293 S    
C39   H8    1.083231 S    
H14   C57   1.081795 S    
C66   C67   1.525211 S    
C30   O14   1.380959 S    
O19   H32   0.991747 S    
C49   C50   1.402707 A    
N3    C57   1.366177 A    
C24   C25   1.406584 A    
C25   C39   1.400790 A    
H18   C58   1.081729 S    
C63   H36   1.111895 S    
C19   C20   1.415228 A    
O2    C1    1.300044 A    
C63   H37   1.110616 S    
C18   C33   1.416568 A    
C64   H34   1.111015 S    
C22   H4    1.083329 S    
C36   C62   1.528062 S    
C65   H45   1.112429 S    
C55   C56   1.429399 A    
C42   C43   1.388027 A    
C33   C34   1.418841 A    
C17   C30   1.421596 A    
O2    Cu2   1.969995 S    
O17   H23   0.988073 S    
C10   C11   1.397936 A    
C43   C44   1.397970 A    
C56   N3    1.384355 A    
C28   C32   1.392668 A    
O18   H31   0.991834 S    
C62   H38   1.100946 S    
