data_mof_unit_50380.cif
_audit_creation_date              2012-12-11T16:07:25-0500
_audit_creation_method            fapswitch 2.2
_symmetry_space_group_name_H-M    P1
_symmetry_Int_Tables_number       1
_space_group_crystal_system       triclinic
_cell_length_a                    17.155008
_cell_length_b                    17.151989
_cell_length_c                    17.18771
_cell_angle_alpha                 90.001291
_cell_angle_beta                  89.865707
_cell_angle_gamma                 90.000118
_cell_volume                      5057.34101299

loop_
_atom_site_label
_atom_site_type_symbol
_atom_type_description
_atom_site_fract_x
_atom_site_fract_y
_atom_site_fract_z
_atom_type_partial_charge
C1    C     C_R   0.391516 0.699086 0.602072 0.767727
C2    C     C_R   0.578342 0.670366 0.646183 0.672032
C3    C     C_3   0.804608 0.212530 0.628891 -0.178596
C4    C     C_3   0.728413 0.743517 0.275754 -0.193067
C5    C     C_3   0.271631 0.256450 0.724261 -0.193020
C6    C     C_3   0.788693 0.195878 0.371858 -0.178837
C7    C     C_3   0.211327 0.804138 0.628145 -0.178822
C8    C     C_3   0.695764 0.712096 0.871149 -0.178765
C9    C     C_3   0.304291 0.287844 0.128851 -0.178761
C10   C     C_3   0.755353 0.228127 0.776285 -0.192602
C11   C     C_3   0.244612 0.771830 0.223704 -0.192659
C12   C     C_3   0.288461 0.304313 0.871822 -0.178681
C13   C     C_R   0.699232 0.392206 0.397626 0.758094
C14   C     C_3   0.711501 0.695724 0.128180 -0.178670
C15   C     C_3   0.228565 0.756637 0.775774 -0.193274
C16   C     C_3   0.771417 0.243346 0.224223 -0.193296
C17   C     C_R   0.300768 0.607794 0.602373 0.758101
C18   C     C_R   0.578399 0.669178 0.352977 0.676359
C19   C     C_R   0.421600 0.330824 0.647025 0.676365
C20   C     C_R   0.301059 0.608386 0.397644 0.772055
C21   C     C_R   0.698941 0.391612 0.602353 0.772064
C22   C     C_R   0.921614 0.169176 0.147026 0.676310
C23   C     C_R   0.078387 0.830824 0.852974 0.676303
C24   C     C_R   0.198942 0.108366 0.102373 0.771898
C25   C     C_R   0.608484 0.300914 0.397928 0.767719
C26   C     C_R   0.801058 0.891637 0.897623 0.771859
C27   C     C_R   0.078351 0.829602 0.146159 0.671913
C28   C     C_R   0.921649 0.170401 0.853843 0.671902
C29   C     C_R   0.800766 0.892217 0.102376 0.758157
C30   C     C_R   0.199235 0.107782 0.897626 0.758144
C31   C     C_R   0.892388 0.800878 0.897301 0.762228
C32   C     C_R   0.107610 0.199124 0.102696 0.762215
C33   C     C_R   0.170110 0.921862 0.853568 0.672268
C34   C     C_R   0.829891 0.078137 0.146434 0.672263
C35   C     C_R   0.108497 0.199084 0.897939 0.767846
C36   C     C_R   0.669409 0.578609 0.646787 0.676214
C37   C     C_R   0.891506 0.800916 0.102064 0.767809
C38   C     C_R   0.830590 0.078632 0.853210 0.676262
C39   C     C_R   0.169410 0.921370 0.146790 0.676261
C40   C     C_3   0.323615 0.322192 0.248166 0.231227
C41   C     C_3   0.676391 0.677805 0.751828 0.231209
C42   C     C_3   0.263450 0.737642 0.341865 0.215179
C43   C     C_3   0.736548 0.262353 0.658130 0.215206
C44   C     C_3   0.677345 0.675956 0.247594 0.232013
C45   C     C_3   0.322655 0.324048 0.752412 0.232023
C46   C     C_3   0.737881 0.263045 0.342525 0.215275
C47   C     C_R   0.330593 0.421388 0.353211 0.676218
C48   C     C_3   0.262118 0.736954 0.657474 0.215283
C49   C     C_3   0.763431 0.762398 0.841816 0.214932
C50   C     C_3   0.236568 0.237611 0.158172 0.214976
C51   C     C_3   0.823627 0.177843 0.748159 0.231285
C52   C     C_3   0.176375 0.822160 0.251839 0.231279
C53   C     C_3   0.237897 0.236937 0.842537 0.215387
C54   C     C_3   0.762110 0.763063 0.157472 0.215357
C55   C     C_3   0.177316 0.824045 0.747580 0.232020
C56   C     C_3   0.822686 0.175955 0.252420 0.232020
C57   C     C_R   0.314715 0.684610 0.617290 -0.449722
C58   C     C_R   0.607593 0.300870 0.602687 0.762253
C59   C     C_R   0.685285 0.315390 0.382710 -0.449717
C60   C     C_R   0.635553 0.636629 0.690792 -0.422799
C61   C     C_R   0.364446 0.363364 0.309210 -0.422777
C62   C     C_R   0.684324 0.314878 0.617890 -0.452323
C63   C     C_R   0.315674 0.685119 0.382107 -0.452306
C64   C     C_R   0.363787 0.364852 0.691178 -0.423132
C65   C     C_R   0.636210 0.635149 0.308823 -0.423145
C66   C     C_R   0.863822 0.135138 0.191195 -0.423173
C67   C     C_R   0.136180 0.864861 0.808806 -0.423169
C68   C     C_R   0.184341 0.185101 0.117909 -0.452203
C69   C     C_R   0.392406 0.699129 0.397312 0.762234
C70   C     C_R   0.815657 0.814904 0.882085 -0.452178
C71   C     C_R   0.135569 0.863319 0.190768 -0.422682
C72   C     C_R   0.864431 0.136686 0.809234 -0.422669
C73   C     C_R   0.814708 0.815402 0.117290 -0.449765
C74   C     C_R   0.185296 0.184596 0.882714 -0.449790
C75   C     C_3   0.725606 0.644745 0.818278 -0.108294
C76   C     C_3   0.274467 0.355250 0.181665 -0.108575
C77   C     C_3   0.706062 0.195762 0.709279 -0.042976
C78   C     C_3   0.293948 0.804198 0.290675 -0.043086
C79   C     C_3   0.256859 0.355137 0.804221 -0.044978
C80   C     C_R   0.329869 0.421857 0.646417 0.672219
C81   C     C_3   0.743105 0.644856 0.195748 -0.045099
C82   C     C_3   0.294417 0.787203 0.723686 -0.103070
C83   C     C_3   0.705581 0.212775 0.276330 -0.102995
C84   C     C_3   0.803726 0.293724 0.290467 -0.047366
C85   C     C_3   0.196257 0.706279 0.709515 -0.047318
C86   C     C_3   0.644368 0.725601 0.181385 -0.106354
C87   C     C_3   0.355630 0.274447 0.818655 -0.106541
C88   C     C_3   0.214245 0.705275 0.274954 -0.105228
C89   C     C_3   0.785709 0.294718 0.725074 -0.105405
C90   C     C_3   0.354647 0.256148 0.196700 -0.044571
C91   C     C_R   0.670129 0.578144 0.353581 0.672235
C92   C     C_3   0.645341 0.743796 0.803351 -0.044745
C93   C     C_3   0.286131 0.205226 0.224811 -0.103843
C94   C     C_3   0.713802 0.794786 0.775227 -0.103586
C95   C     C_3   0.145435 0.755830 0.302995 -0.043686
C96   C     C_3   0.854556 0.244209 0.697042 -0.043574
C97   C     C_3   0.696107 0.793696 0.209359 -0.046896
C98   C     C_3   0.303936 0.206314 0.790689 -0.046786
C99   C     C_3   0.855665 0.225802 0.318480 -0.105616
C100  C     C_3   0.144338 0.774219 0.681504 -0.105688
C101  C     C_3   0.242934 0.855189 0.695581 -0.045522
C102  C     C_R   0.421657 0.329630 0.353820 0.672009
C103  C     C_3   0.757085 0.144806 0.304437 -0.045569
C104  C     C_3   0.205604 0.286963 0.776157 -0.103924
C105  C     C_3   0.794405 0.712993 0.223819 -0.103760
C106  C     C_3   0.774886 0.144800 0.681352 -0.110222
C107  C     C_3   0.225163 0.855206 0.318612 -0.110035
C108  C     C_3   0.794030 0.696179 0.790251 -0.044096
C109  C     C_3   0.205985 0.303884 0.209678 -0.043935
C110  C     C_3   0.255678 0.271503 0.276377 -0.193097
C111  C     C_3   0.744271 0.728562 0.723602 -0.193173
C112  C     C_3   0.195428 0.787512 0.371113 -0.178613
F1    F     F_    0.421021 0.771048 0.588029 -0.574170
F2    F     F_    0.541691 0.738280 0.662147 -0.645319
F3    F     F_    0.770840 0.421821 0.412918 -0.581647
F4    F     F_    0.229161 0.578179 0.587078 -0.581653
F5    F     F_    0.541628 0.736650 0.335550 -0.641599
F6    F     F_    0.458375 0.263354 0.664456 -0.641597
F7    F     F_    0.229034 0.578750 0.411133 -0.574365
F8    F     F_    0.770966 0.421246 0.588866 -0.574353
F9    F     F_    0.958374 0.236658 0.164439 -0.641619
F10   F     F_    0.041626 0.763343 0.835559 -0.641617
F11   F     F_    0.270961 0.078724 0.088868 -0.574474
F12   F     F_    0.578980 0.228952 0.411975 -0.574171
F13   F     F_    0.729039 0.921280 0.911131 -0.574496
F14   F     F_    0.041688 0.761689 0.162090 -0.645463
F15   F     F_    0.958314 0.238313 0.837915 -0.645476
F16   F     F_    0.729164 0.921839 0.087075 -0.581727
F17   F     F_    0.270836 0.078158 0.912932 -0.581749
F18   F     F_    0.922149 0.729197 0.912120 -0.582177
F19   F     F_    0.077847 0.270802 0.087870 -0.582206
F20   F     F_    0.238193 0.958192 0.837537 -0.646402
F21   F     F_    0.761808 0.041808 0.162466 -0.646394
F22   F     F_    0.079005 0.271051 0.911988 -0.574096
F23   F     F_    0.736688 0.541518 0.664174 -0.640206
F24   F     F_    0.920999 0.728949 0.088013 -0.574113
F25   F     F_    0.763330 0.041522 0.835790 -0.640215
F26   F     F_    0.236672 0.958479 0.164207 -0.640212
F27   F     F_    0.263317 0.458483 0.335819 -0.640205
F28   F     F_    0.577818 0.229203 0.587828 -0.582407
F29   F     F_    0.422179 0.770798 0.412168 -0.582387
F30   F     F_    0.261783 0.458190 0.662428 -0.646477
F31   F     F_    0.738215 0.541811 0.337568 -0.646457
F32   F     F_    0.458310 0.261716 0.337860 -0.645348
H1    H     H_    0.236384 0.265267 0.337806 0.161859
H2    H     H_    0.323017 0.292863 0.067286 0.145734
H3    H     H_    0.735787 0.234068 0.837658 0.161985
H4    H     H_    0.264147 0.765856 0.162324 0.161971
H5    H     H_    0.293664 0.322725 0.933412 0.145478
H6    H     H_    0.706264 0.677337 0.066587 0.145439
H7    H     H_    0.235168 0.737783 0.837242 0.161480
H8    H     H_    0.764798 0.262186 0.162752 0.161474
H9    H     H_    0.728925 0.582214 0.834569 0.162620
H10   H     H_    0.271205 0.417774 0.165335 0.162557
H11   H     H_    0.644587 0.176267 0.714612 0.204859
H12   H     H_    0.763520 0.734847 0.662165 0.161839
H13   H     H_    0.355431 0.823657 0.285310 0.204824
H14   H     H_    0.238747 0.417049 0.809329 0.182530
H15   H     H_    0.761182 0.582937 0.190610 0.182476
H16   H     H_    0.356618 0.791773 0.740856 0.185595
H17   H     H_    0.643378 0.208189 0.259171 0.185612
H18   H     H_    0.822450 0.355379 0.284443 0.202900
H19   H     H_    0.177518 0.644628 0.715523 0.202913
H20   H     H_    0.581836 0.729235 0.165348 0.163067
H21   H     H_    0.418158 0.270852 0.834717 0.163026
H22   H     H_    0.210540 0.643130 0.257205 0.186419
H23   H     H_    0.176472 0.792262 0.432631 0.145883
H24   H     H_    0.789373 0.356858 0.742849 0.186362
H25   H     H_    0.416484 0.237740 0.191773 0.183160
H26   H     H_    0.583492 0.762150 0.808322 0.183077
H27   H     H_    0.290144 0.143042 0.242350 0.186849
H28   H     H_    0.709731 0.856978 0.757728 0.186927
H29   H     H_    0.083665 0.737141 0.307687 0.183637
H30   H     H_    0.916317 0.262934 0.692380 0.183698
H31   H     H_    0.677229 0.855318 0.215240 0.203065
H32   H     H_    0.322848 0.144700 0.784841 0.203099
H33   H     H_    0.918217 0.229610 0.334404 0.163222
H34   H     H_    0.823593 0.207814 0.567378 0.145904
H35   H     H_    0.081788 0.770428 0.665569 0.163201
H36   H     H_    0.260870 0.917140 0.690329 0.182243
H37   H     H_    0.739165 0.082852 0.309703 0.182213
H38   H     H_    0.143425 0.291338 0.758860 0.185301
H39   H     H_    0.856589 0.708580 0.241090 0.185355
H40   H     H_    0.771972 0.082320 0.664788 0.162201
H41   H     H_    0.228116 0.917690 0.335150 0.162241
H42   H     H_    0.855591 0.677049 0.784576 0.204509
H43   H     H_    0.144437 0.323066 0.215305 0.204558
H44   H     H_    0.734885 0.762491 0.337200 0.161526
H45   H     H_    0.265192 0.237447 0.662820 0.161539
H46   H     H_    0.794080 0.177634 0.433481 0.145431
H47   H     H_    0.205955 0.822397 0.566525 0.145432
H48   H     H_    0.677078 0.707026 0.932721 0.145688
N1    N     N_R   0.424590 0.632770 0.578330 -0.191015
N2    N     N_R   0.575410 0.632770 0.578330 -0.144741
N3    N     N_R   0.632770 0.424590 0.421670 -0.190055
N4    N     N_R   0.367230 0.575410 0.578330 -0.190052
N5    N     N_R   0.575410 0.632770 0.421670 -0.145257
N6    N     N_R   0.424590 0.367230 0.578330 -0.145257
N7    N     N_R   0.367230 0.575410 0.421670 -0.191330
N8    N     N_R   0.632770 0.424590 0.578330 -0.191336
N9    N     N_R   0.924590 0.132770 0.078330 -0.145239
N10   N     N_R   0.075410 0.867230 0.921670 -0.145242
N11   N     N_R   0.132770 0.075410 0.078330 -0.191294
N12   N     N_R   0.575410 0.367230 0.421670 -0.191010
N13   N     N_R   0.867230 0.924590 0.921670 -0.191287
N14   N     N_R   0.075410 0.867230 0.078330 -0.144724
N15   N     N_R   0.924590 0.132770 0.921670 -0.144721
N16   N     N_R   0.867230 0.924590 0.078330 -0.190052
N17   N     N_R   0.132770 0.075410 0.921670 -0.190052
N18   N     N_R   0.924590 0.867230 0.921670 -0.190278
N19   N     N_R   0.075410 0.132770 0.078330 -0.190278
N20   N     N_R   0.132770 0.924590 0.921670 -0.144448
N21   N     N_R   0.867230 0.075410 0.078330 -0.144451
N22   N     N_R   0.075410 0.132770 0.921670 -0.191021
N23   N     N_R   0.632770 0.575410 0.578330 -0.145653
N24   N     N_R   0.924590 0.867230 0.078330 -0.191019
N25   N     N_R   0.867230 0.075410 0.921670 -0.145674
N26   N     N_R   0.132770 0.924590 0.078330 -0.145672
N27   N     N_R   0.367230 0.424590 0.421670 -0.145655
N28   N     N_R   0.575410 0.367230 0.578330 -0.190263
N29   N     N_R   0.424590 0.632770 0.421670 -0.190266
N30   N     N_R   0.367230 0.424590 0.578330 -0.144440
N31   N     N_R   0.632770 0.575410 0.421670 -0.144443
N32   N     N_R   0.424590 0.367230 0.421670 -0.144736
Ni1   Ni    Ni4+2 0.500000 0.631570 0.500000 0.293721
Ni2   Ni    Ni4+2 0.500000 0.368430 0.500000 0.293724
Ni3   Ni    Ni4+2 0.631570 0.500000 0.500000 0.293618
Ni4   Ni    Ni4+2 0.368430 0.500000 0.500000 0.293619
Ni5   Ni    Ni4+2 0.000000 0.131570 0.000000 0.293759
Ni6   Ni    Ni4+2 1.000000 0.868430 0.000000 0.293755
Ni7   Ni    Ni4+2 0.131570 0.000000 0.000000 0.293600
Ni8   Ni    Ni4+2 0.868430 0.000000 0.000000 0.293598

loop_
_geom_bond_atom_site_label_1
_geom_bond_atom_site_label_2
_ccdc_geom_bond_type
C58   C62   A    
C104  H38   S    
N4    Ni4   S    
C24   N11   A    
C97   H31   S    
C46   C59   S    
N14   Ni6   S    
C107  C112  S    
C94   C111  S    
C39   N26   A    
C53   C74   S    
C25   N12   A    
C7    H47   S    
N25   Ni8   S    
C34   C66   A    
C79   H14   S    
C15   H7    S    
N20   Ni7   S    
C24   F11   S    
C102  N32   A    
C48   C57   S    
C35   C74   A    
C109  H43   S    
C18   C65   A    
N9    N21   A    
C3    C43   S    
C43   C89   S    
C29   N16   A    
C83   C103  S    
C90   C93   S    
C101  H36   S    
C81   H15   S    
N2    Ni1   S    
C108  H42   S    
C77   C106  S    
N6    N30   A    
C3    H34   S    
C55   C101  S    
C99   H33   S    
C21   F8    S    
C7    C101  S    
C95   C112  S    
C36   N23   A    
C30   C74   A    
C33   N20   A    
N31   Ni3   S    
C11   H4    S    
C29   C73   A    
C53   C104  S    
C69   F29   S    
C12   C79   S    
N29   Ni1   S    
C9    H2    S    
C16   C84   S    
C98   H32   S    
C52   C95   S    
N17   Ni7   S    
C23   C67   A    
C86   C97   S    
C42   C112  S    
C22   C66   A    
C80   N30   A    
C11   C52   S    
C94   H28   S    
N27   N32   A    
C20   N7    A    
C58   N28   A    
C52   C107  S    
C31   C70   A    
C63   C69   A    
C10   C89   S    
C92   H26   S    
C76   C109  S    
C55   C100  S    
N24   Ni6   S    
C54   C97   S    
C3    C96   S    
C8    C92   S    
C9    C76   S    
C16   C83   S    
C49   C94   S    
C15   C82   S    
C110  H1    S    
N19   Ni5   S    
C111  H12   S    
C11   C88   S    
C37   N24   A    
C69   N29   A    
C12   C53   S    
C22   N9    A    
C28   F15   S    
C51   C96   S    
N10   Ni6   S    
C87   C98   S    
C56   C103  S    
N9    Ni5   S    
C83   H17   S    
C5    C104  S    
C75   C108  S    
N16   N24   A    
C4    C97   S    
N23   Ni3   S    
C64   C80   A    
C38   N25   A    
N11   N19   A    
C44   C65   S    
C28   C72   A    
C102  F32   S    
C30   N17   A    
C44   C86   S    
C10   C51   S    
C35   F22   S    
C50   C68   S    
C25   F12   S    
C10   C77   S    
C49   C108  S    
C91   F31   S    
C3    C106  S    
C38   C72   A    
N15   N25   A    
C7    C100  S    
C23   N10   A    
C19   F6    S    
C16   H8    S    
C44   C81   S    
C85   H19   S    
N2    N23   A    
C32   N19   A    
C24   C68   A    
N15   Ni5   S    
C40   C110  S    
N3    N12   A    
C4    C44   S    
C34   F21   S    
C36   C60   A    
C112  H23   S    
C5    C45   S    
C50   C109  S    
N14   N26   A    
C15   C85   S    
C40   C76   S    
C78   C107  S    
C2    N2    A    
C26   F13   S    
C15   C55   S    
C107  H41   S    
C1    N1    A    
C16   C56   S    
C89   H24   S    
C23   F10   S    
C11   C78   S    
C1    C57   A    
C41   C75   S    
C54   C73   S    
C82   H16   S    
C75   H9    S    
C78   H13   S    
C26   C70   A    
N8    N28   A    
N30   Ni4   S    
C19   C64   A    
N1    N4    A    
C106  H40   S    
C14   H6    S    
C18   N5    A    
C92   C94   S    
N18   Ni6   S    
C37   F24   S    
N28   Ni2   S    
C45   C79   S    
C6    C103  S    
C105  H39   S    
C18   F5    S    
C14   C86   S    
C21   C62   A    
C13   F3    S    
N21   Ni8   S    
C96   H30   S    
N16   Ni8   S    
N7    N29   A    
C33   F20   S    
C14   C54   S    
C42   C78   S    
C88   H22   S    
C49   C70   S    
C41   C111  S    
N27   Ni4   S    
C46   C84   S    
C79   C104  S    
C29   F16   S    
C26   N13   A    
C86   H20   S    
C51   C72   S    
C21   N8    A    
C91   N31   A    
C36   F23   S    
C6    H46   S    
C27   C71   A    
C33   C67   A    
C22   F9    S    
N7    Ni4   S    
C58   F28   S    
C65   C91   A    
C81   C105  S    
C37   C73   A    
C93   H27   S    
C19   N6    A    
C6    C46   S    
C54   C105  S    
C45   C87   S    
C103  H37   S    
C84   C99   S    
C12   H5    S    
C9    C50   S    
C41   C60   S    
N10   N20   A    
N5    N31   A    
C34   N21   A    
N32   Ni2   S    
C9    C90   S    
C47   C61   A    
C55   C67   S    
C50   C93   S    
C82   C101  S    
C13   C59   A    
N3    Ni3   S    
C53   C98   S    
C43   C77   S    
C30   F17   S    
C4    C105  S    
C10   H3    S    
C45   C64   S    
C80   F30   S    
N17   N22   A    
C14   C81   S    
C108  C111  S    
C32   C68   A    
C39   F26   S    
C27   N14   A    
C40   C90   S    
C7    C48   S    
C4    H44   S    
C20   C63   A    
C61   C102  A    
C95   H29   S    
C5    H45   S    
C12   C87   S    
C85   C100  S    
C109  C110  S    
C6    C99   S    
N11   Ni7   S    
C2    F2    S    
C87   H21   S    
C31   N18   A    
C47   N27   A    
N13   N18   A    
C8    H48   S    
C51   C106  S    
C56   C66   S    
C8    C49   S    
C90   H25   S    
C76   H10   S    
C27   F14   S    
C38   F25   S    
C48   C82   S    
C2    C60   A    
C8    C75   S    
C35   N22   A    
N26   Ni7   S    
C88   C95   S    
C1    F1    S    
C40   C61   S    
N1    Ni1   S    
C46   C83   S    
C31   F18   S    
N6    Ni2   S    
C41   C92   S    
C42   C88   S    
C5    C98   S    
C17   F4    S    
C13   N3    A    
C84   H18   S    
C47   F27   S    
C52   C71   S    
C28   N15   A    
C39   C71   A    
C48   C85   S    
C17   N4    A    
N13   Ni8   S    
C25   C59   A    
C56   C99   S    
C89   C96   S    
N22   Ni5   S    
C100  H35   S    
N12   Ni2   S    
C42   C63   S    
N8    Ni3   S    
C20   F7    S    
C77   H11   S    
C32   F19   S    
C43   C62   S    
C17   C57   A    
C93   C110  S    
N5    Ni1   S    
