data_mof_unit_18273.cif
_audit_creation_date              2012-12-10T17:38:46-0500
_audit_creation_method            fapswitch 2.2
_symmetry_space_group_name_H-M    P1
_symmetry_Int_Tables_number       1
_space_group_crystal_system       triclinic
_cell_length_a                    12.417197
_cell_length_b                    13.172368
_cell_length_c                    23.476929
_cell_angle_alpha                 76.566159
_cell_angle_beta                  102.024009
_cell_angle_gamma                 116.689283
_cell_volume                      3313.0061357

loop_
_atom_site_label
_atom_site_type_symbol
_atom_type_description
_atom_site_fract_x
_atom_site_fract_y
_atom_site_fract_z
_atom_type_partial_charge
C1    C     C_R   0.855120 0.285859 0.503676 0.770666
C2    C     C_R   0.803969 0.513490 0.005263 0.090201
C3    C     C_R   0.805522 0.511397 0.945294 -0.063874
C4    C     C_R   0.911309 0.520871 0.925719 -0.089668
C5    C     C_R   0.017640 0.537943 0.966223 -0.029516
C6    C     C_R   0.126864 0.555257 0.946772 -0.046082
C7    C     C_R   0.233090 0.574930 0.987982 -0.042782
C8    C     C_R   0.228971 0.574454 0.046804 -0.202975
C9    C     C_R   0.915889 0.516031 0.866559 0.547398
C10   C     C_R   0.125032 0.551334 0.886914 0.541679
C11   C     C_R   0.057723 0.622899 0.746226 0.022464
C12   C     C_R   0.000048 0.499176 0.608734 0.791088
C13   C     C_R   0.050146 0.612517 0.687521 -0.283660
C14   C     C_R   0.004526 0.503812 0.670820 -0.057562
C15   C     C_R   0.965101 0.403237 0.713478 0.111943
C16   C     C_R   0.976183 0.414978 0.772555 -0.119606
C17   C     C_R   0.020541 0.523557 0.788952 0.283043
C18   C     C_R   0.983895 0.594805 0.226640 -0.108289
C19   C     C_R   0.979926 0.589770 0.286101 -0.210748
C20   C     C_R   0.002344 0.504987 0.328411 -0.018198
C21   C     C_R   0.028351 0.424633 0.310618 -0.247364
C22   C     C_R   0.030200 0.427893 0.250787 0.024211
C23   C     C_R   0.144836 0.713722 0.493953 0.787721
C24   C     C_R   0.008974 0.514383 0.208421 0.312024
C25   C     C_R   0.268138 0.034245 0.446602 -0.180998
C26   C     C_R   0.226667 0.836862 0.489815 -0.045230
C27   C     C_R   0.812751 0.074707 0.535722 0.159636
C28   C     C_R   0.729649 0.972918 0.564711 -0.139153
C29   C     C_R   0.607097 0.947578 0.556189 -0.212391
C30   C     C_R   0.561647 0.018692 0.514075 0.076054
C31   C     C_R   0.645315 0.126445 0.487237 0.009700
C32   C     C_R   0.435110 0.984636 0.497246 0.094333
C33   C     C_R   0.393007 0.064807 0.461124 0.146980
C34   C     C_R   0.000575 0.501514 0.391083 0.803700
C35   C     C_R   0.475287 0.169276 0.434352 -0.269990
C36   C     C_R   0.598419 0.194168 0.442162 -0.017730
C37   C     C_R   0.349920 0.870058 0.510448 -0.234366
C38   C     C_R   0.185404 0.920815 0.461375 -0.213802
C39   C     C_R   0.772460 0.160811 0.505244 -0.160625
C40   C     C_R   0.342649 0.316109 0.588202 -0.284320
C41   C     C_R   0.751099 0.644501 0.418008 0.362766
C42   C     C_R   0.647429 0.665828 0.399678 -0.222259
C43   C     C_R   0.548928 0.610895 0.430435 -0.235938
C44   C     C_R   0.547288 0.527626 0.479560 0.008739
C45   C     C_R   0.118174 0.550052 0.126382 0.549327
C46   C     C_R   0.651747 0.501363 0.496599 0.231448
C47   C     C_R   0.443132 0.467358 0.511056 -0.032625
C48   C     C_R   0.440085 0.373302 0.555152 0.075615
C49   C     C_R   0.536649 0.340273 0.567512 -0.068844
C50   C     C_R   0.643613 0.409290 0.542378 -0.204639
C51   C     C_R   0.340748 0.495634 0.500206 -0.007073
C52   C     C_R   0.249759 0.351841 0.579350 0.344683
C53   C     C_R   0.906016 0.500972 0.108996 0.534018
C54   C     C_R   0.906563 0.516879 0.047021 -0.058531
C55   C     C_R   0.014845 0.536201 0.026518 -0.040900
C56   C     C_R   0.121215 0.553662 0.066643 -0.008280
Cu1   Cu    Cu3+1 0.098270 0.475410 0.513370 0.921468
Cu2   Cu    Cu3+1 0.901730 0.524590 0.486630 0.935207
H1    H     H_    0.962548 0.653972 0.299104 0.135293
H2    H     H_    0.044909 0.358324 0.343236 0.148798
H3    H     H_    0.090223 0.897505 0.447269 0.168345
H4    H     H_    0.441891 0.225188 0.401806 0.154091
H5    H     H_    0.234911 0.096128 0.420497 0.141856
H6    H     H_    0.378753 0.803372 0.532524 0.151879
H7    H     H_    0.549360 0.869786 0.582006 0.145938
H8    H     H_    0.759705 0.911222 0.593733 0.153913
H9    H     H_    0.341843 0.247251 0.624166 0.162931
H10   H     H_    0.335263 0.564530 0.466389 0.135320
H11   H     H_    0.473156 0.632424 0.412837 0.150613
H12   H     H_    0.641189 0.725407 0.360101 0.167454
H13   H     H_    0.717611 0.386240 0.559213 0.206182
H14   H     H_    0.310948 0.588831 0.077562 0.187781
H15   H     H_    0.079531 0.689300 0.654550 0.149227
H16   H     H_    0.947273 0.339280 0.806062 0.145170
H17   H     H_    0.967776 0.661694 0.194477 0.142208
N1    N     N_R   0.011169 0.521204 0.146528 -0.464769
N2    N     N_R   0.020905 0.531211 0.849060 -0.460328
N3    N     N_R   0.246280 0.438190 0.533650 -0.190937
N4    N     N_R   0.754320 0.561190 0.466710 -0.219398
O1    O     O_R   0.972510 0.318130 0.516820 -0.611980
O2    O     O_2   0.801423 0.460991 0.132395 -0.543663
O3    O     O_2   0.816593 0.495530 0.826341 -0.529167
O4    O     O_2   0.225471 0.566143 0.866240 -0.522942
O5    O     O_R   0.806530 0.359650 0.494230 -0.584539
O6    O     O_R   0.082990 0.479200 0.593420 -0.579942
O7    O     O_R   0.917010 0.520720 0.570830 -0.583955
O8    O     O_R   0.193470 0.640350 0.505770 -0.581732
O9    O     O_R   0.027490 0.681870 0.483180 -0.595759
O10   O     O_R   0.082990 0.479280 0.429170 -0.583038
O11   O     O_R   0.917010 0.520800 0.406580 -0.586922
O12   O     O_2   0.221238 0.574210 0.164311 -0.542082
C57   C     C_3   0.697315 0.524465 0.021906 -0.348883
C58   C     C_3   0.589816 0.407463 0.033536 -0.693526
H18   H     H_    0.550736 0.369152 0.992464 0.234155
H19   H     H_    0.617782 0.346715 0.067329 0.279794
H20   H     H_    0.518088 0.418552 0.049375 0.240025
H21   H     H_    0.724450 0.571228 0.059783 0.234394
H22   H     H_    0.666499 0.580793 0.986151 0.198330
C59   C     C_1   0.051249 0.340765 0.233484 0.280312
N5    N     N_1   0.068127 0.270886 0.219579 -0.271667
C60   C     C_3   0.940183 0.084441 0.537662 -0.406801
C61   C     C_3   0.938438 0.985698 0.513243 -0.844764
H23   H     H_    0.896803 0.902169 0.542340 0.256274
H24   H     H_    0.886698 0.980752 0.468555 0.255948
H25   H     H_    0.032837 0.001451 0.510088 0.247007
H26   H     H_    0.997803 0.163005 0.510159 0.240260
H27   H     H_    0.983981 0.083279 0.583904 0.194934
C62   C     C_1   0.697612 0.502373 0.904173 0.348439
N6    N     N_1   0.611372 0.495257 0.871662 -0.225701
C63   C     C_1   0.667319 0.273593 0.395363 0.281232
N7    N     N_1   0.720275 0.335750 0.356922 -0.267366
C64   C     C_3   0.164934 0.298536 0.626340 -0.407318
C65   C     C_3   0.224148 0.357619 0.680917 -0.758354
H28   H     H_    0.308845 0.346639 0.699565 0.248977
H29   H     H_    0.247145 0.451077 0.669834 0.273325
H30   H     H_    0.162139 0.318614 0.715443 0.233376
H31   H     H_    0.075146 0.297561 0.611032 0.240656
H32   H     H_    0.146436 0.206158 0.640073 0.165313
C66   C     C_1   0.525641 0.231791 0.603881 0.221879
N8    N     N_1   0.514834 0.144005 0.632262 -0.287413
C67   C     C_3   0.849444 0.710874 0.377085 -0.372136
C68   C     C_3   0.886138 0.840962 0.365308 -0.920447
H33   H     H_    0.818368 0.863205 0.332631 0.260315
H34   H     H_    0.895518 0.872175 0.406745 0.257966
H35   H     H_    0.974183 0.886685 0.346678 0.253106
H36   H     H_    0.933272 0.701070 0.392463 0.253863
H37   H     H_    0.814083 0.678511 0.334230 0.191678
C69   C     C_1   0.348882 0.595567 0.972539 0.346259
N9    N     N_1   0.441748 0.612124 0.960439 -0.262053
C70   C     C_1   0.102375 0.735622 0.762007 0.283399
N10   N     N_1   0.138183 0.826031 0.774717 -0.269428
C71   C     C_3   0.906809 0.283207 0.697573 -0.461509
C72   C     C_3   0.775026 0.220484 0.710200 -0.744991
H38   H     H_    0.769576 0.199201 0.758424 0.250815
H39   H     H_    0.726373 0.275503 0.689851 0.265102
H40   H     H_    0.730435 0.138941 0.691631 0.255859
H41   H     H_    0.907957 0.284725 0.650302 0.193645
H42   H     H_    0.957158 0.232828 0.723719 0.211776

loop_
_geom_bond_atom_site_label_1
_geom_bond_atom_site_label_2
_ccdc_geom_bond_type
C60   H27   S    
C30   C32   A    
C55   C56   A    
C58   H18   S    
C46   N4    A    
C41   C42   A    
C35   C36   A    
C50   H13   S    
C69   N9    T    
C8    C56   A    
C57   H22   S    
C7    C8    A    
C53   C54   A    
C1    O5    A    
C18   H17   S    
Cu1   O10   S    
C12   O6    A    
C45   N1    A    
C18   C24   A    
C28   C29   A    
C67   H37   S    
C5    C6    A    
C16   C17   A    
C52   C64   S    
C71   H42   S    
C15   C16   A    
C10   O4    S    
C42   H12   S    
C62   N6    T    
C61   H25   S    
C53   O2    S    
C18   C19   A    
C25   H5    S    
C23   C26   S    
C41   C67   S    
C63   N7    T    
C15   C71   S    
C47   C48   A    
C45   C56   A    
C27   C39   A    
C71   C72   S    
C40   H9    S    
C72   H40   S    
C7    C69   S    
C44   C47   A    
C9    O3    S    
C65   H30   S    
C20   C34   S    
C58   H19   S    
C23   O8    A    
C21   C22   A    
Cu1   O1    S    
C52   N3    A    
Cu2   O7    S    
C64   C65   S    
C10   N2    A    
C44   C46   A    
C57   H21   S    
C2    C57   S    
C8    H14   S    
C60   C61   S    
C21   H2    S    
C2    C54   A    
C26   C38   A    
C47   C51   A    
C19   H1    S    
C71   H41   S    
C40   C52   A    
C27   C60   S    
Cu1   O8    S    
C28   H8    S    
C43   C44   A    
C34   O11   A    
C41   N4    A    
C29   C30   A    
Cu2   O5    S    
C25   C38   A    
C59   N5    T    
C30   C31   A    
C17   N2    S    
C9    N2    A    
C32   C37   A    
C61   H24   S    
Cu2   O11   S    
C67   C68   S    
Cu2   N4    S    
C29   H7    S    
C48   C49   A    
C12   C14   S    
C58   H20   S    
C23   O9    A    
C36   C63   S    
C72   H38   S    
C16   H16   S    
C53   N1    A    
C42   C43   A    
C68   H34   S    
C3    C4    A    
C11   C70   S    
C37   H6    S    
C65   H28   S    
C60   H26   S    
C40   C48   A    
C54   C55   A    
C11   C17   A    
C22   C59   S    
C31   C36   A    
Cu1   N3    S    
C5    C55   A    
C24   N1    S    
C13   H15   S    
C4    C5    A    
Cu2   O9    S    
C6    C10   A    
C66   N8    T    
C26   C37   A    
C6    C7    A    
C3    C62   S    
C46   C50   A    
C12   O7    A    
C64   H31   S    
C32   C33   A    
C38   H3    S    
C19   C20   A    
C70   N10   T    
C68   H33   S    
C51   N3    A    
C67   H36   S    
C64   H32   S    
C11   C13   A    
Cu1   Cu2   S    
C49   C66   S    
C68   H35   S    
C57   C58   S    
C33   C35   A    
C31   C39   A    
C2    C3    A    
C35   H4    S    
C22   C24   A    
C51   H10   S    
C61   H23   S    
C45   O12   S    
C34   O10   A    
C1    C39   S    
C20   C21   A    
C43   H11   S    
C49   C50   A    
C27   C28   A    
C72   H39   S    
C1    O1    A    
C14   C15   A    
C4    C9    A    
C13   C14   A    
Cu1   O6    S    
C25   C33   A    
C65   H29   S    
