data_mof_unit_58776.cif
_audit_creation_date              2012-12-10T18:11:42-0500
_audit_creation_method            fapswitch 2.2
_symmetry_space_group_name_H-M    P1
_symmetry_Int_Tables_number       1
_space_group_crystal_system       triclinic
_cell_length_a                    10.486102
_cell_length_b                    12.627911
_cell_length_c                    13.067454
_cell_angle_alpha                 82.396909
_cell_angle_beta                  90.543252
_cell_angle_gamma                 102.592629
_cell_volume                      1673.55418079

loop_
_atom_site_label
_atom_site_type_symbol
_atom_type_description
_atom_site_fract_x
_atom_site_fract_y
_atom_site_fract_z
_atom_type_partial_charge
C1    C     C_R   0.488396 0.438934 0.691405 0.860376
C2    C     C_3   0.062914 0.579444 0.427771 -0.183136
C3    C     C_3   0.986917 0.598632 0.521736 -0.114714
C4    C     C_3   0.878087 0.502261 0.500719 0.011936
C5    C     C_R   0.729680 0.681789 0.077911 0.657401
C6    C     C_R   0.555856 0.596525 0.201551 -0.137758
C7    C     C_R   0.381970 0.306775 0.837100 -0.249275
C8    C     C_R   0.350184 0.280279 0.942287 0.009795
C9    C     C_R   0.409826 0.352447 0.010092 -0.242123
C10   C     C_R   0.504982 0.448454 0.974158 0.109960
C11   C     C_R   0.550239 0.463484 0.871695 0.095286
C12   C     C_R   0.742365 0.500857 0.500368 0.853546
C13   C     C_R   0.557132 0.529343 0.037293 0.022892
C14   C     C_R   0.672237 0.611083 0.006134 -0.060261
C15   C     C_R   0.727280 0.615369 0.906634 -0.043038
C16   C     C_R   0.664993 0.542314 0.840941 -0.282174
C17   C     C_R   0.495579 0.530676 0.130990 -0.235478
C18   C     C_R   0.671653 0.673467 0.174958 -0.276852
C19   C     C_R   0.478351 0.399751 0.801517 -0.124167
C20   C     C_R   0.317183 0.087479 0.347491 -0.266394
C21   C     C_R   0.656466 0.800649 0.628375 0.034904
C22   C     C_R   0.690185 0.905690 0.655506 -0.214351
C23   C     C_R   0.517866 0.560924 0.308821 0.885845
C24   C     C_R   0.630621 0.986553 0.607137 -0.192422
C25   C     C_R   0.537214 0.962792 0.530088 0.019991
C26   C     C_R   0.507239 0.854553 0.504359 0.233879
C27   C     C_R   0.473293 0.041829 0.477366 -0.008556
C28   C     C_R   0.381397 0.011132 0.400122 0.172344
C29   C     C_R   0.354895 0.904757 0.375630 -0.268694
C30   C     C_R   0.417521 0.827940 0.426643 -0.191946
C31   C     C_R   0.496566 0.150844 0.497775 -0.037565
C32   C     C_R   0.344861 0.193757 0.371129 0.024582
C33   C     C_R   0.257624 0.499147 0.499807 0.859288
C34   C     C_3   0.937120 0.420895 0.572653 -0.181985
C35   C     C_3   0.048637 0.517171 0.593625 -0.138451
C36   C     C_3   0.121931 0.497996 0.499669 0.006120
C37   C     C_3   0.013064 0.401674 0.478680 -0.136285
C38   C     C_3   0.951403 0.483166 0.406775 -0.161710
H1    H     H_    0.092889 0.530699 0.669650 0.169242
H2    H     H_    0.402464 0.476730 0.153706 0.153432
H3    H     H_    0.328658 0.257176 0.782350 0.194661
H4    H     H_    0.384169 0.330346 0.091063 0.177648
H5    H     H_    0.707706 0.547067 0.764809 0.161344
H6    H     H_    0.296497 0.254092 0.330972 0.142625
H7    H     H_    0.285663 0.880785 0.316272 0.163877
H8    H     H_    0.246561 0.065119 0.288725 0.177865
H9    H     H_    0.564208 0.181810 0.554836 0.128588
H10   H     H_    0.702691 0.737534 0.665574 0.135906
H11   H     H_    0.881111 0.356713 0.631722 0.143656
H12   H     H_    0.660279 0.066485 0.631266 0.143151
H13   H     H_    0.762470 0.924860 0.713624 0.192930
H14   H     H_    0.394423 0.748344 0.402996 0.209574
H15   H     H_    0.027691 0.321433 0.461120 0.152567
H16   H     H_    0.907028 0.469757 0.330764 0.149812
H17   H     H_    0.118945 0.643745 0.368801 0.141660
H18   H     H_    0.972215 0.678824 0.539392 0.160977
H19   H     H_    0.722133 0.721706 0.231792 0.183518
N1    N     N_R   0.432930 0.222190 0.444670 -0.107891
N2    N     N_R   0.566370 0.776980 0.554790 -0.133078
O1    O     O_R   0.467970 0.366730 0.627150 -0.613916
O2    O     O_R   0.510820 0.544830 0.662520 -0.607409
O3    O     O_R   0.664630 0.410960 0.482340 -0.616733
O4    O     O_R   0.707470 0.589060 0.517710 -0.633355
O5    O     O_R   0.489180 0.455170 0.337480 -0.608962
O6    O     O_R   0.532030 0.633270 0.372850 -0.635084
O7    O     O_R   0.292530 0.410940 0.482290 -0.623286
O8    O     O_R   0.335370 0.589040 0.517660 -0.630223
Zn1   Zn    Zn3+2 0.471390 0.381080 0.476380 0.944014
Zn2   Zn    Zn3+2 0.528610 0.618920 0.523620 0.935320
C39   C     C_2   0.250498 0.180348 0.980860 0.934205
O9    O     O_2   0.200138 0.116838 0.921457 -0.613046
O10   O     O_R   0.213673 0.158361 0.085432 -0.835974
H20   H     H_    0.144953 0.088028 0.102069 0.353554
C40   C     C_2   0.844646 0.697510 0.864687 0.983506
O11   O     O_2   0.932801 0.667783 0.823723 -0.645355
O12   O     O_R   0.851436 0.808995 0.866478 -0.754108
H21   H     H_    0.935757 0.856603 0.834346 0.354761
F1    F     F_    0.847613 0.751638 0.060277 -0.640785

loop_
_geom_bond_atom_site_label_1
_geom_bond_atom_site_label_2
_ccdc_geom_bond_type
O7    Zn1   S    
C34   C37   S    
C35   C36   S    
C32   N1    A    
C7    C8    A    
C11   C19   A    
C9    H4    S    
C29   C30   A    
C40   O12   S    
O5    Zn1   S    
C31   N1    A    
C28   C29   A    
C21   N2    A    
C2    H17   S    
O2    Zn2   S    
C15   C16   A    
C33   C36   S    
C34   C35   S    
C11   C16   A    
O4    Zn2   S    
C8    C9    A    
C39   O9    D    
C4    C12   S    
C9    C10   A    
C21   H10   S    
C37   H15   S    
C31   H9    S    
C21   C22   A    
C33   O7    A    
C24   H12   S    
C6    C18   A    
C4    C34   S    
C1    C19   S    
C40   O11   D    
C27   C31   A    
O12   H21   S    
C1    O1    A    
C12   O4    A    
C5    C18   A    
C20   C28   A    
C25   C26   A    
C29   H7    S    
O8    Zn2   S    
C17   H2    S    
C35   H1    S    
C37   C38   S    
C12   O3    A    
C3    H18   S    
C2    C38   S    
C18   H19   S    
C38   H16   S    
C3    C35   S    
C32   H6    S    
C24   C25   A    
C16   H5    S    
C5    C14   A    
N2    Zn2   S    
N1    Zn1   S    
C23   O5    A    
C4    C38   S    
C26   C30   A    
C7    C19   A    
C22   C24   A    
C3    C4    S    
C33   O8    A    
C20   C32   A    
C2    C36   S    
C6    C17   A    
C30   H14   S    
C36   C37   S    
C34   H11   S    
O10   H20   S    
C10   C13   A    
C1    O2    A    
C13   C17   A    
C25   C27   A    
C8    C39   S    
O3    Zn1   S    
C23   O6    A    
C2    C3    S    
O6    Zn2   S    
C6    C23   S    
C7    H3    S    
C10   C11   A    
C15   C40   S    
O1    Zn1   S    
C27   C28   A    
C14   C15   A    
C26   N2    A    
C39   O10   S    
C5    F1    S    
C13   C14   A    
C20   H8    S    
C22   H13   S    
