data_mof_unit_62466.cif
_audit_creation_date              2012-12-10T18:39:30-0500
_audit_creation_method            fapswitch 2.2
_symmetry_space_group_name_H-M    P1
_symmetry_Int_Tables_number       1
_space_group_crystal_system       triclinic
_cell_length_a                    15.780236
_cell_length_b                    11.574794
_cell_length_c                    10.788187
_cell_angle_alpha                 89.99996
_cell_angle_beta                  90.030357
_cell_angle_gamma                 89.999935
_cell_volume                      1970.49423825

loop_
_atom_site_label
_atom_site_type_symbol
_atom_type_description
_atom_site_fract_x
_atom_site_fract_y
_atom_site_fract_z
_atom_type_partial_charge
C1    C     C_R   0.500000 0.281185 0.500000 0.914975
C2    C     C_R   0.337768 0.499992 0.499962 0.905245
C3    C     C_R   0.662232 0.499992 0.500038 0.905257
C4    C     C_1   0.500000 0.059162 0.500000 0.018738
C5    C     C_1   0.500000 0.161053 0.500000 -0.167576
C6    C     C_1   0.500000 0.500010 0.069786 0.050283
C7    C     C_1   0.500000 0.500010 0.930214 0.050288
C8    C     C_R   0.500000 0.718816 0.500000 0.903442
C9    C     C_3   0.049544 0.430312 0.618557 0.330285
C10   C     C_3   0.049215 0.432757 0.378460 0.198905
C11   C     C_3   0.950785 0.432989 0.621679 0.198902
C12   C     C_1   0.750883 0.497648 0.500185 -0.166176
C13   C     C_3   0.950456 0.430087 0.381588 0.330292
C14   C     C_1   0.500000 0.940841 0.500000 0.014956
C15   C     C_1   0.500000 0.838950 0.500000 -0.176281
C16   C     C_1   0.249117 0.497647 0.499815 -0.166173
C17   C     C_3   0.082719 0.491765 0.499086 0.070072
C18   C     C_3   0.917281 0.491768 0.500924 0.070072
C19   C     C_3   0.951062 0.617732 0.499246 -0.585457
C20   C     C_3   0.048938 0.617733 0.500488 -0.585460
C21   C     C_1   0.825975 0.495003 0.500499 0.010026
C22   C     C_1   0.174025 0.495001 0.499505 0.010026
H1    H     H_    0.071951 0.663959 0.584547 0.216291
H2    H     H_    0.942681 0.266137 0.427940 0.408224
H3    H     H_    0.057317 0.266274 0.572566 0.408228
H4    H     H_    0.140210 0.330955 0.323650 0.348863
H5    H     H_    0.072892 0.666230 0.418529 0.219536
H6    H     H_    0.927108 0.666386 0.581099 0.219538
H7    H     H_    0.928049 0.663799 0.415086 0.216288
H8    H     H_    0.068216 0.487250 0.297488 0.079398
H9    H     H_    0.072214 0.481338 0.699645 0.104735
H10   H     H_    0.927785 0.480959 0.300388 0.104748
H11   H     H_    0.931785 0.487636 0.702532 0.079377
H12   H     H_    0.859789 0.331292 0.676714 0.348865
N1    N     N_1   0.500000 0.500010 0.180630 -0.076479
N2    N     N_1   0.500000 0.500010 0.819370 -0.076477
O1    O     O_R   0.500000 0.334450 0.602530 -0.605706
O2    O     O_3   0.916269 0.318405 0.366565 -0.692995
O3    O     O_3   0.083730 0.318659 0.633824 -0.693000
O4    O     O_3   0.083404 0.321487 0.361828 -0.740228
O5    O     O_R   0.500000 0.334450 0.397470 -0.605711
O6    O     O_R   0.377140 0.500000 0.602580 -0.602605
O7    O     O_R   0.377140 0.500000 0.397420 -0.614496
O8    O     O_R   0.622860 0.500000 0.602580 -0.614493
O9    O     O_R   0.622860 0.500000 0.397420 -0.602624
O10   O     O_R   0.500000 0.665550 0.602530 -0.609026
O11   O     O_R   0.500000 0.665550 0.397470 -0.609024
O12   O     O_3   0.916595 0.321752 0.638556 -0.740230
Zn1   Zn    Zn3+2 0.500000 0.500000 0.636920 0.997186
Zn2   Zn    Zn3+2 0.500000 0.500000 0.363080 0.997175

loop_
_geom_bond_atom_site_label_1
_geom_bond_atom_site_label_2
_ccdc_geom_bond_type
O8    Zn1   S    
H2    O2    S    
O7    Zn2   S    
C6    C7    S    
C20   H5    S    
O11   Zn2   S    
C18   C21   S    
O1    Zn1   S    
C7    N2    T    
C10   H8    S    
C13   H10   S    
C19   C20   S    
C20   H1    S    
C1    O1    A    
C2    O7    A    
N1    Zn2   S    
C11   O12   S    
C8    O11   A    
C11   C18   S    
H3    O3    S    
C19   H6    S    
C9    C11   S    
O10   Zn1   S    
H4    O4    S    
C13   O2    S    
C13   C18   S    
C2    O6    A    
C1    C5    S    
O9    Zn2   S    
C9    C17   S    
C8    C15   S    
C4    C14   S    
C8    O10   A    
C3    O8    A    
H12   O12   S    
C9    H9    S    
O6    Zn1   S    
C19   H7    S    
O5    Zn2   S    
C11   H11   S    
C17   C20   S    
C2    C16   S    
C6    N1    T    
C10   O4    S    
C18   C19   S    
C1    O5    A    
C14   C15   T    
C16   C22   T    
C3    C12   S    
C10   C17   S    
C12   C21   T    
C3    O9    A    
C9    O3    S    
N2    Zn1   S    
C17   C22   S    
C4    C5    T    
C10   C13   S    
