data_mof_unit_54513.cif
_audit_creation_date              2012-12-11T16:34:37-0500
_audit_creation_method            fapswitch 2.2
_symmetry_space_group_name_H-M    P1
_symmetry_Int_Tables_number       1
_space_group_crystal_system       triclinic
_cell_length_a                    8.326809
_cell_length_b                    17.444856
_cell_length_c                    26.897815
_cell_angle_alpha                 95.911353
_cell_angle_beta                  92.33443
_cell_angle_gamma                 83.861915
_cell_volume                      3862.37392124

loop_
_atom_site_label
_atom_site_type_symbol
_atom_type_description
_atom_site_fract_x
_atom_site_fract_y
_atom_site_fract_z
_atom_type_partial_charge
Ba1   Ba    Ba6+2 0.856110 0.463800 0.523550 1.660464
Ba2   Ba    Ba6+2 0.333710 0.536130 0.476450 1.681033
C1    C     C_3   0.731222 0.172131 0.627381 -0.213204
C2    C     C_R   0.885909 0.559480 0.177490 0.584120
C3    C     C_2   0.735184 0.509637 0.270810 -0.119997
C4    C     C_3   0.179203 0.263253 0.665779 0.702138
C5    C     C_3   0.696731 0.506907 0.325535 -0.103747
C6    C     C_1   0.984923 0.484220 0.342160 0.058922
C7    C     C_2   0.022277 0.482922 0.294545 -0.180167
C8    C     C_2   0.890498 0.497136 0.255710 0.217397
C9    C     C_R   0.003762 0.491436 0.101163 -0.099875
C10   C     C_R   0.045876 0.424515 0.126908 -0.102155
C11   C     C_R   0.118925 0.355718 0.099146 0.052910
C12   C     C_3   0.698498 0.260236 0.622553 0.315629
C13   C     C_R   0.922384 0.558493 0.126633 -0.016814
C14   C     C_2   0.845702 0.516890 0.358725 0.139031
C15   C     C_2   0.352273 0.481252 0.640320 -0.201022
C16   C     C_3   0.060079 0.283039 0.709071 0.253136
C17   C     C_R   0.194874 0.432719 0.976647 -0.070760
C18   C     C_R   0.026760 0.556462 0.971851 0.041075
C19   C     C_R   0.130809 0.494402 0.948791 0.023820
C20   C     C_R   0.324684 0.380875 0.955594 0.380573
C21   C     C_R   0.358823 0.379634 0.905061 -0.038561
C22   C     C_R   0.282559 0.435269 0.875391 -0.110260
C23   C     C_3   0.571954 0.657069 0.636315 0.268786
C24   C     C_R   0.173243 0.494586 0.897752 -0.089871
C25   C     C_R   0.107387 0.554362 0.869259 -0.010649
C26   C     C_R   0.151575 0.553963 0.818822 0.570182
C27   C     C_R   0.319388 0.434453 0.824381 0.660155
C28   C     C_3   0.204463 0.301609 0.417708 0.283203
C29   C     C_2   0.452951 0.476377 0.729318 -0.117507
C30   C     C_3   0.497872 0.480711 0.675679 -0.071833
C31   C     C_1   0.211033 0.513700 0.656434 0.073344
C32   C     C_2   0.170405 0.512754 0.703748 -0.074681
C33   C     C_2   0.297229 0.493322 0.743652 0.221161
C34   C     C_3   0.674005 0.690281 0.680644 -0.213012
C35   C     C_R   0.130686 0.426597 0.024675 -0.077158
C36   C     C_R   0.043728 0.492150 0.049913 0.020901
C37   C     C_R   0.994276 0.558205 0.023828 0.043615
C38   C     C_R   0.144548 0.355984 0.047418 0.369162
C39   C     C_R   0.879476 0.624026 0.100915 -0.061964
C40   C     C_3   0.238511 0.215010 0.402756 -0.401275
C41   C     C_R   0.960126 0.614973 0.942014 -0.105350
C42   C     C_R   0.999621 0.613830 0.891964 -0.063623
C43   C     C_R   0.913867 0.623910 0.050750 -0.105446
C44   C     C_R   0.409690 0.279594 0.519957 -0.264260
C45   C     C_3   0.056056 0.701321 0.340472 0.352992
C46   C     C_R   0.549223 0.255160 0.493533 0.035938
C47   C     C_R   0.606910 0.176431 0.487654 -0.139537
C48   C     C_R   0.523183 0.121878 0.507816 0.001961
C49   C     C_R   0.379508 0.146706 0.533446 -0.158169
C50   C     C_R   0.322874 0.225921 0.539114 0.038206
C51   C     C_R   0.588990 0.839255 0.514188 -0.002514
C52   C     C_3   0.995651 0.699310 0.581749 0.323515
C53   C     C_R   0.638091 0.758493 0.508384 0.032661
C54   C     C_R   0.870579 0.779571 0.461794 -0.013780
C55   C     C_R   0.821229 0.859439 0.465636 -0.158567
C56   C     C_3   0.084344 0.721188 0.288042 -0.344757
C57   C     C_R   0.679966 0.889550 0.491195 0.006844
C58   C     C_1   0.630927 0.972346 0.495458 -0.000816
C59   C     C_1   0.582923 0.040617 0.500784 -0.009017
C60   C     C_R   0.775351 0.730022 0.481471 -0.277723
C61   C     C_3   0.988363 0.786691 0.594361 -0.397851
C62   C     C_3   0.769976 0.271997 0.376225 0.293425
C63   C     C_3   0.732992 0.237219 0.322823 -0.198012
C64   C     C_3   0.694434 0.298312 0.285168 -0.193996
C65   C     C_3   0.522127 0.338918 0.288862 -0.341924
C66   C     C_3   0.696804 0.639455 0.724122 -0.272608
C67   C     C_3   0.572173 0.725304 0.356242 0.746959
C68   C     C_3   0.553323 0.653051 0.758736 -0.401773
C69   C     C_3   0.766891 0.146910 0.680100 -0.171671
C70   C     C_3   0.908160 0.083597 0.680978 -0.451511
C71   C     C_3   0.171838 0.280460 0.122756 -0.117346
C72   C     C_3   0.331155 0.285983 0.152964 -0.382668
C73   C     C_3   0.314630 0.199675 0.679660 -0.261136
C74   C     C_3   0.394325 0.213852 0.731996 -0.366176
C75   C     C_3   0.445723 0.872389 0.545919 -0.171114
C76   C     C_3   0.501089 0.909279 0.596755 -0.415882
C77   C     C_3   0.619682 0.792498 0.329792 -0.348468
C78   C     C_R   0.005648 0.428455 0.178615 0.593952
H1    H     H_    0.806906 0.277476 0.605879 0.116351
H2    H     H_    0.815742 0.222819 0.398180 -0.011143
H3    H     H_    0.863854 0.312067 0.375486 0.046229
H4    H     H_    0.832012 0.148932 0.602398 0.124009
H5    H     H_    0.842743 0.199095 0.310018 0.060296
H6    H     H_    0.632621 0.199617 0.322879 0.097786
H7    H     H_    0.596763 0.268048 0.595526 0.002857
H8    H     H_    0.627912 0.142338 0.610618 0.061136
H9    H     H_    0.458785 0.639426 0.649901 0.009934
H10   H     H_    0.639546 0.605259 0.616999 0.059042
H11   H     H_    0.619273 0.749208 0.694519 0.128061
H12   H     H_    0.334879 0.204236 0.374731 0.121020
H13   H     H_    0.794537 0.697435 0.667012 0.118001
H14   H     H_    0.135581 0.648029 0.346754 0.109662
H15   H     H_    0.928302 0.689901 0.342851 -0.038634
H16   H     H_    0.212191 0.732417 0.284885 0.155276
H17   H     H_    0.058610 0.671931 0.260389 0.112749
H18   H     H_    0.004013 0.773551 0.279611 0.114892
H19   H     H_    0.678126 0.703810 0.379375 -0.052801
H20   H     H_    0.666910 0.836962 0.357497 0.049382
H21   H     H_    0.513095 0.819470 0.309397 0.133534
H22   H     H_    0.714750 0.771342 0.302501 0.099827
H23   H     H_    0.278249 0.184203 0.435747 0.073975
H24   H     H_    0.146540 0.469522 0.283320 0.127485
H25   H     H_    0.549767 0.466242 0.756844 0.107229
H26   H     H_    0.452968 0.336979 0.889787 0.145075
H27   H     H_    0.636681 0.516896 0.243434 0.101401
H28   H     H_    0.818431 0.676420 0.119662 0.121034
H29   H     H_    0.873639 0.661851 0.956042 0.068552
H30   H     H_    0.944805 0.660180 0.870987 0.116047
H31   H     H_    0.044366 0.523833 0.713495 0.108177
H32   H     H_    0.879694 0.677351 0.034357 0.069083
H33   H     H_    0.364452 0.455381 0.602000 0.085752
H34   H     H_    0.127248 0.191333 0.386354 0.111136
H35   H     H_    0.311053 0.104936 0.547949 0.071918
H36   H     H_    0.894530 0.898082 0.449918 0.085091
H37   H     H_    0.715029 0.157621 0.466786 0.072066
H38   H     H_    0.364851 0.340393 0.523759 0.063751
H39   H     H_    0.940243 0.303574 0.694033 0.101197
H40   H     H_    0.815703 0.668851 0.479138 0.098220
H41   H     H_    0.043016 0.229921 0.726833 0.016529
H42   H     H_    0.318612 0.325484 0.430044 0.031689
H43   H     H_    0.117671 0.310956 0.448530 0.059639
H44   H     H_    0.431690 0.295698 0.286929 0.138998
H45   H     H_    0.872147 0.682955 0.573595 -0.038078
H46   H     H_    0.508761 0.377287 0.324279 0.171521
H47   H     H_    0.496090 0.375430 0.257111 0.094192
H48   H     H_    0.783765 0.341829 0.290041 0.110086
H49   H     H_    0.707208 0.268583 0.246697 0.125232
H50   H     H_    0.541255 0.713807 0.776237 0.144018
H51   H     H_    0.439323 0.641719 0.737840 0.143796
H52   H     H_    0.572955 0.613865 0.788909 0.130663
H53   H     H_    0.718444 0.577470 0.709900 0.131035
H54   H     H_    0.806190 0.654342 0.746539 0.173502
H55   H     H_    0.877551 0.030062 0.658058 0.136290
H56   H     H_    0.071096 0.682772 0.548506 0.072007
H57   H     H_    0.016300 0.102831 0.665708 0.148111
H58   H     H_    0.935491 0.070067 0.719897 0.133520
H59   H     H_    0.788982 0.196183 0.707972 0.147842
H60   H     H_    0.661005 0.120860 0.691579 0.119301
H61   H     H_    0.043950 0.387260 0.743595 0.319570
H62   H     H_    0.480728 0.786303 0.414519 0.272052
H63   H     H_    0.324729 0.343636 0.682065 0.309447
H64   H     H_    0.431549 0.289810 0.127495 0.130179
H65   H     H_    0.324862 0.337706 0.180940 0.158528
H66   H     H_    0.359869 0.233025 0.172918 0.121637
H67   H     H_    0.910223 0.805131 0.626819 0.108904
H68   H     H_    0.075188 0.263673 0.145315 0.142445
H69   H     H_    0.192979 0.229696 0.094396 0.159037
H70   H     H_    0.434764 0.360250 0.018271 0.309890
H71   H     H_    0.126252 0.290439 0.985068 0.319794
H72   H     H_    0.470699 0.262668 0.733721 0.204079
H73   H     H_    0.304516 0.224805 0.762045 0.189032
H74   H     H_    0.470610 0.160895 0.741445 0.099006
H75   H     H_    0.265390 0.142802 0.677404 0.077483
H76   H     H_    0.408161 0.194307 0.651266 0.105113
H77   H     H_    0.779788 0.543231 0.425285 0.315915
H78   H     H_    0.938359 0.817232 0.562236 0.064125
H79   H     H_    0.396518 0.918358 0.622587 0.123676
H80   H     H_    0.601020 0.870396 0.613489 0.144850
H81   H     H_    0.545068 0.966942 0.592979 0.125450
H82   H     H_    0.367387 0.915768 0.526171 0.104505
H83   H     H_    0.366715 0.827794 0.552379 0.145897
H84   H     H_    0.111687 0.803623 0.603714 0.128241
N1    N     N_R   0.928419 0.495210 0.202972 -0.414971
N2    N     N_R   0.254821 0.493660 0.796264 -0.418500
O1    O     O_2   0.910880 0.540430 0.617910 -0.486211
O2    O     O_2   0.204830 0.773846 0.466783 -0.469600
O3    O     O_3   0.092722 0.763147 0.375300 -0.565199
O4    O     O_3   0.142880 0.540370 0.557740 -0.486773
O5    O     O_3   0.562610 0.408580 0.475460 -0.462585
O6    O     O_2   0.365880 0.685750 0.523280 -0.445784
O7    O     O_3   0.529693 0.717017 0.605828 -0.652080
O8    O     O_2   0.363497 0.551804 0.325856 -0.508394
O9    O     O_3   0.528151 0.667099 0.319703 -0.588511
O10   O     O_2   0.036183 0.372273 0.202037 -0.621757
O11   O     O_2   0.407896 0.380224 0.804931 -0.593207
O12   O     O_3   0.630569 0.314014 0.396517 -0.639821
O13   O     O_2   0.817067 0.618026 0.199305 -0.603388
O14   O     O_2   0.100155 0.608275 0.795389 -0.622888
O15   O     O_3   0.675650 0.402220 0.588450 -0.485480
O16   O     O_2   0.831327 0.429734 0.672821 -0.508117
O17   O     O_3   0.061772 0.663867 0.623239 -0.637184
O18   O     O_3   0.659755 0.308961 0.666826 -0.634517
O19   O     O_2   0.823810 0.314230 0.476690 -0.485284
O20   O     O_3   0.086630 0.363340 0.564170 -0.429299
O21   O     O_2   0.996237 0.226050 0.530238 -0.511917
O22   O     O_3   0.114328 0.337889 0.746065 -0.729632
O23   O     O_3   0.087751 0.231887 0.624078 -0.658887
O24   O     O_3   0.440196 0.751426 0.386437 -0.667852
O25   O     O_3   0.244935 0.330769 0.655290 -0.748468
O26   O     O_3   0.429509 0.334670 0.983682 -0.687485
O27   O     O_3   0.173126 0.285314 0.019191 -0.703777
O28   O     O_3   0.842030 0.567133 0.401502 -0.748717
O29   O     O_2   0.278810 0.459550 0.382060 -0.457634
O30   O     O_3   0.046820 0.459570 0.442260 -0.470877
O31   O     O_3   0.514050 0.597710 0.411540 -0.435014
O32   O     O_3   0.139831 0.336392 0.375929 -0.646827
O33   O     O_3   0.627090 0.591350 0.524530 -0.486726
O34   O     O_3   0.103080 0.636600 0.435820 -0.435417
P1    P     P_3+3 0.078810 0.562990 0.610370 0.996150
P2    P     P_3+3 0.645380 0.325580 0.462150 0.973274
P3    P     P_3+3 0.126139 0.262044 0.565251 0.980804
P4    P     P_3+3 0.110900 0.436950 0.389630 1.013981
P5    P     P_3+3 0.066545 0.737957 0.435592 1.013403
P6    P     P_3+3 0.664679 0.406082 0.653056 0.939449
P7    P     P_3+3 0.546525 0.687699 0.541709 0.943435
P8    P     P_3+3 0.525771 0.579439 0.346214 1.037876

loop_
_geom_bond_atom_site_label_1
_geom_bond_atom_site_label_2
_ccdc_geom_bond_type
C75   H83   S    
C19   C24   A    
O34   P5    S    
C39   H28   S    
C44   C50   A    
C61   H78   S    
Ba2   O31   S    
C71   C72   S    
C74   H73   S    
C72   H65   S    
C1    C69   S    
C56   H18   S    
C41   C42   A    
Ba1   P1    S    
C40   H23   S    
C16   O22   S    
C51   C57   A    
C43   H32   S    
C15   H33   S    
C63   H6    S    
Ba1   O20   S    
O23   P3    S    
C52   O17   S    
C24   C25   A    
Ba2   O34   S    
C13   C39   A    
C66   H53   S    
C17   C19   A    
C22   C24   A    
C12   H7    S    
Ba1   Ba2   S    
C35   C38   A    
C7    H24   S    
O3    P5    S    
C36   C37   A    
C55   C57   A    
C52   C61   S    
C74   H72   S    
H62   O24   S    
C53   C60   A    
O21   P3    D    
Ba1   O4    S    
C68   H50   S    
C33   N2    S    
O18   P6    S    
C54   C55   A    
C44   H38   S    
C32   C33   S    
C31   P1    S    
C56   H16   S    
C22   C27   A    
O4    P1    S    
C17   C35   A    
C9    C13   A    
C34   H13   S    
C40   H34   S    
C47   H37   S    
C54   P5    S    
C28   H42   S    
C6    C7    D    
C11   C38   A    
C4    O25   S    
C21   C22   A    
C77   H22   S    
O30   P4    S    
C7    C8    S    
C60   H40   S    
C26   N2    Am   
Ba2   O5    S    
C37   C43   A    
C64   H49   S    
C70   H58   S    
C64   C65   S    
C57   C58   S    
C6    C14   D    
C27   O11   D    
C65   H44   S    
O8    P8    D    
C32   H31   S    
C29   H25   S    
Ba1   O33   S    
C56   H17   S    
C15   C31   D    
O9    P8    S    
Ba1   P2    S    
C73   H76   S    
C61   H67   S    
C45   O3    S    
C31   C32   D    
C55   H36   S    
C38   O27   S    
C51   C53   A    
C61   H84   S    
C4    C16   S    
C52   H45   S    
C44   C46   A    
O19   P2    D    
C71   H68   S    
C49   C50   A    
O17   P1    S    
C77   H20   S    
C4    C73   S    
C17   C20   A    
Ba2   P4    S    
C78   O10   D    
O33   P7    S    
C65   H46   S    
C3    C5    S    
C18   C37   A    
Ba1   O15   S    
C70   H55   S    
C69   H59   S    
O29   P4    D    
C23   C34   S    
C75   C76   S    
C21   H26   S    
Ba1   O5    S    
C49   H35   S    
Ba2   O33   S    
C58   C59   T    
O16   P6    D    
Ba2   O30   S    
C27   N2    Am   
C9    C36   A    
C51   C75   S    
C73   C74   S    
C62   H3    S    
C35   C36   A    
C65   H47   S    
C62   O12   S    
C29   C30   S    
C6    P4    S    
C52   H56   S    
Ba1   O30   S    
C68   H52   S    
C48   C49   A    
C23   H10   S    
O7    P7    S    
H61   O22   S    
C18   C19   A    
C28   H43   S    
C26   O14   D    
C62   H2    S    
C54   C60   A    
C1    C12   S    
Ba2   O4    S    
H77   O28   S    
C67   H19   S    
C34   H11   S    
C76   H80   S    
C70   H57   S    
C28   O32   S    
C11   C71   S    
C41   H29   S    
C47   C48   A    
O12   P2    S    
O32   P4    S    
C46   P2    S    
C29   C33   D    
C67   C77   S    
C2    O13   D    
C20   O26   S    
C78   N1    Am   
C25   C26   A    
C18   C41   A    
C3    H27   S    
C75   H82   S    
C48   C59   S    
C72   H64   S    
C46   C47   A    
H63   O25   S    
C71   H69   S    
C1    H8    S    
O2    P5    D    
C72   H66   S    
O6    P7    D    
C5    C14   S    
C5    P8    S    
C67   O24   S    
C12   O18   S    
C9    C10   A    
C34   C66   S    
C73   H75   S    
C63   H5    S    
C69   H60   S    
Ba2   O29   S    
Ba1   O19   S    
C53   P7    S    
C23   H9    S    
C45   H15   S    
C50   P3    S    
C62   C63   S    
H71   O27   S    
C2    C13   A    
C66   H54   S    
O15   P6    S    
C3    C8    D    
C39   C43   A    
C45   C56   S    
C77   H21   S    
O5    P2    S    
C8    N1    S    
C10   C78   A    
C4    O23   S    
C74   H74   S    
C68   H51   S    
C45   H14   S    
C64   H48   S    
O20   P3    S    
C40   H12   S    
O1    P1    D    
C14   O28   S    
C16   H41   S    
H70   O26   S    
C23   O7    S    
C76   H79   S    
C69   C70   S    
C10   C11   A    
C76   H81   S    
C66   C68   S    
C63   C64   S    
C1    H4    S    
C15   C30   S    
Ba1   O1    S    
C20   C21   A    
C28   C40   S    
O31   P8    S    
C67   O9    S    
C12   H1    S    
C2    N1    Am   
C25   C42   A    
C30   P6    S    
C16   H39   S    
Ba2   O6    S    
C42   H30   S    
