data_mof_unit_11964.cif
_audit_creation_date              2013-03-05T16:04:34-0500
_audit_creation_method            fapswitch 2.2
_symmetry_space_group_name_H-M    P1
_symmetry_Int_Tables_number       1
_space_group_crystal_system       triclinic
_cell_length_a                    8.458206
_cell_length_b                    14.509461
_cell_length_c                    19.039473
_cell_angle_alpha                 98.056296
_cell_angle_beta                  91.16218
_cell_angle_gamma                 92.015223
_cell_volume                      2311.35879108

loop_
_atom_site_label
_atom_site_type_symbol
_atom_site_description
_atom_site_fract_x
_atom_site_fract_y
_atom_site_fract_z
_atom_type_partial_charge
P1    P     P_3+3 0.061800 0.409390 0.339760 0.425801
O1    O     O_2   0.887710 0.436190 0.327560 -0.409140
O2    O     O_3   0.135370 0.443490 0.416520 -0.403234
O3    O     O_3   0.634420 0.609440 0.364670 -0.347100
O4    O     O_2   0.717043 0.519787 0.243326 -0.389233
O5    O     O_3   0.095984 0.293403 0.298980 -0.629831
O6    O     O_3   0.686457 0.697186 0.240943 -0.544040
C1    C     C_3   0.573952 0.834706 0.194939 -0.185126
P2    P     P_3+3 0.622760 0.718740 0.547830 0.436367
P3    P     P_3+3 0.079075 0.778854 0.400211 0.435284
O7    O     O_2   0.795290 0.730930 0.525800 -0.386579
O8    O     O_3   0.044470 0.660110 0.398750 -0.374054
O9    O     O_2   0.964467 0.826787 0.454569 -0.382092
O10   O     O_3   0.638518 0.744350 0.640981 -0.598225
O11   O     O_3   0.010514 0.810362 0.320278 -0.523733
C2    C     C_3   0.084554 0.757623 0.263749 0.378493
H1    H     H_    0.047489 0.682688 0.260052 0.118850
H2    H     H_    0.214474 0.766050 0.270531 0.008533
C3    C     C_3   0.032941 0.794224 0.196059 -0.610127
H3    H     H_    0.907037 0.775563 0.185112 0.227477
H4    H     H_    0.051465 0.871130 0.202860 0.197588
C4    C     C_3   0.105573 0.765598 0.632673 0.272598
H5    H     H_    0.976819 0.753355 0.623400 0.106832
C5    C     C_3   0.140634 0.870724 0.662059 -0.149057
Ba1   Ba    Ba6+2 0.843240 0.541620 0.463500 1.521779
C6    C     C_3   0.013786 0.216762 0.320829 0.508839
C7    C     C_3   0.038028 0.129852 0.265220 -0.635931
H6    H     H_    0.989760 0.142080 0.212711 0.211932
H7    H     H_    0.165657 0.117461 0.258686 0.196066
C8    C     C_3   0.685014 0.666400 0.671342 0.369651
H8    H     H_    0.773528 0.626544 0.638611 0.073324
H9    H     H_    0.580495 0.619913 0.676046 0.138820
C9    C     C_3   0.760589 0.696799 0.745374 -0.718393
H10   H     H_    0.880626 0.727587 0.740614 0.209250
H11   H     H_    0.770897 0.635481 0.773313 0.161280
P4    P     P_3+3 0.127890 0.590690 0.660240 0.455367
O12   O     O_2   0.301980 0.563840 0.672490 -0.337574
O13   O     O_3   0.054330 0.556590 0.583490 -0.430735
O14   O     O_3   0.555270 0.390630 0.635330 -0.365397
O15   O     O_3   0.156101 0.711925 0.683697 -0.585848
P5    P     P_3+3 0.116787 0.220271 0.603895 0.481334
O16   O     O_3   0.637720 0.384870 0.467990 -0.400315
O17   O     O_3   0.145220 0.339960 0.601250 -0.345386
O18   O     O_2   0.258947 0.173352 0.565542 -0.375432
O19   O     O_3   0.153329 0.202204 0.691729 -0.491087
Ba2   Ba    Ba6+2 0.346570 0.458460 0.536510 1.543656
P6    P     P_3+3 0.606407 0.597483 0.272723 0.455998
C10   C     C_3   0.589943 0.774752 0.258281 0.368204
H12   H     H_    0.469425 0.752434 0.272104 -0.012011
O20   O     O_3   0.551980 0.615210 0.532020 -0.398977
C11   C     C_3   0.523890 0.304049 0.312243 0.360414
H13   H     H_    0.632462 0.346736 0.307110 0.110730
C12   C     C_3   0.472746 0.251632 0.239266 -0.567563
H14   H     H_    0.361787 0.211373 0.244209 0.209205
H15   H     H_    0.563424 0.200909 0.220595 0.173485
P7    P     P_3+3 0.569834 0.267979 0.446332 0.418418
O21   O     O_2   0.394410 0.269100 0.474240 -0.350216
O22   O     O_3   0.548408 0.233211 0.354419 -0.600553
C13   C     C_3   0.015808 0.220186 0.730514 0.348824
H16   H     H_    0.979723 0.292814 0.729305 0.052028
H17   H     H_    0.918507 0.170845 0.708647 0.011227
C14   C     C_3   0.044204 0.204058 0.807192 -0.639065
H18   H     H_    0.931348 0.209051 0.835832 0.142356
H19   H     H_    0.090181 0.133520 0.808495 0.201507
P8    P     P_3+3 0.575679 0.403246 0.727862 0.458390
C15   C     C_3   0.587835 0.227688 0.743140 0.422104
H20   H     H_    0.700802 0.249312 0.772539 0.011213
O23   O     O_2   0.459692 0.479267 0.755053 -0.374227
O24   O     O_3   0.483068 0.301658 0.750637 -0.473412
C16   C     C_3   0.512158 0.145988 0.775640 -0.569304
H21   H     H_    0.409479 0.114999 0.742005 0.241833
H22   H     H_    0.466481 0.171376 0.828859 0.200249
C17   C     C_R   0.999901 0.455359 0.052622 -0.015234
C18   C     C_R   0.908624 0.418796 0.106112 -0.000363
C19   C     C_R   0.818356 0.397771 0.950561 -0.297445
C20   C     C_R   0.951950 0.449963 0.978741 0.075165
C21   C     C_R   0.747697 0.410061 0.886491 0.021697
C22   C     C_R   0.834291 0.451484 0.835658 0.001054
C23   C     C_R   0.983616 0.496881 0.858081 -0.025750
C24   C     C_R   0.039202 0.498298 0.930910 0.035193
C25   C     C_R   0.783002 0.444329 0.763105 0.055465
C26   C     C_R   0.889656 0.474425 0.714110 -0.385301
C27   C     C_R   0.025771 0.532071 0.734504 0.239484
C28   C     C_R   0.072949 0.544429 0.809449 -0.039148
C29   C     C_R   0.148220 0.499538 0.075046 0.039490
C30   C     C_R   0.201008 0.507466 0.148327 0.005246
C31   C     C_R   0.109572 0.467554 0.199064 -0.082901
C32   C     C_R   0.971614 0.417241 0.174140 -0.057444
H23   H     H_    0.901601 0.380328 0.208430 0.168497
C33   C     C_R   0.201236 0.604151 0.839320 0.037543
C34   C     C_R   0.251653 0.606723 0.911009 -0.024586
C35   C     C_R   0.182752 0.545946 0.955254 -0.026888
C36   C     C_R   0.245140 0.536475 0.024779 0.078659
C37   C     C_R   0.403664 0.560963 0.045660 -0.206597
C38   C     C_R   0.352006 0.548225 0.169475 0.010521
C39   C     C_R   0.454614 0.568680 0.116420 -0.159970
C40   C     C_R   0.400451 0.560015 0.242105 0.142450
C41   C     C_R   0.296295 0.533501 0.292954 -0.506065
C42   C     C_R   0.158134 0.479221 0.272830 0.353110
H24   H     H_    0.576961 0.589003 0.128612 0.175937
H25   H     H_    0.332165 0.546217 0.348355 0.169534
H26   H     H_    0.762064 0.346017 0.977056 0.130883
H27   H     H_    0.491437 0.573389 0.007303 0.141837
C43   C     C_R   0.671589 0.952250 0.551272 -0.020223
C44   C     C_R   0.513040 0.803149 0.501552 0.259694
C45   C     C_R   0.386840 0.764038 0.456572 -0.451319
C46   C     C_R   0.281535 0.820836 0.427663 0.216648
C47   C     C_R   0.322085 0.913678 0.427838 -0.323684
C48   C     C_R   0.461255 0.953627 0.462706 0.033395
C49   C     C_R   0.549218 0.902150 0.507304 -0.054866
H28   H     H_    0.358641 0.690004 0.451303 0.158352
C50   C     C_R   0.641638 0.090447 0.492064 -0.038838
C51   C     C_R   0.725486 0.041721 0.539415 0.097895
C52   C     C_R   0.690257 0.184667 0.488110 0.232856
C53   C     C_R   0.836095 0.219571 0.518887 -0.458599
C54   C     C_R   0.924775 0.169690 0.562187 0.215650
C55   C     C_R   0.864978 0.083008 0.574730 -0.321982
C56   C     C_R   0.514564 0.043213 0.450957 0.032477
H29   H     H_    0.240968 0.954573 0.401742 0.143181
H30   H     H_    0.929376 0.047922 0.611811 0.156508
H31   H     H_    0.884347 0.284765 0.506497 0.159552
C57   C     C_1   0.658231 0.831290 0.322172 0.121946
N1    N     N_1   0.715181 0.877268 0.371160 -0.034166
C58   C     C_1   0.293301 0.885061 0.700886 0.186210
N2    N     N_1   0.412004 0.897607 0.732324 -0.089397
N3    N     N_3   0.142039 0.929590 0.605491 -0.213706
H32   H     H_    0.244131 0.919189 0.575833 0.123855
H33   H     H_    0.046411 0.910280 0.570601 0.145532
C59   C     C_1   0.021104 0.904025 0.713639 0.064210
N4    N     N_1   0.928028 0.930614 0.754620 -0.099702
N5    N     N_3   0.847262 0.231666 0.324930 -0.201639
H34   H     H_    0.813049 0.251651 0.276440 0.100937
H35   H     H_    0.830711 0.285669 0.365970 0.134891
C60   C     C_1   0.076105 0.196716 0.388127 -0.005190
N6    N     N_1   0.123917 0.176249 0.440340 -0.031638
N7    N     N_3   0.961941 0.044692 0.284170 -0.209300
H36   H     H_    0.027972 0.021452 0.324813 0.153093
H37   H     H_    0.848715 0.058097 0.302996 0.144095
N8    N     N_3   0.671159 0.921861 0.205274 -0.217020
H38   H     H_    0.786529 0.908983 0.219911 0.139105
H39   H     H_    0.625884 0.969076 0.245683 0.093371
C61   C     C_1   0.670100 0.764317 0.791065 0.267224
N9    N     N_1   0.601533 0.817469 0.828682 -0.093573
N10   N     N_3   0.408404 0.858151 0.186424 -0.211477
H40   H     H_    0.372430 0.897540 0.233293 0.085801
H41   H     H_    0.398346 0.900663 0.146531 0.137780
N11   N     N_3   0.403043 0.365600 0.340195 -0.190421
H42   H     H_    0.328319 0.328333 0.369338 0.212012
H43   H     H_    0.455946 0.419871 0.375623 0.134714
C62   C     C_1   0.447570 0.309677 0.183815 0.131469
N12   N     N_1   0.425900 0.352029 0.137790 -0.086877
C63   C     C_1   0.622837 0.781536 0.127713 0.204688
N13   N     N_1   0.665516 0.740945 0.075291 -0.102048
C64   C     C_1   0.118472 0.755563 0.133865 0.126102
N14   N     N_1   0.185757 0.727668 0.083697 -0.064733
C65   C     C_1   0.156423 0.273951 0.844541 0.287672
N15   N     N_1   0.244366 0.329182 0.874543 -0.088361
N16   N     N_3   0.617835 0.196552 0.668406 -0.221973
H44   H     H_    0.698751 0.243603 0.650838 0.057534
H45   H     H_    0.512996 0.197551 0.638705 0.208735
N17   N     N_3   0.624811 0.073577 0.782838 -0.200143
H46   H     H_    0.714005 0.100829 0.819426 0.129173
H47   H     H_    0.677428 0.054108 0.734087 0.148692
C66   C     C_1   0.857204 0.446028 0.640503 0.214114
N18   N     N_1   0.831579 0.424144 0.580809 -0.000754
N19   N     N_3   0.584013 0.383564 0.876916 -0.153333
H48   H     H_    0.521769 0.426733 0.914485 0.123755
H49   H     H_    0.567777 0.315366 0.887982 0.105443
N20   N     N_3   0.277178 0.667750 0.798721 -0.138646
H50   H     H_    0.257256 0.736075 0.821553 0.121928
H51   H     H_    0.398626 0.657067 0.799021 0.148966
N21   N     N_3   0.743406 0.394299 0.099030 -0.197846
H52   H     H_    0.682297 0.438464 0.070195 0.133137
H53   H     H_    0.725232 0.323089 0.081549 0.093090
C67   C     C_1   0.357167 0.684132 0.940237 0.029999
N22   N     N_1   0.439847 0.747085 0.962482 -0.077900
N23   N     N_3   0.723590 0.923565 0.616077 -0.223588
H54   H     H_    0.625569 0.906467 0.644352 0.156365
H55   H     H_    0.802093 0.870543 0.606269 0.170923
N24   N     N_3   0.463247 0.076086 0.387223 -0.157572
H56   H     H_    0.343646 0.089425 0.389177 0.137782
H57   H     H_    0.481184 0.025143 0.343944 0.080149
N25   N     N_3   0.188352 0.741303 0.566962 -0.226646
H58   H     H_    0.292267 0.708563 0.577633 0.148746
H59   H     H_    0.117913 0.694299 0.532261 0.181327

loop_
_geom_bond_atom_site_label_1
_geom_bond_atom_site_label_2
_geom_bond_distance
_ccdc_geom_bond_type
N16   H45   1.043641 S    
C44   C49   1.446601 A    
N3    H32   1.045159 S    
C53   H31   1.075315 S    
C7    H7    1.107232 S    
P5    O17   1.752663 S    
N20   H50   1.045981 S    
C44   C45   1.406750 A    
C3    H3    1.098047 S    
P2    O10   1.761690 S    
P1    C42   1.913206 S    
C50   C52   1.426273 A    
O3    Ba1   2.852199 S    
P2    Ba1   3.458626 S    
C15   C16   1.538212 S    
C21   C22   1.412525 A    
P7    O21   1.586008 D    
O4    P6    1.542210 D    
C6    C7    1.551127 S    
C4    N25   1.452242 S    
C1    N8    1.471204 S    
C7    N7    1.466138 S    
C66   N18   1.150437 T    
C1    C63   1.473607 S    
P3    O11   1.743350 S    
N25   H59   1.042003 S    
C10   C57   1.464514 S    
C8    H8    1.109794 S    
C15   O24   1.409469 S    
C45   C46   1.390790 A    
O7    Ba1   2.881134 S    
P4    C27   1.950301 S    
P2    C44   1.867291 S    
C53   C54   1.395129 A    
C5    C58   1.468486 S    
C47   C48   1.405282 A    
P1    O1    1.557273 D    
C17   C18   1.438462 A    
Ba1   O20   2.972538 S    
C14   H19   1.110888 S    
N11   H42   1.036336 S    
O16   P7    1.761281 S    
C29   C36   1.421229 A    
C5    C59   1.470259 S    
C38   C39   1.401129 A    
C12   H14   1.100600 S    
N24   H57   1.044316 S    
C2    H1    1.113134 S    
N23   H55   1.033581 S    
C19   H26   1.065750 S    
C46   C47   1.377852 A    
P4    Ba2   3.436743 S    
C16   H21   1.111671 S    
C18   N21   1.428760 S    
C8    C9    1.535993 S    
C15   H20   1.110281 S    
C13   H16   1.110545 S    
N19   H49   1.045204 S    
O14   P8    1.749900 S    
C47   H29   1.080334 S    
P3    C46   1.837884 S    
C28   C33   1.422124 A    
O10   C8    1.404736 S    
C4    H5    1.103861 S    
C50   C51   1.415471 A    
N17   H47   1.044748 S    
N21   H53   1.045135 S    
C48   C56   1.409715 A    
C40   C41   1.405890 A    
C31   C42   1.440462 A    
C45   H28   1.082432 S    
C12   H15   1.110717 S    
C13   H17   1.106475 S    
C11   H13   1.103225 S    
C14   C65   1.462120 S    
P4    O15   1.759728 S    
C23   C24   1.452269 A    
N7    H37   1.044485 S    
C55   H30   1.076536 S    
C34   C35   1.420889 A    
C22   C23   1.432525 A    
N10   H40   1.046812 S    
C21   N19   1.424950 S    
C29   C30   1.444085 A    
C25   C26   1.412536 A    
P1    O5    1.787649 S    
P1    O2    1.583254 S    
O6    P6    1.763637 S    
C24   C35   1.412558 A    
C19   C20   1.392663 A    
C1    C10   1.589080 S    
N25   H58   1.043377 S    
C14   H18   1.108458 S    
C6    C60   1.446400 S    
Ba1   O13   2.849967 S    
C50   C56   1.414632 A    
P2    O7    1.537602 D    
P8    C25   1.909784 S    
C43   N23   1.422621 S    
C11   N11   1.441753 S    
P8    O23   1.543949 D    
C4    O15   1.396956 S    
P5    O18   1.548000 D    
C9    H10   1.105337 S    
C34   C67   1.449760 S    
C1    N10   1.463704 S    
C11   O22   1.408473 S    
P5    O19   1.751714 S    
C63   N13   1.156790 T    
C37   C39   1.394306 A    
C19   C21   1.384170 A    
C17   C29   1.418438 A    
C64   N14   1.153231 T    
P3    O8    1.733674 S    
N23   H54   1.039148 S    
O14   Ba2   2.851505 S    
C51   C55   1.417116 A    
N10   H41   1.047377 S    
C10   H12   1.106697 S    
C37   H27   1.080040 S    
C41   C42   1.401864 A    
Ba2   O21   2.881456 S    
O16   Ba2   2.971748 S    
N16   H44   1.042492 S    
C17   C20   1.446756 A    
C4    C5    1.565204 S    
C27   C28   1.458639 A    
P5    C54   1.872789 S    
N5    H34   1.044155 S    
C16   N17   1.461511 S    
C15   N16   1.461390 S    
N21   H52   1.043841 S    
C43   C49   1.428950 A    
C59   N4    1.157280 T    
N20   H51   1.044257 S    
C5    N3    1.465364 S    
O19   C13   1.403054 S    
C13   C14   1.526184 S    
N3    H33   1.041199 S    
C23   C28   1.440479 A    
C3    H4    1.110338 S    
C12   C62   1.456704 S    
C30   C31   1.422079 A    
C2    H2    1.104334 S    
P2    O20   1.583735 S    
C20   C24   1.426766 A    
N7    H36   1.045590 S    
N5    H35   1.041455 S    
P3    O9    1.543009 D    
Ba1   O16   2.825646 S    
N8    H38   1.039804 S    
C38   C40   1.419572 A    
C52   C53   1.401783 A    
C60   N6    1.146678 T    
C9    C61   1.463962 S    
C41   H25   1.080401 S    
N11   H43   1.043728 S    
C36   C37   1.409747 A    
Ba2   O20   2.825100 S    
O2    Ba2   2.850532 S    
P6    C40   1.863703 S    
O8    Ba1   2.801054 S    
O6    C10   1.418937 S    
P4    O13   1.583056 S    
O12   Ba2   2.855444 S    
C67   N22   1.156460 T    
N17   H46   1.044643 S    
C48   C49   1.422546 A    
C8    H9    1.105770 S    
N8    H39   1.044285 S    
C22   C25   1.428109 A    
C33   C34   1.416778 A    
O5    C6    1.407138 S    
N19   H48   1.045960 S    
C26   C66   1.422594 S    
C2    C3    1.522792 S    
P8    O24   1.756698 S    
C39   H24   1.077644 S    
C33   N20   1.428283 S    
C35   C36   1.441295 A    
C9    H11   1.103793 S    
P7    O22   1.755862 S    
C54   C55   1.392496 A    
O1    Ba1   2.854938 S    
O17   Ba2   2.801648 S    
O13   Ba2   2.986218 S    
C30   C38   1.415029 A    
C6    N5    1.434526 S    
C11   C12   1.533752 S    
C43   C51   1.410232 A    
O2    Ba1   2.985425 S    
C65   N15   1.155132 T    
C32   H23   1.074787 S    
C31   C32   1.392921 A    
P4    O12   1.557650 D    
C26   C27   1.413833 A    
C7    H6    1.111707 S    
C3    C64   1.455112 S    
P7    C52   1.858669 S    
C61   N9    1.156524 T    
C58   N2    1.153990 T    
C16   H22   1.110384 S    
C18   C32   1.393913 A    
C57   N1    1.154030 T    
Ba1   Ba2   4.624564 S    
P1    Ba1   3.436281 S    
N24   H56   1.037054 S    
O11   C2    1.402267 S    
C62   N12   1.153874 T    
O3    P6    1.745294 S    
C56   N24   1.429631 S    
