data_mof_unit_25988.cif
_audit_creation_date              2012-12-10T17:40:56-0500
_audit_creation_method            fapswitch 2.2
_symmetry_space_group_name_H-M    P1
_symmetry_Int_Tables_number       1
_space_group_crystal_system       triclinic
_cell_length_a                    14.910888
_cell_length_b                    15.19187
_cell_length_c                    9.933234
_cell_angle_alpha                 90.39676
_cell_angle_beta                  89.932976
_cell_angle_gamma                 89.931704
_cell_volume                      2250.06149229

loop_
_atom_site_label
_atom_site_type_symbol
_atom_type_description
_atom_site_fract_x
_atom_site_fract_y
_atom_site_fract_z
_atom_type_partial_charge
C1    C     C_R   0.383154 0.877595 0.499582 0.855013
C2    C     C_R   0.382176 0.121450 0.500471 0.857652
C3    C     C_R   0.883154 0.377595 0.499582 0.855013
C4    C     C_R   0.882176 0.621450 0.500471 0.857652
C5    C     C_R   0.241382 0.178042 0.429636 -0.213565
C6    C     C_R   0.248155 0.815118 0.583188 -0.217252
C7    C     C_R   0.741382 0.678042 0.429636 -0.213565
C8    C     C_R   0.748155 0.315118 0.583188 -0.217252
C9    C     C_R   0.677594 0.742536 0.428203 -0.201837
C10   C     C_R   0.684561 0.250780 0.584707 -0.206294
C11   C     C_R   0.177594 0.242536 0.428203 -0.201837
C12   C     C_R   0.184561 0.750780 0.584707 -0.206294
C13   C     C_R   0.692486 0.820639 0.498449 -0.096856
C14   C     C_R   0.694561 0.177268 0.501851 -0.101285
C15   C     C_R   0.192486 0.320639 0.498449 -0.096856
C16   C     C_R   0.194561 0.677268 0.501851 -0.101285
C17   C     C_R   0.336233 0.002542 0.140029 -0.194854
C18   C     C_R   0.836233 0.502542 0.140029 -0.194854
C19   C     C_R   0.255478 0.006966 0.070662 -0.220784
C20   C     C_R   0.755478 0.506966 0.070662 -0.220784
C21   C     C_R   0.254636 0.008740 0.930694 0.199516
C22   C     C_R   0.754636 0.508740 0.930694 0.199516
C23   C     C_R   0.335997 0.004109 0.860730 -0.201787
C24   C     C_R   0.835997 0.504109 0.860730 -0.201787
C25   C     C_R   0.419204 0.001759 0.928033 0.137689
C26   C     C_R   0.919204 0.501759 0.928033 0.137689
C27   C     C_R   0.419288 0.001448 0.072358 0.172091
C28   C     C_R   0.919288 0.501448 0.072358 0.172091
C29   C     C_R   0.577220 0.998478 0.071271 -0.107665
C30   C     C_R   0.077220 0.498478 0.071271 -0.107665
C31   C     C_R   0.622413 0.116953 0.500310 0.843140
C32   C     C_R   0.621519 0.882142 0.499585 0.844209
C33   C     C_R   0.122413 0.616953 0.500310 0.843140
C34   C     C_R   0.121519 0.382142 0.499585 0.844209
C35   C     C_R   0.577183 0.998380 0.928284 -0.103083
C36   C     C_R   0.077183 0.498380 0.928284 -0.103083
C37   C     C_R   0.421623 0.288262 0.633347 -0.179956
C38   C     C_R   0.415837 0.716758 0.342786 -0.186825
C39   C     C_R   0.921623 0.788262 0.633347 -0.179956
C40   C     C_R   0.915837 0.216758 0.342786 -0.186825
C41   C     C_R   0.438605 0.369418 0.694604 -0.143282
C42   C     C_R   0.429334 0.638821 0.270562 -0.145692
C43   C     C_R   0.938605 0.869418 0.694604 -0.143282
C44   C     C_R   0.929334 0.138821 0.270562 -0.145692
C45   C     C_R   0.874063 0.935575 0.691447 -0.125308
C46   C     C_R   0.865539 0.072226 0.275276 -0.127549
C47   C     C_R   0.374063 0.435575 0.691447 -0.125308
C48   C     C_R   0.365539 0.572226 0.275276 -0.127549
C49   C     C_R   0.792211 0.920601 0.627564 -0.193112
C50   C     C_R   0.787701 0.083667 0.351259 -0.189220
C51   C     C_R   0.292211 0.420601 0.627564 -0.193112
C52   C     C_R   0.287701 0.583667 0.351259 -0.189220
C53   C     C_R   0.773652 0.838257 0.566090 0.089368
C54   C     C_R   0.772133 0.163081 0.423099 0.094519
C55   C     C_R   0.273652 0.338257 0.566090 0.089368
C56   C     C_R   0.272133 0.663081 0.423099 0.094519
C57   C     C_R   0.339001 0.271846 0.568262 0.100142
C58   C     C_R   0.337189 0.729749 0.420273 0.102782
C59   C     C_R   0.839001 0.771846 0.568262 0.100142
C60   C     C_R   0.837189 0.229749 0.420273 0.102782
C61   C     C_R   0.320223 0.191752 0.501123 -0.090986
C62   C     C_R   0.322214 0.806234 0.499141 -0.095195
C63   C     C_R   0.820223 0.691752 0.501123 -0.090986
C64   C     C_R   0.822214 0.306234 0.499141 -0.095195
H1    H     H_    0.228561 0.116514 0.377058 0.138702
H2    H     H_    0.238481 0.873159 0.645427 0.139061
H3    H     H_    0.728561 0.616514 0.377058 0.138702
H4    H     H_    0.738481 0.373159 0.645427 0.139061
H5    H     H_    0.331680 0.002619 0.754054 0.202556
H6    H     H_    0.831680 0.502619 0.754054 0.202556
H7    H     H_    0.640336 0.997072 0.874549 0.145271
H8    H     H_    0.140336 0.497072 0.874549 0.145271
H9    H     H_    0.473969 0.239315 0.635890 0.149634
H10   H     H_    0.468101 0.765569 0.338528 0.156663
H11   H     H_    0.973969 0.739315 0.635890 0.149634
H12   H     H_    0.968101 0.265569 0.338528 0.156663
H13   H     H_    0.502347 0.381255 0.743462 0.127074
H14   H     H_    0.490038 0.629658 0.212174 0.128719
H15   H     H_    0.002347 0.881255 0.743462 0.127074
H16   H     H_    0.990038 0.129658 0.212174 0.128719
H17   H     H_    0.887702 0.998891 0.737692 0.137852
H18   H     H_    0.876734 0.011192 0.220889 0.137201
H19   H     H_    0.387702 0.498891 0.737692 0.137852
H20   H     H_    0.376734 0.511192 0.220889 0.137201
H21   H     H_    0.744816 0.974450 0.624795 0.141367
H22   H     H_    0.741399 0.029075 0.355320 0.145132
H23   H     H_    0.244816 0.474450 0.624795 0.141367
H24   H     H_    0.241399 0.529075 0.355320 0.145132
H25   H     H_    0.615735 0.730641 0.374467 0.141680
H26   H     H_    0.626371 0.259542 0.648561 0.146845
H27   H     H_    0.115736 0.230641 0.374467 0.141680
H28   H     H_    0.126371 0.759543 0.648561 0.146846
H29   H     H_    0.640400 0.997278 0.124670 0.144114
H30   H     H_    0.140400 0.497278 0.124670 0.144114
H31   H     H_    0.330633 0.000014 0.246611 0.211462
H32   H     H_    0.830633 0.500013 0.246611 0.211462
H33   H     H_    0.193108 0.008633 0.126736 0.147801
H34   H     H_    0.693108 0.508633 0.126736 0.147801
N1    N     N_R   0.498810 0.000000 0.142780 -0.117412
N2    N     N_R   0.998810 0.500000 0.142780 -0.117412
N3    N     N_R   0.498740 0.000000 0.857170 -0.115094
N4    N     N_R   0.998740 0.500000 0.857170 -0.115094
O1    O     O_R   0.408390 0.908380 0.614690 -0.627259
O2    O     O_R   0.408390 0.091620 0.614690 -0.640496
O3    O     O_R   0.908390 0.408380 0.614690 -0.627259
O4    O     O_R   0.908390 0.591620 0.614690 -0.640496
O5    O     O_R   0.408370 0.908380 0.385360 -0.644486
O6    O     O_R   0.408370 0.091620 0.385360 -0.623951
O7    O     O_R   0.908370 0.408380 0.385360 -0.644486
O8    O     O_R   0.908370 0.591620 0.385360 -0.623951
O9    O     O_R   0.591620 0.091610 0.614640 -0.628231
O10   O     O_R   0.591620 0.908390 0.614640 -0.612027
O11   O     O_R   0.091620 0.591610 0.614640 -0.628231
O12   O     O_R   0.091620 0.408390 0.614640 -0.612027
O13   O     O_R   0.591610 0.091610 0.385310 -0.610882
O14   O     O_R   0.591610 0.908390 0.385310 -0.630177
O15   O     O_R   0.091610 0.591610 0.385310 -0.610882
O16   O     O_R   0.091610 0.408390 0.385310 -0.630177
Zn1   Zn    Zn3+2 0.500010 0.000000 0.653130 0.931370
Zn2   Zn    Zn3+2 0.000010 0.500000 0.653130 0.931370
Zn3   Zn    Zn3+2 0.499980 0.000000 0.346870 0.931461
Zn4   Zn    Zn3+2 0.999980 0.500000 0.346870 0.931461
C65   C     C_3   0.166643 0.014578 0.856146 -0.440593
C66   C     C_3   0.123383 0.104981 0.874826 -0.823799
H35   H     H_    0.107940 0.117618 0.982658 0.247539
H36   H     H_    0.168963 0.157190 0.837234 0.270966
H37   H     H_    0.059792 0.107714 0.816894 0.244673
H38   H     H_    0.176446 0.003132 0.746526 0.192357
H39   H     H_    0.120374 0.962805 0.893234 0.201171
C67   C     C_3   0.666643 0.514578 0.856146 -0.440592
C68   C     C_3   0.623382 0.604981 0.874826 -0.823798
H40   H     H_    0.607940 0.617618 0.982658 0.247539
H41   H     H_    0.668963 0.657190 0.837235 0.270966
H42   H     H_    0.559792 0.607714 0.816894 0.244673
H43   H     H_    0.676446 0.503132 0.746526 0.192357
H44   H     H_    0.620374 0.462805 0.893234 0.201171

loop_
_geom_bond_atom_site_label_1
_geom_bond_atom_site_label_2
_ccdc_geom_bond_type
C34   O16   A    
C29   H29   S    
C58   C62   A    
O13   Zn3   S    
C18   H32   S    
C23   H5    S    
C13   C32   S    
C67   H43   S    
C14   C31   S    
C68   H42   S    
C1    C62   S    
C53   C59   A    
C24   H6    S    
C65   C66   S    
C54   C60   A    
C3    C64   S    
C3    O3    A    
C33   O15   A    
C4    C63   S    
C27   N1    A    
C50   C54   A    
C6    H2    S    
C40   C60   A    
C36   N4    A    
C19   C21   A    
C24   C26   A    
C5    C11   A    
C6    C12   A    
O7    Zn4   S    
C43   H15   S    
C30   N2    A    
C1    O1    A    
C18   C20   A    
O9    Zn1   S    
O16   Zn4   S    
C9    C13   A    
C37   H9    S    
C46   H18   S    
C11   C15   A    
C12   C16   A    
C40   H12   S    
C40   C44   A    
O3    Zn2   S    
C17   H31   S    
C47   H19   S    
O6    Zn3   S    
C15   C34   S    
N2    Zn4   S    
C2    C61   S    
N1    Zn3   S    
O2    Zn1   S    
C28   N2    A    
C35   H7    S    
C38   C58   A    
C65   H39   S    
O12   Zn2   S    
C31   O13   A    
C44   C46   A    
C46   C50   A    
C13   C53   A    
C19   H33   S    
C67   H44   S    
O14   Zn3   S    
C29   N1    A    
C17   C27   A    
C49   H21   S    
C44   H16   S    
C18   C28   A    
C5    H1    S    
C10   C14   A    
C9    H25   S    
C39   C43   A    
C68   H41   S    
C4    O4    A    
C48   H20   S    
N3    Zn1   S    
C21   C65   S    
O15   Zn4   S    
C16   C56   A    
C16   C33   S    
O11   Zn2   S    
C45   C49   A    
C39   C59   A    
C41   C47   A    
C5    C61   A    
C42   C48   A    
C32   O14   A    
C43   C45   A    
C7    C63   A    
O1    Zn1   S    
C8    C64   A    
C66   H37   S    
C14   C54   A    
C1    O5    A    
C2    O2    A    
C42   H14   S    
C39   H11   S    
C21   C23   A    
C22   C24   A    
C59   C63   A    
C25   C27   A    
O5    Zn3   S    
C51   H23   S    
C68   H40   S    
N4    Zn2   S    
C66   H36   S    
O8    Zn4   S    
C38   H10   S    
C7    C9    A    
C4    O8    A    
C32   O10   A    
O4    Zn2   S    
C26   C28   A    
C12   H28   S    
C45   H17   S    
C20   C22   A    
C35   N3    A    
O10   Zn1   S    
C47   C51   A    
C57   C61   A    
C34   O12   A    
C29   C35   A    
C33   O11   A    
C30   C36   A    
C60   C64   A    
C6    C62   A    
C8    H4    S    
C55   C57   A    
C67   C68   S    
C30   H30   S    
C26   N4    A    
C41   H13   S    
C25   N3    A    
C65   H38   S    
C52   C56   A    
C3    O7    A    
C49   C53   A    
C2    O6    A    
C17   C19   A    
C56   C58   A    
C51   C55   A    
C23   C25   A    
C37   C41   A    
C52   H24   S    
C37   C57   A    
C50   H22   S    
C7    H3    S    
C38   C42   A    
C11   H27   S    
C48   C52   A    
C20   H34   S    
C10   H26   S    
C8    C10   A    
C31   O9    A    
C22   C67   S    
C36   H8    S    
C15   C55   A    
C66   H35   S    
