data_mof_unit_60007.cif
_audit_creation_date              2013-03-05T16:42:42-0500
_audit_creation_method            fapswitch 2.2
_symmetry_space_group_name_H-M    P1
_symmetry_Int_Tables_number       1
_space_group_crystal_system       triclinic
_cell_length_a                    17.804234
_cell_length_b                    16.569964
_cell_length_c                    23.561961
_cell_angle_alpha                 90.001902
_cell_angle_beta                  92.236384
_cell_angle_gamma                 90.001515
_cell_volume                      6945.84966285

loop_
_atom_site_label
_atom_site_type_symbol
_atom_site_description
_atom_site_fract_x
_atom_site_fract_y
_atom_site_fract_z
_atom_type_partial_charge
O1    O     O_R   0.391260 0.567930 0.500000 -0.529755
O2    O     O_R   0.608740 0.432070 0.500000 -0.545925
O3    O     O_R   0.608740 0.567930 0.500000 -0.529748
O4    O     O_R   0.391260 0.432070 0.500000 -0.545931
C1    C     C_R   0.355341 0.499887 0.502799 0.959092
C2    C     C_R   0.644659 0.499889 0.497201 0.959094
O5    O     O_R   0.499980 0.567930 0.417880 -0.548125
O6    O     O_R   0.500020 0.432070 0.582120 -0.556963
O7    O     O_R   0.500020 0.567930 0.582120 -0.548121
O8    O     O_R   0.499980 0.432070 0.417880 -0.556955
C3    C     C_R   0.499796 0.500307 0.390953 0.958271
C4    C     C_R   0.500204 0.500309 0.609047 0.958272
Cu1   Cu    Cu3+1 0.500000 0.580420 0.500000 1.168393
Cu2   Cu    Cu3+1 0.500000 0.419580 0.500000 1.152886
C5    C     C_R   0.564986 0.529461 0.881611 0.682742
C6    C     C_R   0.434989 0.529379 0.118387 0.682735
N1    N     N_R   0.499038 0.513593 0.851969 -0.443634
N2    N     N_R   0.500949 0.513563 0.148028 -0.443626
C7    C     C_R   0.432860 0.506456 0.879135 0.663437
C8    C     C_R   0.567130 0.506481 0.120859 0.663446
C9    C     C_R   0.430756 0.518551 0.938327 -0.148736
C10   C     C_R   0.569226 0.518603 0.061670 -0.148732
C11   C     C_R   0.499757 0.522786 0.969984 -0.062283
C12   C     C_R   0.500222 0.522779 0.030013 -0.062300
C13   C     C_R   0.568231 0.526641 0.941554 -0.145670
C14   C     C_R   0.431746 0.526559 0.058444 -0.145678
C15   C     C_R   0.362278 0.523898 0.966739 0.245962
C16   C     C_R   0.637700 0.524037 0.033261 0.245953
C17   C     C_R   0.362821 0.528605 0.026296 0.244423
C18   C     C_R   0.637153 0.528756 0.973704 0.244407
O9    O     O_2   0.626743 0.547673 0.852823 -0.408938
O10   O     O_2   0.373220 0.547543 0.147175 -0.408962
O11   O     O_2   0.369936 0.485541 0.848930 -0.420104
O12   O     O_2   0.630065 0.485593 0.151057 -0.420100
C19   C     C_R   0.546826 0.558426 0.241916 -0.157573
C20   C     C_R   0.453157 0.558431 0.758081 -0.157554
H1    H     H_    0.582841 0.600795 0.220920 0.225787
H2    H     H_    0.417129 0.600788 0.779075 0.225765
C21   C     C_R   0.550860 0.552545 0.300915 0.289850
C22   C     C_R   0.449128 0.552542 0.699082 0.289837
C23   C     C_R   0.499466 0.502194 0.328370 -0.274480
C24   C     C_R   0.500534 0.502203 0.671629 -0.274484
C25   C     C_R   0.445202 0.457577 0.295647 0.189431
C26   C     C_R   0.554808 0.457608 0.704353 0.189438
C27   C     C_R   0.454529 0.450124 0.236229 0.364965
C28   C     C_R   0.545484 0.450164 0.763773 0.364959
C29   C     C_R   0.500991 0.506515 0.209126 0.097403
C30   C     C_R   0.499004 0.506540 0.790872 0.097417
C31   C     C_R   0.852306 0.558317 0.509009 0.237368
C32   C     C_R   0.158127 0.417117 0.519140 0.237990
C33   C     C_R   0.147699 0.558325 0.490988 0.237364
C34   C     C_R   0.841861 0.417130 0.480805 0.237998
C35   C     C_R   0.773536 0.566285 0.505070 0.235985
C36   C     C_R   0.236749 0.424653 0.524123 0.240530
C37   C     C_R   0.226470 0.566291 0.494943 0.235991
C38   C     C_R   0.763240 0.424668 0.475839 0.240522
C39   C     C_R   0.727929 0.497912 0.491742 -0.291119
C40   C     C_R   0.272069 0.497908 0.508250 -0.291106
C41   C     C_R   0.885776 0.483324 0.498526 -0.210015
C42   C     C_R   0.114222 0.483323 0.501436 -0.210009
C43   C     C_1   0.966298 0.477679 0.499587 0.222413
C44   C     C_1   0.033699 0.477679 0.500366 0.222416
C45   C     C_R   0.527128 0.830599 0.546870 -0.218302
C46   C     C_R   0.461528 0.169994 0.457545 -0.214657
C47   C     C_R   0.472871 0.830593 0.453131 -0.218304
C48   C     C_R   0.538472 0.170001 0.542457 -0.214671
H3    H     H_    0.549130 0.862860 0.583931 0.205913
H4    H     H_    0.430913 0.138066 0.423812 0.205169
H5    H     H_    0.450867 0.862851 0.416071 0.205914
H6    H     H_    0.569088 0.138078 0.576190 0.205169
C49   C     C_R   0.527865 0.745117 0.546543 0.486362
C50   C     C_R   0.461507 0.255443 0.458043 0.482074
C51   C     C_R   0.472132 0.745112 0.453458 0.486361
C52   C     C_R   0.538494 0.255450 0.541957 0.482073
N3    N     N_R   0.500000 0.701220 0.500000 -0.284896
N4    N     N_R   0.500000 0.298780 0.500000 -0.293051
C53   C     C_R   0.500000 0.874305 0.500000 -0.001243
C54   C     C_R   0.499999 0.126211 0.500001 -0.002201
C55   C     C_1   0.500000 0.963259 0.500001 0.096393
C56   C     C_1   0.500000 0.037269 0.500001 0.096330
N5    N     N_R   0.291521 0.528637 0.935575 0.194697
O13   O     O_R   0.239544 0.475078 0.943546 -0.191192
O14   O     O_R   0.276359 0.590941 0.903520 -0.226455
N6    N     N_R   0.708450 0.528877 0.064429 0.194684
O15   O     O_R   0.760533 0.475462 0.056404 -0.191179
O16   O     O_R   0.723500 0.591161 0.096533 -0.226532
N7    N     N_R   0.558527 0.706599 0.596540 0.145731
O17   O     O_R   0.536118 0.728700 0.646103 -0.294440
O18   O     O_R   0.618925 0.663094 0.593997 -0.254667
N8    N     N_R   0.421282 0.295149 0.412832 0.148097
O19   O     O_R   0.442043 0.282359 0.361293 -0.282344
O20   O     O_R   0.352859 0.318842 0.420569 -0.250575
N9    N     N_R   0.441461 0.706588 0.403464 0.145733
O21   O     O_R   0.463861 0.728687 0.353898 -0.294446
O22   O     O_R   0.381063 0.663080 0.406012 -0.254706
N10   N     N_R   0.578728 0.295163 0.587164 0.148100
O23   O     O_R   0.557974 0.282383 0.638706 -0.282364
O24   O     O_R   0.647151 0.318854 0.579421 -0.250593
N11   N     N_R   0.292318 0.533458 0.053434 0.198936
O25   O     O_R   0.251320 0.598164 0.047795 -0.203058
O26   O     O_R   0.264186 0.469257 0.076225 -0.204448
N12   N     N_R   0.707651 0.533725 0.946567 0.198934
O27   O     O_R   0.748547 0.598514 0.952187 -0.203083
O28   O     O_R   0.735869 0.469574 0.923768 -0.204345
N13   N     N_R   0.607230 0.598272 0.332210 0.172855
O29   O     O_R   0.647936 0.563921 0.372367 -0.329013
O30   O     O_R   0.626425 0.669553 0.314675 -0.236100
N14   N     N_R   0.392750 0.598248 0.667785 0.172850
O31   O     O_R   0.352048 0.563877 0.627632 -0.329021
O32   O     O_R   0.373545 0.669529 0.685315 -0.236086
N15   N     N_R   0.375952 0.433287 0.321198 0.196360
O33   O     O_R   0.349098 0.476828 0.361685 -0.315840
O34   O     O_R   0.332594 0.377858 0.298720 -0.161116
N16   N     N_R   0.624060 0.433329 0.678800 0.196361
O35   O     O_R   0.650902 0.476867 0.638308 -0.315831
O36   O     O_R   0.667431 0.377917 0.701281 -0.161137
S1    S     S_3+6 0.416228 0.366667 0.197054 0.136953
O37   O     O_2   0.457683 0.353036 0.143513 -0.261775
O38   O     O_2   0.422761 0.291531 0.232659 -0.164538
O39   O     O_3   0.325124 0.384373 0.180086 -0.399484
H7    H     H_    0.307477 0.335405 0.159469 0.407291
S2    S     S_3+6 0.583820 0.366739 0.802957 0.136933
O40   O     O_2   0.542368 0.353098 0.856498 -0.261790
O41   O     O_2   0.577322 0.291588 0.767360 -0.164536
O42   O     O_3   0.674915 0.384502 0.819926 -0.399524
H8    H     H_    0.692590 0.335538 0.840534 0.407273
N17   N     N_R   0.898622 0.627630 0.521628 0.184874
O43   O     O_R   0.892166 0.692303 0.490497 -0.180860
O44   O     O_R   0.948105 0.625865 0.563735 -0.247953
N18   N     N_R   0.122648 0.342784 0.534219 0.177325
O45   O     O_R   0.133361 0.312735 0.584906 -0.204909
O46   O     O_R   0.080609 0.304239 0.496866 -0.217319
N19   N     N_R   0.101390 0.627648 0.478393 0.184876
O47   O     O_R   0.107839 0.692294 0.509557 -0.180853
O48   O     O_R   0.051915 0.625915 0.436280 -0.247954
N20   N     N_R   0.877330 0.342807 0.465693 0.177322
O49   O     O_R   0.866590 0.312782 0.415000 -0.204906
O50   O     O_R   0.919382 0.304242 0.503023 -0.217331
N21   N     N_R   0.741139 0.644254 0.514336 0.185555
O51   O     O_R   0.761242 0.685291 0.559520 -0.205373
O52   O     O_R   0.706791 0.681466 0.472181 -0.244090
N22   N     N_R   0.280100 0.358424 0.547340 0.179621
O53   O     O_R   0.272608 0.286365 0.525903 -0.232624
O54   O     O_R   0.322764 0.368914 0.592858 -0.285169
N23   N     N_R   0.258875 0.644270 0.485723 0.185545
O55   O     O_R   0.238782 0.685355 0.440559 -0.205420
O56   O     O_R   0.293226 0.681437 0.527900 -0.244055
N24   N     N_R   0.719877 0.358450 0.452611 0.179619
O57   O     O_R   0.727362 0.286384 0.474034 -0.232643
O58   O     O_R   0.677201 0.368958 0.407103 -0.285193

loop_
_geom_bond_atom_site_label_1
_geom_bond_atom_site_label_2
_geom_bond_distance
_ccdc_geom_bond_type
N7    O17   1.301313 A    
N9    O21   1.301312 A    
C16   N6    1.435354 S    
C51   N3    1.391161 A    
N18   O46   1.300485 A    
N15   O33   1.301796 A    
N1    C30   1.444269 S    
C51   N9    1.429329 S    
C50   N4    1.381928 A    
O3    C2    1.299139 A    
C19   C29   1.397662 A    
N2    C29   1.444286 S    
N5    O13   1.301089 A    
C21   C23   1.413517 A    
C48   H6    1.083922 S    
C38   C39   1.423733 A    
O5    C3    1.287583 A    
N13   O30   1.301371 A    
C32   C36   1.405689 A    
C25   N15   1.449999 S    
C1    C40   1.493497 S    
O1    C1    1.299141 A    
C46   H4    1.083920 S    
C19   H1    1.083290 S    
C12   C14   1.415200 A    
S1    O38   1.503268 D    
C45   C53   1.391316 A    
C54   C56   1.473771 S    
C37   N23   1.435051 S    
C15   C17   1.405113 A    
C48   C52   1.415933 A    
C47   C51   1.416517 A    
N14   O31   1.300385 A    
C42   C44   1.435920 S    
O7    Cu1   1.945936 S    
C4    C24   1.474691 S    
C32   N18   1.435205 S    
N5    O14   1.301256 A    
Cu1   N3    2.001650 S    
N10   O24   1.299525 A    
C11   C12   1.414095 A    
C20   C30   1.397646 A    
C22   C24   1.413513 A    
C33   C37   1.408112 A    
C43   C44   1.199461 T    
O3    Cu1   1.947067 S    
C22   N14   1.437781 S    
C8    O12   1.348853 S    
C53   C55   1.473965 S    
C9    C15   1.416380 A    
C26   N16   1.450007 S    
N9    O22   1.297947 A    
C10   C16   1.416381 A    
Cu1   Cu2   2.665115 S    
C23   C25   1.419932 A    
C2    C39   1.493490 S    
O2    C2    1.295915 A    
C24   C26   1.419937 A    
C48   C54   1.393848 A    
N23   O56   1.301319 A    
C26   C28   1.421627 A    
N23   O55   1.301607 A    
C28   C30   1.416473 A    
C27   C29   1.416470 A    
C6    C14   1.412082 A    
C31   N17   1.438152 S    
C45   H3    1.083973 S    
C41   C43   1.435920 S    
C47   C53   1.391317 A    
C17   N11   1.433060 S    
N21   O52   1.301307 A    
C52   N10   1.421642 S    
C15   N5    1.435326 S    
N6    O15   1.301052 A    
N20   O50   1.300471 A    
O8    Cu2   1.945941 S    
S1    O39   1.681178 S    
C35   C39   1.421796 A    
N20   O49   1.301092 A    
C47   H5    1.083976 S    
Cu2   N4    2.001650 S    
C38   N24   1.437508 S    
C19   C21   1.392606 A    
N17   O44   1.301194 A    
C34   C41   1.401128 A    
C50   N8    1.421632 S    
N8    O20   1.299525 A    
N11   O25   1.300964 A    
C20   C22   1.392595 A    
O6    C4    1.296481 A    
N10   O23   1.300489 A    
C18   N12   1.433062 S    
N15   O34   1.299245 A    
N24   O57   1.301261 A    
N12   O28   1.300743 A    
C25   C27   1.421616 A    
C52   N4    1.381933 A    
C49   N7    1.429323 S    
N11   O26   1.300737 A    
C45   C49   1.416515 A    
C9    C11   1.413863 A    
C7    O11   1.348857 S    
N19   O47   1.301207 A    
C34   N20   1.435195 S    
C10   C12   1.413854 A    
O1    Cu1   1.947058 S    
C8    C10   1.410941 A    
S2    O41   1.503272 D    
N17   O43   1.301193 A    
N22   O54   1.301483 A    
O39   H7    0.990499 S    
C36   C40   1.423746 A    
C27   S1    1.783287 S    
C13   C18   1.417136 A    
C21   N13   1.437790 S    
O6    Cu2   1.945922 S    
C36   N22   1.437516 S    
C35   N21   1.435031 S    
C46   C54   1.393847 A    
C28   S2    1.783292 S    
N24   O58   1.301474 A    
O4    C1    1.295919 A    
N16   O36   1.299247 A    
N21   O51   1.301594 A    
C5    O9    1.348457 S    
C6    O10   1.348461 S    
N13   O29   1.300388 A    
C31   C41   1.404187 A    
C32   C42   1.401135 A    
S2    O42   1.681181 S    
C20   H2    1.083287 S    
N18   O45   1.301103 A    
S1    O37   1.503296 D    
C49   N3    1.391157 A    
C33   N19   1.438158 S    
N8    O19   1.300487 A    
O42   H8    0.990534 S    
C31   C35   1.408107 A    
C16   C18   1.405130 A    
N1    C7    1.367785 A    
N14   O32   1.301373 A    
C3    C23   1.474702 S    
N2    C8    1.367793 A    
N16   O35   1.301805 A    
C11   C13   1.415204 A    
O4    Cu2   1.947068 S    
N12   O27   1.301027 A    
O2    Cu2   1.947056 S    
O7    C4    1.287581 A    
C5    C13   1.412088 A    
O8    C3    1.296484 A    
C55   C56   1.226345 T    
O5    Cu1   1.945927 S    
C14   C17   1.417128 A    
C6    N2    1.368064 A    
C37   C40   1.421808 A    
N19   O48   1.301205 A    
N7    O18   1.297943 A    
N22   O53   1.301268 A    
N6    O16   1.301232 A    
C33   C42   1.404197 A    
S2    O40   1.503297 D    
C5    N1    1.368054 A    
C34   C38   1.405687 A    
C46   C50   1.415932 A    
C7    C9    1.410942 A    
