data_mof_unit_32571.cif
_audit_creation_date              2012-12-10T20:53:05-0500
_audit_creation_method            fapswitch 2.2
_symmetry_space_group_name_H-M    P1
_symmetry_Int_Tables_number       1
_space_group_crystal_system       triclinic
_cell_length_a                    18.318987
_cell_length_b                    18.313182
_cell_length_c                    18.345135
_cell_angle_alpha                 60.016552
_cell_angle_beta                  60.183004
_cell_angle_gamma                 59.96027
_cell_volume                      4357.04171624

loop_
_atom_site_label
_atom_site_type_symbol
_atom_type_description
_atom_site_fract_x
_atom_site_fract_y
_atom_site_fract_z
_atom_type_partial_charge
C1    C     C_R   0.389884 0.109946 0.110265 0.463913
C2    C     C_R   0.324358 0.825375 0.858976 0.481391
C3    C     C_R   0.034864 0.552230 0.910508 0.008059
C4    C     C_R   0.440729 0.086670 0.968066 0.005793
C5    C     C_R   0.558997 0.913085 0.031829 0.009146
C6    C     C_R   0.945861 0.946001 0.553989 0.013381
C7    C     C_R   0.053823 0.054156 0.445285 0.015655
C8    C     C_R   0.945776 0.554091 0.946065 0.004662
C9    C     C_R   0.054033 0.446188 0.054008 0.006751
C10   C     C_R   0.554078 0.946128 0.945721 -0.000207
C11   C     C_R   0.446028 0.053889 0.054038 0.003242
C12   C     C_3   0.940079 0.591253 0.239772 0.009325
C13   C     C_R   0.162180 0.094676 0.669407 0.490122
C14   C     C_3   0.849588 0.578902 0.283846 -0.353898
C15   C     C_3   0.076715 0.393135 0.776932 0.012421
C16   C     C_3   0.149391 0.434694 0.729912 -0.352644
C17   C     C_3   0.490914 0.300985 0.919451 -0.005876
C18   C     C_3   0.431845 0.380066 0.865564 -0.358178
C19   C     C_3   0.430818 0.749901 0.101290 0.026808
C20   C     C_3   0.475142 0.691037 0.172805 -0.347223
C21   C     C_3   0.317973 0.904628 0.483557 -0.007876
C22   C     C_3   0.400158 0.858420 0.420011 -0.365812
C23   C     C_3   0.652843 0.162501 0.474472 -0.006929
C24   C     C_R   0.832491 0.947572 0.312205 0.509944
C25   C     C_3   0.578412 0.205626 0.544058 -0.367711
C26   C     C_R   0.162812 0.593492 0.283884 0.353472
C27   C     C_R   0.851491 0.390491 0.718203 0.349165
C28   C     C_R   0.630427 0.255486 0.098014 0.375090
C29   C     C_R   0.368792 0.733195 0.885179 0.366641
C30   C     C_R   0.252928 0.084965 0.629120 0.389092
C31   C     C_R   0.742891 0.952993 0.352111 0.393105
C32   C     C_R   0.077649 0.589326 0.313293 -0.002423
C33   C     C_R   0.610156 0.890086 0.889617 0.475237
C34   C     C_R   0.929296 0.409145 0.688088 0.013065
C35   C     C_R   0.589626 0.310009 0.031837 0.032904
C36   C     C_R   0.408055 0.691661 0.951576 0.040646
C37   C     C_R   0.312986 0.019974 0.587340 0.021712
C38   C     C_R   0.684588 0.995507 0.416656 0.000510
C39   C     C_R   0.029902 0.633490 0.253354 0.192956
C40   C     C_R   0.973689 0.379263 0.747675 0.231600
C41   C     C_R   0.589485 0.271718 0.981656 0.248958
C42   C     C_R   0.401876 0.742730 0.993424 0.269398
C43   C     C_R   0.281796 0.964076 0.586571 0.219891
C44   C     C_R   0.110258 0.110009 0.389708 0.466603
C45   C     C_R   0.716436 0.035048 0.439181 0.186204
C46   C     C_R   0.067390 0.684050 0.165066 -0.089163
C47   C     C_R   0.937976 0.329380 0.838039 -0.107066
C48   C     C_R   0.631674 0.178776 0.997961 -0.100530
C49   C     C_R   0.356652 0.836666 0.965155 -0.119184
C50   C     C_R   0.190423 0.973324 0.629093 -0.100530
C51   C     C_R   0.807460 0.027057 0.399881 -0.132806
C52   C     C_R   0.152030 0.688084 0.136493 0.346093
C53   C     C_R   0.860330 0.311513 0.867128 0.359915
C54   C     C_R   0.671200 0.124949 0.064620 0.393911
C55   C     C_R   0.889793 0.889879 0.610213 0.479486
C56   C     C_R   0.318617 0.876952 0.898597 0.385011
C57   C     C_R   0.131009 0.038978 0.669311 0.384636
C58   C     C_R   0.864786 0.984088 0.336444 0.361238
C59   C     C_R   0.982638 0.592200 0.464123 -0.087282
C60   C     C_R   0.019655 0.407361 0.536204 -0.074781
C61   C     C_R   0.592795 0.462651 0.968227 -0.058515
C62   C     C_R   0.406822 0.537649 0.027713 -0.049205
C63   C     C_R   0.463994 0.961719 0.591934 -0.074703
C64   C     C_R   0.534877 0.047307 0.409684 -0.088164
C65   C     C_R   0.946393 0.551788 0.555736 0.035799
C66   C     C_R   0.110278 0.389917 0.109998 0.471927
C67   C     C_R   0.055616 0.447840 0.444560 0.033676
C68   C     C_R   0.551947 0.555545 0.946318 0.025904
C69   C     C_R   0.447691 0.444829 0.050682 0.019887
C70   C     C_R   0.554738 0.951791 0.553109 0.037416
C71   C     C_R   0.444582 0.055144 0.448084 0.022190
C72   C     C_R   0.965803 0.457842 0.592374 0.072981
C73   C     C_R   0.037443 0.541523 0.408146 0.065198
C74   C     C_R   0.457381 0.593778 0.975741 0.079080
C75   C     C_R   0.541967 0.406878 0.018459 0.069458
C76   C     C_R   0.590420 0.997356 0.461230 0.053577
C77   C     C_R   0.889680 0.610133 0.889999 0.473753
C78   C     C_R   0.408241 0.013253 0.540925 0.064405
C79   C     C_R   0.110747 0.390583 0.389578 0.530295
C80   C     C_R   0.889802 0.609341 0.610463 0.526519
C81   C     C_R   0.390439 0.389788 0.108732 0.521943
C82   C     C_R   0.609477 0.610283 0.890359 0.534195
C83   C     C_R   0.389736 0.109678 0.390457 0.519243
C84   C     C_R   0.610237 0.891855 0.609779 0.550649
C85   C     C_R   0.176941 0.929313 0.392804 -0.094996
C86   C     C_R   0.820238 0.072986 0.600573 -0.081244
C87   C     C_R   0.927898 0.398810 0.179577 -0.093829
C88   C     C_R   0.199702 0.642706 0.195807 0.425458
C89   C     C_R   0.071331 0.602654 0.820888 -0.095000
C90   C     C_R   0.383178 0.173587 0.934373 -0.098775
C91   C     C_R   0.615480 0.825539 0.065925 -0.087736
C92   C     C_R   0.210713 0.841295 0.395167 -0.105290
C93   C     C_R   0.785735 0.161620 0.596649 -0.102593
C94   C     C_R   0.839356 0.402904 0.214146 -0.111670
C95   C     C_R   0.159339 0.599867 0.786679 -0.107185
C96   C     C_R   0.379441 0.205400 0.849259 -0.106682
C97   C     C_R   0.619978 0.793910 0.150635 -0.104420
C98   C     C_R   0.157927 0.787104 0.450658 -0.093609
C99   C     C_R   0.817401 0.341854 0.807277 0.446365
C100  C     C_R   0.839491 0.214931 0.543594 -0.091062
C101  C     C_R   0.785491 0.456846 0.160667 -0.101509
C102  C     C_R   0.213068 0.546459 0.840237 -0.099077
C103  C     C_R   0.433564 0.152364 0.795333 -0.090223
C104  C     C_R   0.567528 0.847672 0.203809 -0.085647
C105  C     C_R   0.070872 0.820860 0.503543 -0.074006
C106  C     C_R   0.927953 0.179975 0.493959 -0.073866
C107  C     C_R   0.819966 0.506770 0.072297 -0.087687
C108  C     C_R   0.179120 0.495420 0.928263 -0.093513
C109  C     C_R   0.491667 0.067239 0.826246 -0.080552
C110  C     C_R   0.670870 0.163261 0.114307 0.494173
C111  C     C_R   0.509842 0.933141 0.172792 -0.071553
C112  C     C_R   0.034418 0.910626 0.501256 0.027957
C113  C     C_R   0.964818 0.089897 0.497090 0.025336
C114  C     C_R   0.910063 0.503079 0.035312 0.008212
C115  C     C_R   0.089482 0.497851 0.964947 0.009310
C116  C     C_R   0.495516 0.032551 0.913312 0.008141
C117  C     C_R   0.504977 0.967552 0.086228 0.016112
C118  C     C_R   0.088521 0.965400 0.445758 0.018702
C119  C     C_R   0.910257 0.035546 0.551451 0.013945
C120  C     C_R   0.964717 0.448521 0.089728 0.008219
F1    F     F_    0.187043 0.737474 0.051521 -0.588880
F2    F     F_    0.286950 0.864904 0.794668 -0.560968
F3    F     F_    0.104304 0.158302 0.708582 -0.533644
F4    F     F_    0.888538 0.905395 0.250938 -0.489392
F5    F     F_    0.209219 0.551168 0.341199 -0.588109
F6    F     F_    0.809245 0.418861 0.660676 -0.587093
F7    F     F_    0.629757 0.291653 0.147464 -0.585177
F8    F     F_    0.374711 0.684138 0.845069 -0.584266
F9    F     F_    0.282268 0.139795 0.629328 -0.567742
F10   F     F_    0.713277 0.914963 0.329454 -0.545440
F11   F     F_    0.827362 0.263493 0.953586 -0.561407
F12   F     F_    0.710873 0.035504 0.080286 -0.521007
F13   F     F_    0.276131 0.966697 0.872278 -0.537968
F14   F     F_    0.043062 0.048104 0.708846 -0.543526
F15   F     F_    0.952247 0.976711 0.299411 -0.556499
F16   F     F_    0.281101 0.647810 0.168641 -0.575483
F17   F     F_    0.743220 0.322943 0.835145 -0.551978
F18   F     F_    0.710129 0.110951 0.178257 -0.537382
H1    H     H_    0.812358 0.283934 0.540282 0.146528
H2    H     H_    0.334689 0.567225 0.049969 0.192942
H3    H     H_    0.436128 0.927840 0.662438 0.185673
H4    H     H_    0.562298 0.081730 0.339265 0.200304
H5    H     H_    0.221315 0.968121 0.349583 0.115113
H6    H     H_    0.775225 0.034773 0.641682 0.132044
H7    H     H_    0.966506 0.357125 0.224418 0.118684
H8    H     H_    0.032816 0.644089 0.775969 0.119458
H9    H     H_    0.341109 0.218535 0.972599 0.121881
H10   H     H_    0.656063 0.779973 0.028344 0.124403
H11   H     H_    0.278397 0.814834 0.354240 0.113755
H12   H     H_    0.184591 0.718494 0.452962 0.140354
H13   H     H_    0.716800 0.189192 0.634519 0.122959
H14   H     H_    0.812263 0.364605 0.282955 0.114505
H15   H     H_    0.186102 0.638868 0.718109 0.124335
H16   H     H_    0.334899 0.271860 0.824778 0.112604
H17   H     H_    0.663768 0.727036 0.175408 0.112166
H18   H     H_    0.032945 0.775597 0.546320 0.115843
H19   H     H_    0.966449 0.224736 0.452466 0.119893
H20   H     H_    0.774960 0.548662 0.033839 0.123491
H21   H     H_    0.224008 0.453996 0.966819 0.118366
H22   H     H_    0.533751 0.029691 0.780679 0.136703
H23   H     H_    0.281483 0.544316 0.813238 0.141635
H24   H     H_    0.468885 0.971193 0.217859 0.126647
H25   H     H_    0.030328 0.721728 0.118971 0.195260
H26   H     H_    0.969806 0.302801 0.886543 0.160615
H27   H     H_    0.634971 0.148196 0.958461 0.157994
H28   H     H_    0.350486 0.880147 0.993022 0.137769
H29   H     H_    0.165355 0.929474 0.631519 0.153380
H30   H     H_    0.834520 0.052307 0.419765 0.148578
H31   H     H_    0.992588 0.523999 0.243870 0.152746
H32   H     H_    0.947551 0.633119 0.168642 0.147406
H33   H     H_    0.844952 0.547756 0.248338 0.096022
H34   H     H_    0.716517 0.460466 0.187872 0.134572
H35   H     H_    0.840878 0.534888 0.354493 0.168690
H36   H     H_    0.795383 0.644777 0.281280 0.192477
H37   H     H_    0.104334 0.322202 0.816663 0.172765
H38   H     H_    0.018904 0.431073 0.821446 0.139683
H39   H     H_    0.123724 0.506435 0.691060 0.150744
H40   H     H_    0.170782 0.429290 0.779931 0.100779
H41   H     H_    0.208064 0.399138 0.684094 0.190341
H42   H     H_    0.446933 0.279473 0.989636 0.130268
H43   H     H_    0.524534 0.245745 0.891907 0.142343
H44   H     H_    0.380242 0.360961 0.870898 0.068365
H45   H     H_    0.571003 0.822602 0.269750 0.132665
H46   H     H_    0.398230 0.436504 0.891396 0.170730
H47   H     H_    0.472726 0.402011 0.794331 0.190001
H48   H     H_    0.358366 0.780638 0.134478 0.180084
H49   H     H_    0.462532 0.802245 0.053231 0.120895
H50   H     H_    0.548012 0.660158 0.142017 0.140602
H51   H     H_    0.464690 0.732046 0.207952 0.091850
H52   H     H_    0.445650 0.637328 0.221986 0.206658
H53   H     H_    0.290231 0.975637 0.443334 0.123958
H54   H     H_    0.268102 0.870701 0.515622 0.141402
H55   H     H_    0.382216 0.864199 0.367338 0.071421
H56   H     H_    0.430934 0.177519 0.729005 0.135043
H57   H     H_    0.451494 0.890444 0.388271 0.168137
H58   H     H_    0.428133 0.786472 0.456792 0.179466
H59   H     H_    0.636132 0.200102 0.411610 0.171162
H60   H     H_    0.715651 0.168204 0.462967 0.129631
H61   H     H_    0.593658 0.170146 0.607323 0.140516
H62   H     H_    0.572060 0.276833 0.520048 0.107486
H63   H     H_    0.514087 0.202264 0.556619 0.185696
H64   H     H_    0.969598 0.663863 0.435539 0.170038
H65   H     H_    0.032918 0.335657 0.564829 0.187634
H66   H     H_    0.664881 0.432940 0.944410 0.187922
O1    O     O_3   0.250000 0.250000 0.250000 -0.443066
O2    O     O_R   0.865800 0.694910 0.573470 -0.544615
O3    O     O_R   0.305090 0.426530 0.134200 -0.545598
O4    O     O_R   0.694910 0.573470 0.865800 -0.551958
O5    O     O_R   0.426530 0.134200 0.305090 -0.539827
O6    O     O_R   0.573470 0.865800 0.694910 -0.553257
O7    O     O_R   0.134190 0.426530 0.134200 -0.568249
O8    O     O_R   0.865810 0.573470 0.865800 -0.559780
O9    O     O_R   0.426530 0.134200 0.134190 -0.568279
O10   O     O_R   0.573470 0.865800 0.865810 -0.556681
O11   O     O_R   0.134200 0.134190 0.426530 -0.563617
O12   O     O_3   0.750000 0.750000 0.750000 -0.449124
O13   O     O_R   0.865800 0.865810 0.573470 -0.543405
O14   O     O_R   0.426530 0.305080 0.134210 -0.563836
O15   O     O_R   0.573470 0.694920 0.865790 -0.546803
O16   O     O_R   0.305080 0.134210 0.426530 -0.554489
O17   O     O_R   0.694920 0.865790 0.573470 -0.528916
O18   O     O_R   0.134210 0.426530 0.305080 -0.558661
O19   O     O_R   0.865790 0.573470 0.694920 -0.546250
O20   O     O_3   0.943917 0.633176 0.284240 -0.509011
O21   O     O_3   0.052650 0.397286 0.712425 -0.513839
O22   O     O_3   0.554943 0.327919 0.912137 -0.485203
O23   O     O_R   0.305080 0.134200 0.134200 -0.535193
O24   O     O_3   0.443782 0.696713 0.057951 -0.505554
O25   O     O_3   0.342921 0.897540 0.548937 -0.516546
O26   O     O_3   0.660175 0.071955 0.506660 -0.557106
O27   O     O_R   0.694920 0.865800 0.865800 -0.529030
O28   O     O_R   0.134200 0.134200 0.305080 -0.528447
O29   O     O_R   0.865800 0.865800 0.694920 -0.531566
O30   O     O_R   0.134200 0.305080 0.134200 -0.532545
O31   O     O_R   0.865800 0.694920 0.865800 -0.532998
O32   O     O_R   0.134200 0.305090 0.426530 -0.532881
Zn1   Zn    Zn3+2 0.206620 0.206630 0.380140 0.943114
Zn2   Zn    Zn3+2 0.793380 0.793370 0.619860 0.964809
Zn3   Zn    Zn3+2 0.206630 0.380140 0.206620 0.927048
Zn4   Zn    Zn3+2 0.793370 0.619860 0.793380 0.937801
Zn5   Zn    Zn3+2 0.380140 0.206620 0.206630 0.928908
Zn6   Zn    Zn3+2 0.619860 0.793380 0.793370 0.948371
Zn7   Zn    Zn3+2 0.206620 0.206620 0.206620 0.931861
Zn8   Zn    Zn3+2 0.793380 0.793380 0.793380 0.951555

loop_
_geom_bond_atom_site_label_1
_geom_bond_atom_site_label_2
_ccdc_geom_bond_type
O12   Zn8   S    
C40   C47   A    
C80   O2    A    
C101  C107  A    
C44   O11   A    
C36   C42   A    
C19   C20   S    
C1    C11   S    
C24   F4    S    
C6    C55   S    
C92   H11   S    
C85   H5    S    
C82   O4    A    
C56   F13   S    
C97   C104  A    
C86   H6    S    
C55   O13   A    
C108  H21   S    
C38   C76   S    
C53   C99   A    
C48   C54   A    
C29   C36   A    
C35   C75   S    
C98   C105  A    
C15   H38   S    
C15   O21   S    
C2    C29   A    
C34   C40   A    
C108  C115  A    
C21   C22   S    
C100  H1    S    
C84   O17   A    
C31   F10   S    
C25   H63   S    
O19   Zn4   S    
C61   H66   S    
C20   H52   S    
C13   F3    S    
C27   F6    S    
C84   O6    A    
C21   H53   S    
C13   C57   A    
C18   H44   S    
C94   H14   S    
C15   C16   S    
O28   Zn7   S    
C87   C94   A    
C46   C52   A    
O18   Zn3   S    
C77   O31   A    
O32   Zn1   S    
C54   C110  A    
C101  H34   S    
C52   F1    S    
C32   C39   A    
C40   O21   S    
O1    Zn3   S    
C9    C66   S    
C12   O20   S    
C38   C45   A    
O29   Zn8   S    
C109  C116  A    
C19   H49   S    
C113  C119  A    
C96   H16   S    
C82   O15   A    
C112  C118  A    
C94   C101  A    
C22   H55   S    
C102  C108  A    
C86   C119  A    
C53   F11   S    
C103  H56   S    
C71   C78   A    
C70   C84   S    
C59   C73   A    
C4    C90   A    
C77   O8    A    
C28   F7    S    
C8    C114  A    
O30   Zn7   S    
C47   C53   A    
C1    O23   A    
C23   C25   S    
C103  C109  A    
C64   C71   A    
C65   C80   S    
C60   C67   A    
C7    C118  A    
C22   H58   S    
C51   H30   S    
O16   Zn1   S    
C111  H24   S    
C55   O29   A    
O1    Zn5   S    
C29   F8    S    
C5    C10   A    
C91   H10   S    
C85   C92   A    
C16   H40   S    
C71   C83   S    
C45   C51   A    
C2    F2    S    
C27   C34   A    
O12   Zn6   S    
C89   H8    S    
C48   H27   S    
C106  C113  A    
C92   C98   A    
C9    C115  A    
C13   C30   A    
C110  F18   S    
C67   C79   S    
O4    Zn4   S    
C28   C35   A    
C16   H41   S    
C3    C8    A    
O5    Zn5   S    
C32   C73   S    
C26   C32   A    
C21   H54   S    
C12   H32   S    
C28   C110  A    
O6    Zn6   S    
C61   C75   A    
C30   C37   A    
C5    C117  A    
C95   H15   S    
C26   F5    S    
O12   Zn4   S    
C89   C95   A    
C19   O24   S    
C27   C99   A    
C107  C114  A    
C90   H9    S    
C25   H61   S    
C86   C93   A    
C20   H50   S    
C17   O22   S    
C60   H65   S    
C23   H60   S    
C63   C70   A    
C18   H46   S    
C57   F14   S    
O14   Zn5   S    
C21   O25   S    
C104  H45   S    
C43   O25   S    
C17   C18   S    
C63   H3    S    
O1    Zn7   S    
O2    Zn2   S    
C51   C58   A    
O8    Zn4   S    
C7    C44   S    
C91   C97   A    
C4    C11   A    
O1    Zn1   S    
C93   C100  A    
C88   F16   S    
C83   O5    A    
C35   C41   A    
C36   C74   S    
C2    C56   A    
C39   C46   A    
C67   C73   A    
C47   H26   S    
C62   C69   A    
C17   H42   S    
C26   C88   A    
C105  C112  A    
C66   O30   A    
C42   O24   S    
C46   H25   S    
C1    O9    A    
C8    C77   S    
O7    Zn3   S    
C39   O20   S    
C93   H13   S    
C45   O26   S    
C70   C76   A    
C106  H19   S    
C34   C72   S    
C6    C119  A    
C20   H51   S    
C107  H20   S    
C10   C116  A    
C16   H39   S    
C79   O18   A    
C98   H12   S    
C41   O22   S    
O11   Zn1   S    
C50   C57   A    
C6    C112  A    
C15   H37   S    
C4    C116  A    
C30   F9    S    
C62   C74   A    
C81   O3    A    
C12   C14   S    
C14   H33   S    
C79   O32   A    
C104  C111  A    
C33   O10   A    
C95   C102  A    
C43   C50   A    
C90   C96   A    
C12   H31   S    
O3    Zn3   S    
C58   F15   S    
C14   H35   S    
C65   C72   A    
C54   F12   S    
C37   C78   S    
C23   H59   S    
C18   H47   S    
C100  C106  A    
O15   Zn6   S    
C3    C89   A    
O17   Zn2   S    
C111  C117  A    
C68   C82   S    
C7    C113  A    
C31   C38   A    
O9    Zn5   S    
O27   Zn8   S    
C44   O28   A    
C24   C31   A    
O12   Zn2   S    
C87   C120  A    
C14   H36   S    
C49   C56   A    
C87   H7    S    
C59   C65   A    
C80   O19   A    
O23   Zn7   S    
C83   O16   A    
C61   C68   A    
C64   H4    S    
C102  H23   S    
C19   H48   S    
C81   O14   A    
C41   C48   A    
C69   C75   A    
C10   C33   S    
C97   H17   S    
C59   H64   S    
C85   C118  A    
C22   H57   S    
C52   C88   A    
O31   Zn8   S    
C23   O26   S    
C69   C81   S    
C42   C49   A    
C17   H43   S    
C49   H28   S    
C105  H18   S    
C5    C91   A    
C24   C58   A    
C96   C103  A    
C50   H29   S    
C25   H62   S    
C9    C120  A    
C60   C72   A    
C99   F17   S    
C3    C115  A    
C64   C76   A    
C62   H2    S    
C66   O7    A    
C33   O27   A    
C109  H22   S    
C68   C74   A    
O13   Zn2   S    
C37   C43   A    
C114  C120  A    
O10   Zn6   S    
C63   C78   A    
C11   C117  A    
