data_mof_unit_46500.cif
_audit_creation_date              2012-12-10T18:38:33-0500
_audit_creation_method            fapswitch 2.2
_symmetry_space_group_name_H-M    P1
_symmetry_Int_Tables_number       1
_space_group_crystal_system       triclinic
_cell_length_a                    15.862484
_cell_length_b                    15.104828
_cell_length_c                    13.946502
_cell_angle_alpha                 88.764458
_cell_angle_beta                  89.414412
_cell_angle_gamma                 91.489614
_cell_volume                      3339.48293234

loop_
_atom_site_label
_atom_site_type_symbol
_atom_type_description
_atom_site_fract_x
_atom_site_fract_y
_atom_site_fract_z
_atom_type_partial_charge
C1    C     C_R   0.499994 0.330246 0.500725 0.807575
C2    C     C_R   0.500419 0.670206 0.499138 0.811284
C3    C     C_R   0.444439 0.184983 0.560558 -0.292936
C4    C     C_R   0.496277 0.814551 0.410187 -0.289619
C5    C     C_R   0.500695 0.234205 0.501460 -0.076582
C6    C     C_R   0.500882 0.767141 0.497502 -0.089749
C7    C     C_R   0.555959 0.191445 0.440105 -0.210325
C8    C     C_R   0.506393 0.812950 0.583651 -0.211651
C9    C     C_R   0.556322 0.099546 0.439223 -0.159586
C10   C     C_R   0.507093 0.904770 0.582712 -0.165070
C11   C     C_R   0.499644 0.049528 0.497606 0.017980
C12   C     C_R   0.500807 0.952436 0.495932 0.025318
C13   C     C_R   0.568242 0.532816 0.104016 0.340781
C14   C     C_R   0.471126 0.427937 0.896891 0.328616
C15   C     C_R   0.565995 0.538457 0.205240 0.203506
C16   C     C_R   0.465037 0.430120 0.795641 0.211377
C17   C     C_R   0.431320 0.467289 0.211501 -0.102494
C18   C     C_R   0.530249 0.572689 0.787789 -0.114213
C19   C     C_R   0.425802 0.473299 0.110393 0.337262
C20   C     C_R   0.524550 0.578712 0.888997 0.344445
C21   C     C_R   0.496297 0.504363 0.054445 -0.070555
C22   C     C_R   0.497039 0.504170 0.945540 -0.069120
C23   C     C_R   0.339931 0.499854 0.500347 0.817001
C24   C     C_R   0.660068 0.500224 0.499611 0.820501
C25   C     C_3   0.971003 0.430764 0.451111 0.106799
C26   C     C_3   0.029025 0.570690 0.547326 0.105956
C27   C     C_3   0.028828 0.505671 0.409749 0.500706
C28   C     C_3   0.971217 0.495778 0.588681 0.502384
C29   C     C_1   0.250347 0.499954 0.500809 -0.185232
C30   C     C_1   0.749660 0.500629 0.498832 -0.181915
C31   C     C_3   0.025778 0.424263 0.542256 -0.381196
C32   C     C_3   0.974223 0.577180 0.456181 -0.381230
C33   C     C_3   0.083301 0.500211 0.499881 0.028094
C34   C     C_3   0.916732 0.501218 0.498575 0.028288
C35   C     C_1   0.174877 0.500070 0.500343 0.017989
C36   C     C_1   0.825143 0.500982 0.498693 0.021215
C37   C     C_R   0.442299 0.092669 0.557651 0.448442
C38   C     C_R   0.494492 0.907160 0.408855 0.441219
Cu1   Cu    Cu3+1 0.500000 0.499990 0.596430 0.939682
Cu2   Cu    Cu3+1 0.500000 0.500010 0.403570 0.933982
H1    H     H_    0.378483 0.438953 0.252145 0.178383
H2    H     H_    0.556729 0.628268 0.746618 0.162651
H3    H     H_    0.952005 0.639276 0.422034 0.153130
H4    H     H_    0.047975 0.362141 0.576366 0.151786
H5    H     H_    0.400243 0.217919 0.606446 0.146112
H6    H     H_    0.494020 0.780052 0.342939 0.162599
H7    H     H_    0.599721 0.229266 0.394103 0.150333
H8    H     H_    0.510854 0.777988 0.651944 0.151647
H9    H     H_    0.601286 0.067430 0.393473 0.178492
H10   H     H_    0.512934 0.938822 0.649995 0.175455
N1    N     N_R   0.500000 0.500020 0.258690 -0.212141
N2    N     N_R   0.500000 0.499980 0.741310 -0.204771
O1    O     O_R   0.500010 0.371450 0.581430 -0.582312
O2    O     O_R   0.499990 0.628550 0.418570 -0.590551
O3    O     O_R   0.500010 0.371460 0.418560 -0.570524
O4    O     O_R   0.499990 0.628540 0.581440 -0.591000
O5    O     O_R   0.379080 0.499990 0.581420 -0.584172
O6    O     O_R   0.620920 0.500010 0.418580 -0.585650
O7    O     O_R   0.379080 0.500000 0.418550 -0.574583
O8    O     O_R   0.620920 0.500000 0.581450 -0.553127
O9    O     O_3   0.065040 0.506902 0.316804 -0.568603
C39   C     C_3   0.007118 0.540452 0.250012 0.077693
H11   H     H_    0.001292 0.613103 0.258441 0.140592
H12   H     H_    0.943711 0.507618 0.258293 0.137600
C40   C     C_3   0.039282 0.524253 0.148983 -0.803616
H13   H     H_    0.045967 0.452116 0.138259 0.251140
H14   H     H_    0.994131 0.550358 0.095692 0.199895
H15   H     H_    0.101509 0.558395 0.137445 0.249587
O10   O     O_3   0.934882 0.494522 0.681552 -0.566273
C41   C     C_3   0.992823 0.461286 0.748481 0.081600
H16   H     H_    0.055915 0.494877 0.740727 0.138367
H17   H     H_    0.999435 0.388767 0.739720 0.141071
C42   C     C_3   0.959953 0.476621 0.849396 -0.799972
H18   H     H_    0.897988 0.441755 0.860214 0.250878
H19   H     H_    0.005056 0.450721 0.902863 0.199367
H20   H     H_    0.952449 0.548591 0.860538 0.252181
O11   O     O_3   0.352465 0.444086 0.067346 -0.520157
C43   C     C_3   0.301024 0.517375 0.049880 0.085651
H21   H     H_    0.335821 0.571831 0.009967 0.117523
H22   H     H_    0.276446 0.542872 0.118798 0.141611
C44   C     C_3   0.226740 0.488211 0.988965 -0.780378
H23   H     H_    0.189266 0.434989 0.027147 0.254081
H24   H     H_    0.185593 0.545238 0.974493 0.189247
H25   H     H_    0.249890 0.462895 0.919543 0.250887
O12   O     O_3   0.549280 0.656310 0.932730 -0.520927
C45   C     C_3   0.487161 0.720248 0.917694 0.062713
H26   H     H_    0.422880 0.693327 0.936668 0.116596
H27   H     H_    0.488165 0.744126 0.841627 0.130740
C46   C     C_3   0.505542 0.798832 0.981302 -0.756428
H28   H     H_    0.568684 0.828515 0.963354 0.252699
H29   H     H_    0.457190 0.849805 0.970119 0.191669
H30   H     H_    0.504194 0.776986 0.057901 0.246185
C47   C     C_3   0.937229 0.351374 0.396777 -0.835152
H31   H     H_    0.990613 0.315062 0.365821 0.246740
H32   H     H_    0.900627 0.306492 0.446647 0.232131
H33   H     H_    0.895395 0.373669 0.338296 0.218657
C48   C     C_3   0.062796 0.650164 0.601539 -0.832473
H34   H     H_    0.009417 0.686424 0.632582 0.247426
H35   H     H_    0.104761 0.627980 0.659938 0.220294
H36   H     H_    0.099264 0.695074 0.551568 0.230741
O13   O     O_3   0.386192 0.044724 0.616210 -0.590971
C49   C     C_3   0.308453 0.036603 0.568521 0.068018
H37   H     H_    0.316476 0.006453 0.496887 0.127428
H38   H     H_    0.279197 0.102485 0.559625 0.140155
C50   C     C_3   0.248860 0.976518 0.627978 -0.782134
H39   H     H_    0.238432 0.005097 0.699714 0.249119
H40   H     H_    0.187308 0.969660 0.591282 0.195110
H41   H     H_    0.276174 0.909905 0.637015 0.249082
O14   O     O_3   0.492483 0.953875 0.322467 -0.591173
C51   C     C_3   0.411253 0.945111 0.282868 0.063687
H42   H     H_    0.361758 0.964780 0.334934 0.125709
H43   H     H_    0.398245 0.875869 0.260416 0.139451
C52   C     C_3   0.406401 0.005675 0.194629 -0.776708
H44   H     H_    0.454090 0.986904 0.140362 0.249206
H45   H     H_    0.342693 0.999705 0.162766 0.196776
H46   H     H_    0.418510 0.075585 0.214781 0.251760
O15   O     O_3   0.640491 0.559787 0.053737 -0.523971
C53   C     C_3   0.694813 0.487482 0.047252 0.072240
H47   H     H_    0.673641 0.443487 0.988840 0.130794
H48   H     H_    0.697836 0.447964 0.115649 0.118301
C54   C     C_3   0.783551 0.522212 0.023365 -0.778525
H49   H     H_    0.805679 0.567769 0.079862 0.239772
H50   H     H_    0.827145 0.466037 0.019708 0.192310
H51   H     H_    0.784293 0.558314 0.953116 0.264877
O16   O     O_3   0.445596 0.352202 0.948133 -0.525635
C55   C     C_3   0.516423 0.299581 0.964507 0.074310
H52   H     H_    0.562661 0.334272 0.010975 0.115414
H53   H     H_    0.547721 0.282363 0.895710 0.132014
C56   C     C_3   0.487837 0.214040 0.015973 -0.752752
H54   H     H_    0.442071 0.177042 0.971131 0.248591
H55   H     H_    0.543022 0.172005 0.029701 0.192254
H56   H     H_    0.457350 0.229097 0.085604 0.254341
C57   C     C_3   0.637133 0.590748 0.250021 -0.707589
H57   H     H_    0.616022 0.627512 0.312736 0.244962
H58   H     H_    0.689792 0.546572 0.267939 0.210694
H59   H     H_    0.662567 0.643131 0.199781 0.224993
C58   C     C_3   0.416540 0.354541 0.751674 -0.719320
H60   H     H_    0.381557 0.375810 0.687796 0.240746
H61   H     H_    0.459925 0.300140 0.736145 0.219854
H62   H     H_    0.366779 0.327408 0.801496 0.224540

loop_
_geom_bond_atom_site_label_1
_geom_bond_atom_site_label_2
_ccdc_geom_bond_type
C25   C31   S    
C26   C32   S    
C47   H31   S    
C42   H18   S    
C28   O10   S    
C17   N1    A    
C48   H34   S    
C18   N2    A    
C4    H6    S    
O11   C43   S    
C27   C33   S    
C25   C47   S    
C50   H40   S    
C55   H52   S    
C14   O16   S    
C1    C5    S    
C23   C29   S    
C19   C21   A    
Cu1   O1    S    
C52   H44   S    
O10   C41   S    
C18   H2    S    
C43   H22   S    
Cu1   O5    S    
C49   C50   S    
C23   O5    A    
C11   C37   A    
C1    O1    A    
C53   H47   S    
C54   H51   S    
C39   H12   S    
C27   O9    S    
C51   H43   S    
C48   H35   S    
C51   H42   S    
C16   C58   S    
C40   H14   S    
C57   H59   S    
C31   C33   S    
C41   H16   S    
C15   N1    A    
C46   H29   S    
C18   C20   A    
C25   C34   S    
C52   H46   S    
Cu2   O3    S    
Cu1   N2    S    
C28   C34   S    
C47   H32   S    
Cu2   O7    S    
C21   C22   S    
C42   H19   S    
C2    C6    S    
C44   H24   S    
C44   H23   S    
C17   H1    S    
C58   H62   S    
Cu2   O6    S    
C31   H4    S    
C45   H27   S    
C49   H37   S    
O13   C49   S    
C9    H9    S    
C4    C6    A    
C2    O2    A    
Cu1   Cu2   S    
C5    C7    A    
C45   H26   S    
C17   C19   A    
C6    C8    A    
C55   C56   S    
O12   C45   S    
C3    H5    S    
C46   H30   S    
C53   C54   S    
C7    H7    S    
C23   O7    A    
C8    H8    S    
C39   H11   S    
C58   H61   S    
C26   C33   S    
Cu1   O4    S    
C24   O8    A    
C40   H15   S    
C20   O12   S    
C41   C42   S    
C13   C21   A    
C50   H41   S    
C38   O14   S    
C49   H38   S    
C9    C11   A    
C51   C52   S    
C54   H49   S    
C10   C12   A    
C24   O6    A    
C4    C38   A    
C47   H33   S    
Cu2   O2    S    
C13   C15   A    
C57   H57   S    
C42   H20   S    
C14   C16   A    
C24   C30   S    
C10   H10   S    
C44   H25   S    
C56   H54   S    
C50   H39   S    
C7    C9    A    
C55   H53   S    
C48   H36   S    
C39   C40   S    
C27   C32   S    
C43   H21   S    
C28   C31   S    
C16   N2    A    
C20   C22   A    
C3    C5    A    
C45   C46   S    
C13   O15   S    
C11   C12   S    
C15   C57   S    
C25   C27   S    
Cu2   N1    S    
C58   H60   S    
C29   C35   T    
C26   C28   S    
C30   C36   T    
C56   H56   S    
C1    O3    A    
C2    O4    A    
O15   C53   S    
C37   O13   S    
C43   C44   S    
C14   C22   A    
O16   C55   S    
C19   O11   S    
Cu1   O8    S    
C33   C35   S    
C32   H3    S    
C34   C36   S    
C12   C38   A    
O9    C39   S    
C53   H48   S    
C54   H50   S    
C26   C48   S    
C3    C37   A    
C8    C10   A    
C40   H13   S    
C57   H58   S    
C41   H17   S    
C52   H45   S    
C46   H28   S    
O14   C51   S    
C32   C34   S    
C56   H55   S    
