data_mof_unit_38566.cif
_audit_creation_date              2012-12-10T17:03:42-0500
_audit_creation_method            fapswitch 2.2
_symmetry_space_group_name_H-M    P1
_symmetry_Int_Tables_number       1
_space_group_crystal_system       triclinic
_cell_length_a                    10.066942
_cell_length_b                    10.724426
_cell_length_c                    13.107254
_cell_angle_alpha                 90.725249
_cell_angle_beta                  71.34422
_cell_angle_gamma                 90.207728
_cell_volume                      1340.62777435

loop_
_atom_site_label
_atom_site_type_symbol
_atom_type_description
_atom_site_fract_x
_atom_site_fract_y
_atom_site_fract_z
_atom_type_partial_charge
C1    C     C_R   0.499106 0.737647 0.503136 0.953374
C2    C     C_R   0.445420 0.584235 0.979379 0.008462
C3    C     C_R   0.484069 0.591095 0.866403 -0.003279
C4    C     C_R   0.553624 0.570244 0.025859 -0.019612
C5    C     C_R   0.690857 0.543168 0.958191 -0.000875
C6    C     C_R   0.729683 0.578394 0.851002 -0.172577
C7    C     C_R   0.626128 0.619100 0.809367 -0.026518
C8    C     C_R   0.530434 0.576248 0.136737 0.339224
C9    C     C_R   0.748773 0.461227 0.109732 0.420084
C10   C     C_R   0.382067 0.562108 0.815597 -0.172489
C11   C     C_2   0.573242 0.068355 0.558036 -0.117761
C12   C     C_R   0.424397 0.518266 0.702271 0.904066
C13   C     C_2   0.500747 0.130982 0.504854 -0.364004
C14   C     C_2   0.598814 0.937056 0.530640 0.365190
C15   C     C_2   0.489238 0.868423 0.526238 -0.382258
C16   C     C_2   0.040397 0.485322 0.583550 -0.054248
C17   C     C_2   0.894935 0.465430 0.578309 -0.086923
C18   C     C_R   0.498514 0.263058 0.503696 1.009190
C19   C     C_R   0.576919 0.499788 0.296176 0.908851
C20   C     C_R   0.786954 0.487160 0.000067 -0.207202
C21   C     C_R   0.621005 0.510991 0.179426 -0.238306
C22   C     C_R   0.239577 0.567451 0.876748 -0.300521
C23   C     C_R   0.199516 0.583462 0.988900 0.514281
C24   C     C_R   0.301473 0.579845 0.039797 -0.180041
H1    H     H_    0.456711 0.084501 0.448788 0.136446
H2    H     H_    0.384912 0.909056 0.546860 0.139762
H3    H     H_    0.055569 0.483502 0.661768 0.135193
H4    H     H_    0.135843 0.478342 0.425582 0.171557
H5    H     H_    0.820515 0.419654 0.646183 0.169629
H6    H     H_    0.839549 0.582127 0.803229 0.155630
H7    H     H_    0.888622 0.457597 0.946770 0.168616
H8    H     H_    0.159689 0.555487 0.838305 0.150299
H9    H     H_    0.265230 0.572047 0.126362 0.201879
N1    N     N_2   0.148270 0.498670 0.498870 -0.159225
N2    N     N_2   0.852610 0.498640 0.498840 -0.186238
O1    O     O_R   0.386950 0.680940 0.500020 -0.591062
O2    O     O_R   0.613110 0.680900 0.499980 -0.563365
O3    O     O_R   0.330780 0.500000 0.653640 -0.624081
O4    O     O_R   0.556930 0.499960 0.653610 -0.605844
O5    O     O_R   0.386890 0.319100 0.500020 -0.626392
O6    O     O_R   0.613050 0.319060 0.499980 -0.592566
O7    O     O_R   0.443070 0.500040 0.346390 -0.552719
O8    O     O_R   0.669220 0.500000 0.346360 -0.649594
Zn1   Zn    Zn3+2 0.349000 0.500030 0.500020 0.997817
Zn2   Zn    Zn3+2 0.651000 0.499970 0.499980 0.999202
O9    O     O_3   0.839606 0.390529 0.144680 -0.713772
H10   H     H_    0.785661 0.348336 0.211913 0.329849
O10   O     O_3   0.732281 0.887268 0.505115 -0.673006
H11   H     H_    0.799145 0.955874 0.503506 0.339717
C25   C     C_2   0.924823 0.593058 0.425928 0.638184
H12   H     H_    0.923592 0.589877 0.343534 0.066544
O11   O     O_2   0.978330 0.682651 0.456235 -0.512949
O12   O     O_3   0.429845 0.654465 0.203539 -0.744524
H13   H     H_    0.411624 0.723187 0.159807 0.336859
O13   O     O_3   0.061435 0.596683 0.051283 -0.732355
H14   H     H_    0.007863 0.622818 0.003630 0.328104
C26   C     C_2   0.662827 0.708024 0.719366 0.503163
H15   H     H_    0.580023 0.752347 0.696813 0.036474
O14   O     O_2   0.784533 0.736631 0.673045 -0.515754
C27   C     C_2   0.624659 0.121813 0.644119 0.426821
H16   H     H_    0.704117 0.072509 0.667509 0.072109
O15   O     O_2   0.573814 0.216433 0.693912 -0.556516

loop_
_geom_bond_atom_site_label_1
_geom_bond_atom_site_label_2
_ccdc_geom_bond_type
C8    O12   S    
C25   O11   D    
C23   C24   A    
O7    Zn1   S    
C23   O13   S    
C6    C7    A    
C1    C15   S    
C11   C13   D    
C9    C20   A    
C2    C4    A    
C24   H9    S    
C19   O7    A    
C1    O2    A    
O4    Zn2   S    
C9    C21   A    
O13   H14   S    
C2    C3    A    
H4    N1    S    
C9    O9    S    
C3    C10   A    
O12   H13   S    
C10   C22   A    
O3    Zn1   S    
O8    Zn2   S    
C13   H1    S    
C26   H15   S    
C16   C17   S    
C22   H8    S    
C13   C18   S    
C12   O4    A    
C14   O10   S    
C10   C12   S    
C16   H3    S    
O10   H11   S    
C19   C21   S    
C19   O8    A    
C25   H12   S    
N2    C25   S    
C3    C7    A    
C12   O3    A    
C5    C6    A    
C6    H6    S    
C11   C14   S    
O1    Zn1   S    
C26   O14   D    
O2    Zn2   S    
C11   C27   S    
N2    Zn2   S    
O5    Zn1   S    
C17   H5    S    
C27   O15   D    
O9    H10   S    
C18   O6    A    
C4    C8    A    
C5    C20   A    
N1    Zn1   S    
O6    Zn2   S    
C22   C23   A    
C27   H16   S    
C15   H2    S    
C18   O5    A    
C2    C24   A    
C17   N2    D    
C16   N1    D    
C14   C15   D    
C7    C26   S    
C1    O1    A    
C4    C5    A    
C20   H7    S    
C8    C21   A    
