data_mof_unit_50924.cif
_audit_creation_date              2012-12-10T18:07:36-0500
_audit_creation_method            fapswitch 2.2
_symmetry_space_group_name_H-M    P1
_symmetry_Int_Tables_number       1
_space_group_crystal_system       triclinic
_cell_length_a                    11.54679
_cell_length_b                    12.625903
_cell_length_c                    13.109672
_cell_angle_alpha                 83.549203
_cell_angle_beta                  90.701004
_cell_angle_gamma                 102.034182
_cell_volume                      1857.28094566

loop_
_atom_site_label
_atom_site_type_symbol
_atom_type_description
_atom_site_fract_x
_atom_site_fract_y
_atom_site_fract_z
_atom_type_partial_charge
C1    C     C_R   0.493235 0.439964 0.691124 0.874599
C2    C     C_R   0.547963 0.592929 0.200735 -0.076497
C3    C     C_R   0.432855 0.297992 0.835519 -0.237073
C4    C     C_R   0.432844 0.259804 0.938610 -0.153374
C5    C     C_R   0.489262 0.327540 0.009351 0.456353
C6    C     C_R   0.541919 0.438343 0.975226 -0.060141
C7    C     C_R   0.564213 0.467485 0.869441 -0.044265
C8    C     C_R   0.570494 0.522696 0.039477 0.047650
C9    C     C_R   0.651259 0.620960 0.005226 0.022980
C10   C     C_R   0.696629 0.636178 0.905076 0.594936
C11   C     C_R   0.651138 0.561246 0.837035 -0.252132
C12   C     C_R   0.717808 0.500621 0.500135 0.897120
C13   C     C_R   0.511244 0.516335 0.132369 -0.103948
C14   C     C_R   0.633046 0.687323 0.169803 -0.196605
C15   C     C_R   0.498969 0.401403 0.799830 -0.070914
C16   C     C_R   0.304281 0.079539 0.376293 0.401958
C17   C     C_R   0.642834 0.801183 0.626720 -0.059960
C18   C     C_R   0.670600 0.904777 0.657744 -0.244352
C19   C     C_R   0.614274 0.985308 0.612789 0.610262
C20   C     C_R   0.531858 0.962719 0.532628 -0.090507
C21   C     C_R   0.503845 0.854099 0.506774 0.163880
C22   C     C_R   0.472604 0.040926 0.480057 -0.032213
C23   C     C_R   0.515377 0.559943 0.308473 0.862232
C24   C     C_R   0.375010 0.005793 0.415524 0.017313
C25   C     C_R   0.351790 0.898630 0.390945 -0.140008
C26   C     C_R   0.418357 0.825844 0.432756 -0.170239
C27   C     C_R   0.507139 0.153338 0.487137 -0.019817
C28   C     C_R   0.337730 0.187467 0.396267 0.002767
C29   C     C_R   0.282206 0.499427 0.499753 0.894918
C30   C     C_1   0.838687 0.501666 0.500162 -0.145402
C31   C     C_1   0.940806 0.500989 0.499868 0.042130
C32   C     C_1   0.059268 0.499391 0.499468 0.039485
C33   C     C_1   0.161358 0.498569 0.499378 -0.154862
C34   C     C_R   0.682516 0.702572 0.071204 -0.105434
H1    H     H_    0.663630 0.747237 0.222440 0.177636
H2    H     H_    0.283642 0.869915 0.337450 0.217358
H3    H     H_    0.586650 0.188968 0.524651 0.223825
H4    H     H_    0.686989 0.739023 0.661230 0.189048
H5    H     H_    0.734116 0.922042 0.718242 0.225315
H6    H     H_    0.399337 0.746826 0.406984 0.205332
H7    H     H_    0.746240 0.777011 0.047422 0.207299
H8    H     H_    0.437357 0.450073 0.153790 0.194476
H9    H     H_    0.383374 0.245232 0.783255 0.197630
H10   H     H_    0.388693 0.176579 0.963391 0.211551
H11   H     H_    0.686154 0.575874 0.759576 0.174368
H12   H     H_    0.284363 0.245875 0.370151 0.193958
N1    N     N_R   0.440320 0.222190 0.444690 -0.161637
N2    N     N_R   0.559060 0.776980 0.554780 -0.130343
O1    O     O_R   0.471500 0.366730 0.627160 -0.600602
O2    O     O_R   0.509620 0.544830 0.662520 -0.616366
O3    O     O_R   0.646490 0.410960 0.482310 -0.607479
O4    O     O_R   0.684610 0.589050 0.517670 -0.618292
O5    O     O_R   0.490380 0.455170 0.337480 -0.576647
O6    O     O_R   0.528500 0.633270 0.372840 -0.638057
O7    O     O_R   0.315390 0.410950 0.482330 -0.612075
O8    O     O_R   0.353510 0.589040 0.517690 -0.621171
Zn1   Zn    Zn3+2 0.474550 0.381080 0.476390 0.991921
Zn2   Zn    Zn3+2 0.525450 0.618920 0.523610 0.953069
S1    S     S_3+6 0.173930 0.040497 0.304797 0.043037
O9    O     O_2   0.108915 0.132325 0.286783 -0.269445
O10   O     O_2   0.207358 0.010386 0.203067 -0.259939
O11   O     O_3   0.084967 0.932082 0.369862 -0.569924
H13   H     H_    0.018321 0.910496 0.323076 0.387874
F1    F     F_    0.635596 0.080732 0.654649 -0.671856
F2    F     F_    0.778452 0.726689 0.870912 -0.674490
S2    S     S_3+6 0.507006 0.262549 0.133260 0.016481
O12   O     O_2   0.392184 0.249902 0.189805 -0.333875
O13   O     O_2   0.531163 0.151319 0.124942 -0.264070
O14   O     O_3   0.618703 0.334125 0.196749 -0.542587
H14   H     H_    0.613994 0.295335 0.267062 0.387838

loop_
_geom_bond_atom_site_label_1
_geom_bond_atom_site_label_2
_ccdc_geom_bond_type
C14   C34   A    
S2    O13   D    
C18   H5    S    
C28   N1    A    
C16   C28   A    
C8    C13   A    
O3    Zn1   S    
C29   O8    A    
N1    Zn1   S    
C4    H10   S    
C9    C10   A    
C19   C20   A    
C17   N2    A    
C19   F1    S    
C28   H12   S    
C21   N2    A    
C3    H9    S    
C32   C33   T    
C7    C15   A    
C17   C18   A    
C8    C9    A    
C3    C15   A    
S1    O9    D    
C16   C24   A    
S2    O12   D    
C24   C25   A    
N2    Zn2   S    
C1    O2    A    
C30   C31   T    
C26   H6    S    
O11   H13   S    
C34   H7    S    
O4    Zn2   S    
C27   H3    S    
C1    C15   S    
C23   O5    A    
C13   H8    S    
C12   O4    A    
C21   C26   A    
O8    Zn2   S    
C9    C34   A    
C7    C11   A    
C6    C7    A    
C22   C24   A    
C22   C27   A    
O7    Zn1   S    
C5    C6    A    
C2    C14   A    
O14   H14   S    
S1    O10   D    
S2    O14   S    
C11   H11   S    
C10   C11   A    
C25   H2    S    
C27   N1    A    
C3    C4    A    
O2    Zn2   S    
C29   C33   S    
C14   H1    S    
C12   O3    A    
O1    Zn1   S    
C20   C21   A    
C23   O6    A    
C18   C19   A    
O6    Zn2   S    
C10   F2    S    
C17   H4    S    
C2    C23   S    
C2    C13   A    
O5    Zn1   S    
C5    S2    S    
S1    O11   S    
C6    C8    A    
C29   O7    A    
C12   C30   S    
C25   C26   A    
C1    O1    A    
C31   C32   S    
C20   C22   A    
C4    C5    A    
C16   S1    S    
