data_mof_unit_23097.cif
_audit_creation_date              2013-03-05T16:34:33-0500
_audit_creation_method            fapswitch 2.2
_symmetry_space_group_name_H-M    P1
_symmetry_Int_Tables_number       1
_space_group_crystal_system       triclinic
_cell_length_a                    13.009688
_cell_length_b                    9.088997
_cell_length_c                    7.787152
_cell_angle_alpha                 90.030001
_cell_angle_beta                  96.547079
_cell_angle_gamma                 89.859912
_cell_volume                      914.784202941

loop_
_atom_site_label
_atom_site_type_symbol
_atom_site_description
_atom_site_fract_x
_atom_site_fract_y
_atom_site_fract_z
_atom_type_partial_charge
O1    O     O_R   0.500000 0.288400 0.642760 -0.565535
O2    O     O_R   0.500000 0.711600 0.357240 -0.565576
O3    O     O_R   0.500000 0.288400 0.357240 -0.580160
O4    O     O_R   0.500000 0.711600 0.642760 -0.580147
N1    N     N_1   0.499980 0.500000 0.076820 -0.015903
N2    N     N_1   0.500020 0.500000 0.923180 -0.015901
C1    C     C_R   0.499802 0.220044 0.499933 0.857576
C2    C     C_R   0.500194 0.779956 0.500066 0.857490
O5    O     O_R   0.349000 0.500000 0.619590 -0.578368
O6    O     O_R   0.651000 0.500000 0.380410 -0.578389
O7    O     O_R   0.348990 0.500000 0.334020 -0.548461
O8    O     O_R   0.651010 0.500000 0.665980 -0.548448
C3    C     C_R   0.300346 0.503165 0.467373 0.859908
C4    C     C_R   0.699654 0.496824 0.532626 0.860025
Cu1   Cu    Cu3+1 0.500010 0.500000 0.669080 1.089680
Cu2   Cu    Cu3+1 0.499990 0.500000 0.330920 1.089664
C5    C     C_R   0.812301 0.489796 0.553119 -0.193950
C6    C     C_R   0.187697 0.510137 0.446872 -0.193930
C7    C     C_R   0.028614 0.621912 0.316289 0.288232
C8    C     C_R   0.971370 0.377937 0.683648 0.288276
C9    C     C_R   0.136257 0.609471 0.328632 0.229032
C10   C     C_R   0.863726 0.390412 0.671319 0.229055
C11   C     C_R   0.131992 0.417110 0.546566 0.096876
C12   C     C_R   0.868018 0.582809 0.453434 0.096896
C13   C     C_R   0.026291 0.448045 0.558717 -0.060214
C14   C     C_R   0.973708 0.551837 0.441259 -0.060165
C15   C     C_1   0.499921 0.065384 0.499946 -0.100560
C16   C     C_1   0.500075 0.934616 0.500052 -0.100602
C17   C     C_3   0.816874 0.724385 0.382885 -0.625791
H1    H     H_    0.873248 0.816193 0.390813 0.250493
H2    H     H_    0.780641 0.708575 0.248234 0.267286
H3    H     H_    0.755871 0.761555 0.462001 0.185416
C18   C     C_3   0.183166 0.275569 0.617161 -0.625721
H4    H     H_    0.126832 0.183710 0.609085 0.250505
H5    H     H_    0.244253 0.238474 0.538176 0.185356
H6    H     H_    0.219301 0.291377 0.751869 0.267311
N3    N     N_R   0.806856 0.304116 0.782456 0.166361
O9    O     O_R   0.742460 0.204103 0.717199 -0.356450
O10   O     O_R   0.820103 0.324199 0.948958 -0.248418
N4    N     N_R   0.193112 0.695737 0.217450 0.166387
O11   O     O_R   0.180037 0.675346 0.050989 -0.248589
O12   O     O_R   0.257345 0.795981 0.282623 -0.356303
N5    N     N_R   0.975949 0.698017 0.170292 0.140353
O13   O     O_R   0.997440 0.834881 0.140983 -0.262234
O14   O     O_R   0.916366 0.625033 0.054815 -0.295242
N6    N     N_R   0.024015 0.301720 0.829571 0.140358
O15   O     O_R   0.083488 0.374646 0.945251 -0.295141
O16   O     O_R   0.002569 0.164799 0.858635 -0.262339

loop_
_geom_bond_atom_site_label_1
_geom_bond_atom_site_label_2
_geom_bond_distance
_ccdc_geom_bond_type
N5    O13   1.301629 A    
C17   H1    1.109323 S    
O1    Cu1   1.934015 S    
C6    C9    1.402922 A    
O7    C3    1.276486 A    
O7    Cu2   1.967362 S    
C5    C10   1.402943 A    
O8    Cu1   1.967362 S    
O4    C2    1.273614 A    
O4    Cu1   1.934227 S    
N4    O12   1.300976 A    
C18   H4    1.109311 S    
O5    Cu1   1.958442 S    
C1    C15   1.405704 S    
C17   H2    1.108951 S    
C13   C14   1.431641 A    
O6    Cu2   1.958442 S    
N5    O14   1.300942 A    
C4    C5    1.457218 S    
N3    O9    1.300985 A    
C9    N4    1.435633 S    
C3    C6    1.457216 S    
O1    C1    1.273442 A    
N4    O11   1.301224 A    
C18   H5    1.110628 S    
O8    C4    1.276491 A    
C17   H3    1.110641 S    
O3    C1    1.273613 A    
C11   C13   1.416608 A    
N1    N2    1.196478 T    
C2    C16   1.405704 S    
N6    O16   1.301609 A    
C5    C12   1.405232 A    
C8    C13   1.422814 A    
C8    C10   1.397069 A    
C6    C11   1.405257 A    
C18   H6    1.108940 S    
O2    Cu2   1.934014 S    
C11   C18   1.521027 S    
N3    O10   1.301181 A    
O6    C4    1.278808 A    
O2    C2    1.273441 A    
C15   C16   1.188546 T    
C7    C14   1.422788 A    
O5    C3    1.278813 A    
C12   C17   1.521031 S    
N1    Cu2   1.978700 S    
C7    C9    1.397030 A    
N2    Cu1   1.978700 S    
N6    O15   1.300922 A    
C10   N3    1.435670 S    
C8    N6    1.435696 S    
O3    Cu2   1.934228 S    
Cu1   Cu2   2.633275 S    
C7    N5    1.435736 S    
C12   C14   1.416566 A    
