data_mof_unit_42428.cif
_audit_creation_date              2012-12-11T15:39:23-0500
_audit_creation_method            fapswitch 2.2
_symmetry_space_group_name_H-M    P1
_symmetry_Int_Tables_number       1
_space_group_crystal_system       triclinic
_cell_length_a                    7.066975
_cell_length_b                    15.053721
_cell_length_c                    16.643605
_cell_angle_alpha                 95.394818
_cell_angle_beta                  87.870354
_cell_angle_gamma                 88.761668
_cell_volume                      1760.99627907

loop_
_atom_site_label
_atom_site_type_symbol
_atom_type_description
_atom_site_fract_x
_atom_site_fract_y
_atom_site_fract_z
_atom_type_partial_charge
O1    O     O_R   0.633330 0.174290 0.828230 -0.530058
O2    O     O_R   0.366670 0.825710 0.171770 -0.530083
O3    O     O_R   0.301450 0.154140 0.662030 -0.544773
O4    O     O_R   0.698550 0.845860 0.337970 -0.538767
O5    O     O_R   0.133140 0.325730 0.671770 -0.534740
O6    O     O_R   0.866860 0.674270 0.328230 -0.539950
C1    C     C_R   0.475001 0.125715 0.640244 0.706844
C2    C     C_R   0.526507 0.867251 0.367307 0.693271
O7    O     O_R   0.303490 0.163670 0.827000 -0.531692
O8    O     O_R   0.696510 0.836330 0.173000 -0.522931
O9    O     O_R   0.135190 0.335320 0.837920 -0.519227
O10   O     O_R   0.864810 0.664680 0.162080 -0.519715
C3    C     C_R   0.471469 0.143219 0.853509 0.741865
C4    C     C_R   0.528533 0.856749 0.146469 0.755243
O11   O     O_R   0.631280 0.164690 0.662080 -0.546111
O12   O     O_R   0.368720 0.835310 0.337920 -0.549946
O13   O     O_3   0.467420 0.306310 0.753380 -0.366094
O14   O     O_3   0.532580 0.693690 0.246620 -0.368578
V1    V     V_3+5 0.191790 0.239560 0.749370 1.412308
V2    V     V_3+5 0.808210 0.760440 0.250630 1.422976
O15   O     O_R   0.805590 0.345870 0.837970 -0.543385
O16   O     O_R   0.194410 0.654130 0.162030 -0.543648
C5    C     C_R   0.969298 0.366139 0.868515 0.745402
C6    C     C_R   0.030705 0.633874 0.131475 0.744732
O17   O     O_R   0.803560 0.336340 0.672990 -0.532029
O18   O     O_R   0.196440 0.663660 0.327010 -0.532364
C7    C     C_R   0.973154 0.356429 0.646182 0.711950
C8    C     C_R   0.026863 0.643583 0.353821 0.707968
V3    V     V_3+5 0.692030 0.260450 0.750630 1.417846
V4    V     V_3+5 0.307970 0.739550 0.249370 1.414007
O19   O     O_3   0.966260 0.193700 0.746610 -0.378986
O20   O     O_3   0.033740 0.806300 0.253390 -0.373728
C9    C     C_1   0.984623 0.418460 0.583635 -0.193015
C10   C     C_1   0.015445 0.581575 0.416381 -0.191806
C11   C     C_1   0.994320 0.469856 0.531042 0.003095
C12   C     C_1   0.005758 0.530205 0.468992 0.002285
C13   C     C_3   0.868496 0.566398 0.998754 0.140340
C14   C     C_3   0.131523 0.433635 0.001217 0.140598
C15   C     C_3   0.010284 0.532771 0.928727 -0.197933
C16   C     C_3   0.989731 0.467259 0.071244 -0.198110
H1    H     H_    0.015341 0.559577 0.868762 0.139565
H2    H     H_    0.984664 0.440449 0.131207 0.139718
C17   C     C_3   0.970559 0.434795 0.941589 -0.131194
C18   C     C_3   0.029455 0.565237 0.058384 -0.130945
C19   C     C_3   0.828431 0.467341 0.011506 0.125868
C20   C     C_3   0.171587 0.532693 0.988464 0.125973
C21   C     C_3   0.658112 0.981458 0.552140 -0.218800
C22   C     C_3   0.349725 0.003344 0.464668 -0.254215
C23   C     C_3   0.512434 0.909433 0.529775 0.127263
C24   C     C_3   0.498934 0.074100 0.486004 0.111549
H3    H     H_    0.780691 0.965236 0.586229 0.141935
H4    H     H_    0.248769 0.029911 0.423704 0.147225
C25   C     C_3   0.511370 0.933759 0.441968 -0.075939
C26   C     C_3   0.495238 0.050755 0.574355 -0.082401
C27   C     C_3   0.657862 0.004727 0.463697 0.139436
C28   C     C_3   0.348353 0.978482 0.554800 0.154503
C29   C     C_1   0.480524 0.081022 0.916073 -0.154254
C30   C     C_1   0.519480 0.918863 0.083825 -0.156101
C31   C     C_1   0.492262 0.029880 0.968787 0.036014
C32   C     C_1   0.507741 0.969961 0.031072 0.036883
I1    I     I_    0.743900 0.694862 0.981379 -0.502572
I2    I     I_    0.256164 0.305169 0.018556 -0.499029
C33   C     C_3   0.649601 0.422863 0.037707 -0.333313
C34   C     C_3   0.571343 0.464296 0.120556 -0.696985
H5    H     H_    0.654184 0.439150 0.169437 0.213370
H6    H     H_    0.578213 0.538157 0.125845 0.237130
H7    H     H_    0.421770 0.446271 0.130527 0.234123
H8    H     H_    0.546304 0.427963 0.990806 0.210237
H9    H     H_    0.681918 0.350817 0.041299 0.211936
C35   C     C_3   0.350391 0.577191 0.962254 -0.333525
C36   C     C_3   0.428629 0.535780 0.879394 -0.697485
H10   H     H_    0.421790 0.461916 0.874097 0.237371
H11   H     H_    0.345753 0.560929 0.830524 0.213091
H12   H     H_    0.578192 0.553821 0.869414 0.234085
H13   H     H_    0.453718 0.572094 0.009142 0.210280
H14   H     H_    0.318046 0.649237 0.958675 0.211691
C37   C     C_3   0.523316 0.813881 0.556268 -0.384071
C38   C     C_3   0.703731 0.762008 0.526656 -0.757449
H15   H     H_    0.709346 0.750300 0.460107 0.234564
H16   H     H_    0.830440 0.798117 0.547884 0.211867
H17   H     H_    0.704714 0.695921 0.551204 0.225184
H18   H     H_    0.519171 0.817172 0.623156 0.184922
H19   H     H_    0.398931 0.776534 0.533859 0.179433
C39   C     C_3   0.505445 0.167578 0.456243 -0.376356
C40   C     C_3   0.315456 0.218354 0.467627 -0.735621
H20   H     H_    0.207205 0.184458 0.429957 0.210630
H21   H     H_    0.264885 0.224309 0.531641 0.239079
H22   H     H_    0.332056 0.286646 0.448718 0.219933
H23   H     H_    0.615128 0.206484 0.489117 0.179132
H24   H     H_    0.547357 0.160894 0.390921 0.181118
C41   C     C_3   0.834912 0.013854 0.411856 -0.384213
C42   C     C_3   0.968920 0.936198 0.423544 -0.665053
H25   H     H_    0.905255 0.872052 0.432850 0.228570
H26   H     H_    0.073272 0.925751 0.372302 0.233203
H27   H     H_    0.029876 0.952155 0.481786 0.211008
H28   H     H_    0.798282 0.013544 0.347516 0.178784
H29   H     H_    0.902814 0.077999 0.430602 0.163027
C43   C     C_3   0.203402 0.941677 0.615656 -0.439777
C44   C     C_3   0.071313 0.009007 0.664276 -0.645585
H30   H     H_    0.017500 0.059972 0.626124 0.237458
H31   H     H_    0.951800 0.973757 0.691156 0.180200
H32   H     H_    0.143951 0.039442 0.717485 0.237914
H33   H     H_    0.120643 0.887911 0.584600 0.169285
H34   H     H_    0.282370 0.909412 0.661824 0.177267

loop_
_geom_bond_atom_site_label_1
_geom_bond_atom_site_label_2
_ccdc_geom_bond_type
V4    O20   S    
C23   C25   S    
O13   V3    S    
C11   C12   S    
C28   C43   S    
O4    C2    A    
V1    O19   S    
C24   C39   S    
C21   C23   S    
C37   C38   S    
C7    C9    S    
O9    V1    S    
C24   C26   S    
O3    C1    A    
C38   H16   S    
C29   C31   T    
C3    C29   S    
C37   H19   S    
O12   V4    S    
C43   H33   S    
C5    C17   S    
O7    C3    A    
C27   C41   S    
C9    C11   T    
C41   H28   S    
O5    C7    A    
O7    V1    S    
O6    C8    A    
C33   H9    S    
O8    V2    S    
O3    V1    S    
C35   C36   S    
O14   V4    S    
C10   C12   T    
C22   C24   S    
C8    C10   S    
C31   C32   S    
C2    O12   A    
C16   C19   S    
C39   H24   S    
O1    V3    S    
C18   C20   S    
O11   V3    S    
C25   C27   S    
O17   V3    S    
C22   C25   S    
C4    C30   S    
C26   C28   S    
C20   C35   S    
C40   H21   S    
C34   H7    S    
C39   C40   S    
C15   H1    S    
O8    C4    A    
C41   C42   S    
C36   H11   S    
C38   H15   S    
C21   H3    S    
C1    O11   A    
C40   H20   S    
O15   V3    S    
C19   C33   S    
C42   H27   S    
C34   H6    S    
C44   H30   S    
C16   C18   S    
O10   V2    S    
C42   H26   S    
C41   H29   S    
C17   C19   S    
C15   C20   S    
C44   H31   S    
O18   V4    S    
C21   C26   S    
C35   H14   S    
C6    C18   S    
O16   C6    A    
O1    C3    A    
C39   H23   S    
C13   C19   S    
C21   C27   S    
V2    O20   S    
C40   H22   S    
C22   C28   S    
C33   H8    S    
O16   V4    S    
C16   H2    S    
C2    C25   S    
C36   H12   S    
C13   I1    S    
O5    V1    S    
O17   C7    A    
C23   C28   S    
O6    V2    S    
O10   C6    A    
O18   C8    A    
C24   C27   S    
O2    V4    S    
C34   H5    S    
C13   C18   S    
O15   C5    A    
C14   C17   S    
V3    O19   S    
C14   C16   S    
C38   H17   S    
C37   H18   S    
C43   H34   S    
O9    C5    A    
C42   H25   S    
O13   V1    S    
C23   C37   S    
O14   V2    S    
O2    C4    A    
C14   C20   S    
C33   C34   S    
O4    V2    S    
C22   H4    S    
C44   H32   S    
C36   H10   S    
C15   C17   S    
C13   C15   S    
C43   C44   S    
C35   H13   S    
C1    C26   S    
C30   C32   T    
C14   I2    S    
