data_mof_unit_35895.cif
_audit_creation_date              2013-03-05T16:02:22-0500
_audit_creation_method            fapswitch 2.2
_symmetry_space_group_name_H-M    P1
_symmetry_Int_Tables_number       1
_space_group_crystal_system       triclinic
_cell_length_a                    15.031897
_cell_length_b                    14.005315
_cell_length_c                    10.726116
_cell_angle_alpha                 89.407005
_cell_angle_beta                  90.350141
_cell_angle_gamma                 90.196571
_cell_volume                      2257.95524191

loop_
_atom_site_label
_atom_site_type_symbol
_atom_site_description
_atom_site_fract_x
_atom_site_fract_y
_atom_site_fract_z
_atom_type_partial_charge
O1    O     O_R   0.367860 0.580280 0.500020 -0.626168
O2    O     O_R   0.367860 0.419720 0.500020 -0.622243
C1    C     C_R   0.326642 0.499617 0.500236 0.914689
O3    O     O_R   0.500000 0.580270 0.314790 -0.617039
O4    O     O_R   0.500000 0.419730 0.314790 -0.595821
C2    C     C_R   0.500194 0.500354 0.257042 0.867955
Zn1   Zn    Zn3+2 0.500020 0.607200 0.499990 0.930876
Zn2   Zn    Zn3+2 0.500020 0.392800 0.499990 0.947605
O5    O     O_R   0.632160 0.580270 0.499960 -0.623610
O6    O     O_R   0.632160 0.419730 0.499960 -0.627005
O7    O     O_R   0.500030 0.580270 0.685200 -0.640906
O8    O     O_R   0.500030 0.419730 0.685200 -0.613881
C3    C     C_R   0.672852 0.500317 0.496249 0.897384
C4    C     C_R   0.498737 0.499320 0.742097 0.920313
C5    C     C_3   0.419619 0.563127 0.068673 -0.037318
C6    C     C_3   0.487383 0.394474 0.072973 0.000179
H1    H     H_    0.357415 0.527081 0.099473 0.109523
H2    H     H_    0.422894 0.367777 0.110913 0.133294
C7    C     C_3   0.423301 0.567698 0.924207 0.025804
C8    C     C_3   0.484103 0.393527 0.929532 0.011663
H3    H     H_    0.446024 0.640867 0.896749 0.185382
H4    H     H_    0.542064 0.351990 0.894977 0.162365
H5    H     H_    0.600733 0.614811 0.098073 0.183226
H6    H     H_    0.646074 0.499430 0.106678 0.178558
H7    H     H_    0.602665 0.607729 0.886434 0.196735
H8    H     H_    0.642533 0.487591 0.894350 0.173451
C9    C     C_3   0.588661 0.540241 0.068656 -0.443153
C10   C     C_3   0.499293 0.500315 0.119837 -0.011353
C11   C     C_3   0.496474 0.497952 0.877731 -0.003123
C12   C     C_3   0.588138 0.535398 0.925518 -0.538651
C13   C     C_R   0.812384 0.558820 0.400169 0.139905
C14   C     C_R   0.767736 0.501578 0.489132 -0.066887
C15   C     C_R   0.813320 0.446874 0.577169 -0.330935
C16   C     C_R   0.905007 0.448199 0.580308 0.133996
C17   C     C_R   0.952038 0.505744 0.494323 0.040827
C18   C     C_R   0.905794 0.562697 0.405442 0.109815
C19   C     C_R   0.949993 0.392894 0.669005 -0.232204
C20   C     C_R   0.041981 0.391892 0.670896 -0.183273
C21   C     C_R   0.090572 0.445590 0.582998 0.083144
C22   C     C_R   0.045396 0.504719 0.495942 -0.028351
C23   C     C_R   0.092950 0.560784 0.408526 0.112114
C24   C     C_R   0.046093 0.620566 0.325142 -0.211470
C25   C     C_R   0.954237 0.621418 0.323544 -0.227479
C26   C     C_R   0.183359 0.441573 0.581548 0.085937
C27   C     C_R   0.230564 0.498848 0.495607 -0.150300
C28   C     C_R   0.186005 0.555015 0.405099 0.101443
H9    H     H_    0.776787 0.403923 0.644616 0.146548
H10   H     H_    0.913972 0.349826 0.736558 0.141351
H11   H     H_    0.074460 0.348412 0.741498 0.176058
H12   H     H_    0.079472 0.667444 0.259613 0.160705
H13   H     H_    0.922145 0.668633 0.256893 0.161925
C29   C     C_R   0.567919 0.798628 0.555370 -0.070087
C30   C     C_R   0.567421 0.201024 0.556660 -0.069131
N1    N     N_R   0.500070 0.750030 0.500050 -0.110891
N2    N     N_R   0.500070 0.249970 0.500050 -0.098618
C31   C     C_R   0.429974 0.797197 0.447003 -0.044037
C32   C     C_R   0.431748 0.203208 0.442976 -0.067165
C33   C     C_R   0.424458 0.898451 0.449107 -0.052242
C34   C     C_R   0.427254 0.101958 0.442638 -0.057091
C35   C     C_R   0.496483 0.949407 0.501536 0.030229
C36   C     C_R   0.496851 0.050592 0.500832 0.035129
C37   C     C_R   0.568187 0.899009 0.556659 0.048563
C38   C     C_R   0.567958 0.100623 0.557402 0.044572
C39   C     C_R   0.350229 0.949908 0.400154 0.202545
C40   C     C_R   0.354937 0.051484 0.388015 0.196676
C41   C     C_R   0.638015 0.049591 0.613337 -0.212946
C42   C     C_R   0.638332 0.949667 0.612464 -0.208536
H14   H     H_    0.621971 0.758946 0.598073 0.136591
H15   H     H_    0.620779 0.240448 0.601003 0.127907
H16   H     H_    0.379934 0.754666 0.401029 0.165506
H17   H     H_    0.380392 0.246106 0.399669 0.156589
H18   H     H_    0.692906 0.087027 0.657157 0.136189
H19   H     H_    0.693482 0.911932 0.655614 0.137820
N3    N     N_2   0.420423 0.659818 0.119709 -0.272868
H20   H     H_    0.480421 0.695348 0.117849 0.245450
C43   C     C_3   0.347527 0.722580 0.086731 -0.825128
H21   H     H_    0.338664 0.775095 0.162022 0.247194
H22   H     H_    0.284599 0.682348 0.073984 0.255890
H23   H     H_    0.363064 0.762558 0.999603 0.235026
N4    N     N_2   0.559549 0.332942 0.118899 -0.269547
H24   H     H_    0.621562 0.344861 0.081183 0.219096
C44   C     C_3   0.540172 0.232730 0.138982 -0.746905
H25   H     H_    0.589593 0.202363 0.205575 0.243083
H26   H     H_    0.545479 0.193695 0.049878 0.221234
H27   H     H_    0.473025 0.222333 0.179498 0.235997
N5    N     N_2   0.228631 0.378675 0.665833 -0.307135
H28   H     H_    0.287401 0.402958 0.703930 0.264823
C45   C     C_3   0.228463 0.278779 0.631508 -0.764024
H29   H     H_    0.296682 0.256221 0.606753 0.252860
H30   H     H_    0.183640 0.264556 0.550801 0.239603
H31   H     H_    0.205240 0.234981 0.711781 0.224708
C46   C     C_3   0.235764 0.602237 0.298612 -0.916902
H32   H     H_    0.306325 0.581578 0.292982 0.266406
H33   H     H_    0.205554 0.579715 0.208835 0.224713
H34   H     H_    0.232158 0.680940 0.307085 0.244908
C47   C     C_3   0.263368 0.899184 0.370821 -0.956402
H35   H     H_    0.206470 0.941263 0.405951 0.256727
H36   H     H_    0.255868 0.889816 0.268798 0.238166
H37   H     H_    0.256743 0.829466 0.419285 0.234029
C48   C     C_3   0.283502 0.106653 0.317452 -0.946114
H38   H     H_    0.236180 0.060807 0.265802 0.258006
H39   H     H_    0.245215 0.151049 0.383202 0.238877
H40   H     H_    0.314870 0.153368 0.245786 0.226198
N6    N     N_2   0.336342 0.549469 0.866420 -0.326039
H41   H     H_    0.289561 0.514484 0.919961 0.216918
C49   C     C_3   0.297830 0.625319 0.790905 -0.798605
H42   H     H_    0.241610 0.596458 0.735390 0.239019
H43   H     H_    0.347466 0.656205 0.725814 0.276922
H44   H     H_    0.271558 0.682484 0.850821 0.235430
N7    N     N_2   0.402588 0.348188 0.884115 -0.286605
H45   H     H_    0.344912 0.370211 0.925974 0.214903
C50   C     C_3   0.405176 0.245455 0.870680 -0.776477
H46   H     H_    0.403895 0.210055 0.963508 0.230691
H47   H     H_    0.464853 0.223300 0.817781 0.247254
H48   H     H_    0.345602 0.221146 0.818911 0.241563
C51   C     C_3   0.762198 0.611614 0.297196 -0.937402
H49   H     H_    0.768408 0.689848 0.310663 0.246264
H50   H     H_    0.789651 0.592236 0.205001 0.228475
H51   H     H_    0.690739 0.593508 0.292258 0.250546

loop_
_geom_bond_atom_site_label_1
_geom_bond_atom_site_label_2
_geom_bond_distance
_ccdc_geom_bond_type
C6    C10   1.579411 S    
C2    C10   1.471662 S    
C16   C19   1.393849 A    
C23   C24   1.406379 A    
C3    C14   1.428837 S    
C17   C18   1.417142 A    
H6    C9    1.109986 S    
C30   H15   1.082661 S    
C50   H47   1.111180 S    
C20   H11   1.081956 S    
C27   C28   1.410583 A    
C5    C7    1.551536 S    
C19   C20   1.382901 A    
N3    C43   1.447025 S    
C37   C42   1.403341 A    
C7    H3    1.116285 S    
C43   H22   1.107854 S    
C20   C21   1.406399 A    
O7    C4    1.282129 A    
N5    C45   1.450375 S    
C32   C34   1.419453 A    
C28   C46   1.514224 S    
C49   H42   1.108419 S    
C33   C35   1.411827 A    
C47   H37   1.105889 S    
C51   H49   1.110204 S    
C35   C37   1.413630 A    
C16   C17   1.410187 A    
C36   C38   1.413285 A    
O5    C3    1.278881 A    
N7    H45   1.028516 S    
N6    H41   1.030112 S    
C41   H18   1.083526 S    
C51   H50   1.110483 S    
C47   H36   1.108520 S    
C23   C28   1.402131 A    
C43   H23   1.110119 S    
C42   H19   1.083515 S    
H5    C9    1.108164 S    
C29   H14   1.082642 S    
C6    C8    1.539243 S    
C41   C42   1.399619 A    
C38   C41   1.402986 A    
C9    C12   1.537489 S    
O3    Zn1   2.025795 S    
C26   N5    1.427072 S    
Zn2   N2    2.000377 S    
N6    C49   1.449268 S    
C50   H46   1.107935 S    
C29   N1    1.360791 A    
C8    C11   1.569968 S    
C30   N2    1.360971 A    
C33   C39   1.425000 A    
N1    C31   1.363826 A    
C34   C36   1.410503 A    
N3    H20   1.028758 S    
C43   H21   1.106869 S    
C39   C47   1.517141 S    
N4    C44   1.446632 S    
C21   C22   1.413848 A    
N5    H28   1.029312 S    
C1    C27   1.444787 S    
C48   H40   1.110488 S    
C35   C36   1.417063 A    
O1    C1    1.286588 A    
Zn1   O7    2.018231 S    
C11   C12   1.558301 S    
C7    N6    1.465994 S    
C13   C14   1.411385 A    
C45   H31   1.109389 S    
Zn2   O8    2.025901 S    
C47   H35   1.110313 S    
C46   H33   1.110382 S    
C15   C16   1.378492 A    
C32   H17   1.079679 S    
C19   H10   1.084218 S    
C24   H12   1.081351 S    
C8    N7    1.461408 S    
O3    C2    1.284835 A    
C22   C23   1.412721 A    
C45   H30   1.112906 S    
H8    C12   1.113717 S    
C44   H26   1.109382 S    
N2    C32   1.361767 A    
C15   H9    1.086455 S    
C24   C25   1.380862 A    
C4    C11   1.455356 S    
C7    C11   1.560983 S    
C13   C51   1.520677 S    
C26   C27   1.409067 A    
C48   H39   1.109822 S    
H7    C12   1.113756 S    
C5    H1    1.111491 S    
O1    Zn1   2.020807 S    
Zn2   O6    2.020534 S    
O2    Zn2   2.023349 S    
C40   C48   1.518729 S    
C8    H4    1.116585 S    
N4    H24   1.030837 S    
O6    C3    1.282267 A    
O4    Zn2   2.018126 S    
C21   C26   1.396282 A    
C44   H27   1.109913 S    
C31   H16   1.078088 S    
C51   H51   1.103930 S    
C14   C15   1.388843 A    
O2    C1    1.280947 A    
O8    C4    1.276601 A    
C29   C37   1.406069 A    
C34   C40   1.421352 A    
C30   C38   1.406128 A    
C25   H13   1.081331 S    
C5    C10   1.580694 S    
O4    C2    1.282267 A    
C49   H43   1.108678 S    
C39   C40   1.428765 A    
C46   H32   1.102559 S    
C31   C33   1.421216 A    
C17   C22   1.403482 A    
C46   H34   1.108468 S    
N7    C50   1.448166 S    
Zn1   O5    2.023078 S    
C5    N3    1.465887 S    
C45   H29   1.108679 S    
C6    H2    1.115487 S    
C44   H25   1.110123 S    
C9    C10   1.554410 S    
C13   C18   1.405808 A    
C18   C25   1.402500 A    
C48   H38   1.106614 S    
Zn1   N1    2.000383 S    
C6    N4    1.467375 S    
C50   H48   1.105413 S    
C49   H44   1.107197 S    
