data_mof_unit_57900.cif
_audit_creation_date              2012-10-26T20:51:07-0400
_audit_creation_method            fapswitch 2.2
_symmetry_space_group_name_H-M    P1
_symmetry_Int_Tables_number       1
_space_group_crystal_system       triclinic
_cell_length_a                    12.979753
_cell_length_b                    10.820924
_cell_length_c                    9.58086
_cell_angle_alpha                 89.851288
_cell_angle_beta                  96.771441
_cell_angle_gamma                 91.641894
_cell_volume                      1335.72394354

loop_
_atom_site_label
_atom_site_type_symbol
_atom_type_description
_atom_site_fract_x
_atom_site_fract_y
_atom_site_fract_z
_atom_type_partial_charge
C1    C     C_R   0.501247 0.262559 0.500351 0.539965
C2    C     C_R   0.541655 0.937526 0.387989 -0.140289
C3    C     C_R   0.509616 0.871087 0.502322 0.038586
C4    C     C_R   0.300731 0.505952 0.472939 0.577193
C5    C     C_R   0.490544 0.935955 0.621915 -0.008233
C6    C     C_3   0.401671 0.928048 0.708915 -0.057553
C7    C     C_3   0.404300 0.068892 0.709778 -0.265054
C8    C     C_R   0.578334 0.558182 0.085781 0.149163
C9    C     C_R   0.429365 0.428220 0.060628 0.125606
C10   C     C_R   0.428426 0.433049 0.912117 0.033560
C11   C     C_R   0.579269 0.556552 0.939030 0.149265
C12   C     C_R   0.027992 0.487966 0.562120 0.049546
C13   C     C_3   0.612638 0.689285 0.936692 -0.273061
C14   C     C_3   0.608673 0.691875 0.094317 -0.282262
C15   C     C_R   0.501584 0.737571 0.500150 0.578335
C16   C     C_R   0.699432 0.500319 0.526808 0.539428
C17   C     C_R   0.812375 0.499590 0.542236 0.003904
C18   C     C_R   0.187816 0.517894 0.456641 -0.007895
C19   C     C_R   0.023325 0.567844 0.323627 -0.139957
C20   C     C_R   0.131586 0.565789 0.333011 0.034827
C21   C     C_R   0.135087 0.480529 0.570107 -0.117646
C22   C     C_3   0.347367 0.342814 0.113389 -0.254448
C23   C     C_R   0.971696 0.530053 0.437129 0.019508
C24   C     C_3   0.352519 0.209791 0.061560 -0.474633
C25   C     C_2   0.182155 0.621556 0.215859 0.573987
C26   C     C_2   0.303410 0.870677 0.633191 0.594980
C27   C     C_R   0.864273 0.535195 0.427835 -0.122553
C28   C     C_R   0.868639 0.460361 0.667656 -0.129189
C29   C     C_R   0.976206 0.453822 0.677284 -0.110699
C30   C     C_R   0.491952 0.063132 0.622478 0.002188
C31   C     C_R   0.509935 0.129774 0.502692 0.028745
C32   C     C_R   0.541231 0.066472 0.387689 -0.145674
Cu1   Cu    Cu3+1 0.499990 0.499980 0.640670 0.960928
Cu2   Cu    Cu3+1 0.500010 0.500020 0.359330 0.957233
H1    H     H_    0.821085 0.567269 0.331322 0.117179
H2    H     H_    0.829416 0.432424 0.756853 0.132039
H3    H     H_    0.979359 0.603332 0.229390 0.133514
H4    H     H_    0.018739 0.421886 0.774201 0.128277
H5    H     H_    0.177440 0.444957 0.665474 0.130346
H6    H     H_    0.562106 0.115910 0.296210 0.130897
H7    H     H_    0.563849 0.890605 0.297458 0.115016
H8    H     H_    0.318717 0.202015 0.950059 0.132078
H9    H     H_    0.433943 0.178760 0.073961 0.153168
H10   H     H_    0.306109 0.147192 0.123655 0.166591
H11   H     H_    0.353574 0.335269 0.226925 0.218135
H12   H     H_    0.424061 0.888480 0.814939 0.099617
H13   H     H_    0.269253 0.378611 0.077729 0.154650
H14   H     H_    0.294946 0.735036 0.155720 0.341844
H15   H     H_    0.199515 0.864411 0.459149 0.352272
H16   H     H_    0.334668 0.112674 0.653725 0.156454
H17   H     H_    0.431437 0.108358 0.814829 0.112173
H18   H     H_    0.369582 0.382264 0.844182 0.120565
H19   H     H_    0.692533 0.701629 0.906996 0.131198
H20   H     H_    0.553929 0.748024 0.877824 0.153046
H21   H     H_    0.685773 0.708926 0.155995 0.120519
H22   H     H_    0.544946 0.749043 0.123583 0.146657
N1    N     N_R   0.500660 0.500930 0.148010 -0.226293
N2    N     N_R   0.500660 0.500890 0.852110 -0.243745
O1    O     O_R   0.500000 0.319640 0.618810 -0.507521
O2    O     O_R   0.267704 0.702917 0.244288 -0.655355
O3    O     O_2   0.257535 0.788038 0.690021 -0.498296
O4    O     O_R   0.265419 0.910956 0.498530 -0.684439
O5    O     O_R   0.500010 0.319680 0.381230 -0.527748
O6    O     O_R   0.348990 0.499960 0.599490 -0.496631
O7    O     O_R   0.349000 0.500000 0.361910 -0.495064
O8    O     O_R   0.499990 0.680320 0.618770 -0.501976
O9    O     O_R   0.500000 0.680360 0.381190 -0.486832
O10   O     O_R   0.651000 0.500000 0.638090 -0.505491
O11   O     O_R   0.651010 0.500040 0.400510 -0.508717
O12   O     O_2   0.146288 0.600294 0.094172 -0.535930

loop_
_geom_bond_atom_site_label_1
_geom_bond_atom_site_label_2
_ccdc_geom_bond_type
Cu2   O9    S    
C29   H4    S    
Cu2   N1    S    
C14   H22   S    
C6    C7    S    
C16   O10   A    
C25   O2    S    
C23   C27   A    
C8    N1    A    
C18   C21   A    
C24   H8    S    
C9    C10   A    
C4    O6    A    
C19   C23   A    
C19   C20   A    
C21   H5    S    
C10   H18   S    
C30   C31   A    
C15   O9    A    
C25   O12   D    
C22   C24   S    
C32   H6    S    
C14   H21   S    
C26   O4    S    
C4    C18   S    
Cu1   O1    S    
C7    C30   S    
C6    C26   S    
C13   C14   S    
C15   O8    A    
C11   C13   S    
C12   C23   A    
Cu1   N2    S    
C8    C11   A    
C1    O5    A    
Cu2   O7    S    
C28   C29   A    
C10   N2    A    
C26   O3    D    
Cu1   Cu2   S    
Cu1   O8    S    
H14   O2    S    
C13   H19   S    
C1    O1    A    
C5    C6    S    
C24   H10   S    
C13   H20   S    
C22   H13   S    
C9    C22   S    
C19   H3    S    
C20   C25   S    
C16   O11   A    
C2    H7    S    
C7    H17   S    
C17   C27   A    
Cu1   O6    S    
C1    C31   S    
C22   H11   S    
C3    C15   S    
C28   H2    S    
C18   C20   A    
C2    C32   A    
C5    C30   A    
C7    H16   S    
C24   H9    S    
C9    N1    A    
C4    O7    A    
Cu2   O5    S    
C8    C14   S    
H15   O4    S    
C6    H12   S    
C27   H1    S    
C17   C28   A    
Cu2   O11   S    
C12   C21   A    
C2    C3    A    
C31   C32   A    
Cu1   O10   S    
C16   C17   S    
C3    C5    A    
C12   C29   A    
C11   N2    A    
