data_mof_unit_44237.cif
_audit_creation_date              2012-12-10T18:44:21-0500
_audit_creation_method            fapswitch 2.2
_symmetry_space_group_name_H-M    P1
_symmetry_Int_Tables_number       1
_space_group_crystal_system       triclinic
_cell_length_a                    12.750457
_cell_length_b                    10.646266
_cell_length_c                    9.937176
_cell_angle_alpha                 90.047721
_cell_angle_beta                  98.026408
_cell_angle_gamma                 91.272719
_cell_volume                      1335.3652122

loop_
_atom_site_label
_atom_site_type_symbol
_atom_type_description
_atom_site_fract_x
_atom_site_fract_y
_atom_site_fract_z
_atom_type_partial_charge
C1    C     C_R   0.501658 0.260501 0.500045 0.968850
C2    C     C_R   0.498342 0.739499 0.499955 0.968850
C3    C     C_R   0.497477 0.871962 0.500247 -0.198124
C4    C     C_R   0.502524 0.128038 0.499753 -0.198124
C5    C     C_R   0.566853 0.578587 0.083520 0.356525
C6    C     C_R   0.433147 0.421413 0.916480 0.356525
C7    C     C_R   0.567168 0.578315 0.940283 0.230756
C8    C     C_R   0.432832 0.421685 0.059717 0.230756
C9    C     C_R   0.298564 0.503500 0.472005 1.000168
C10   C     C_R   0.701436 0.496500 0.527995 1.000168
C11   C     C_R   0.813869 0.486390 0.548195 -0.271047
C12   C     C_R   0.186131 0.513610 0.451805 -0.271048
C13   C     C_R   0.032132 0.639134 0.394919 0.464312
C14   C     C_R   0.967869 0.360870 0.605086 0.464311
C15   C     C_R   0.139670 0.621778 0.393138 0.160314
C16   C     C_R   0.860331 0.378224 0.606864 0.160313
C17   C     C_R   0.126930 0.418281 0.502377 0.408954
C18   C     C_R   0.873070 0.581721 0.497624 0.408955
C19   C     C_R   0.023991 0.443332 0.526930 -0.184100
C20   C     C_R   0.976010 0.556671 0.473073 -0.184098
C21   C     C_R   0.569927 0.064098 0.424606 0.420996
C22   C     C_R   0.430074 0.935902 0.575394 0.420996
C23   C     C_R   0.566641 0.935163 0.425251 -0.155950
C24   C     C_R   0.433359 0.064837 0.574749 -0.155951
H1    H     H_    0.619456 0.884272 0.369622 0.256793
H2    H     H_    0.380545 0.115728 0.630379 0.256794
N1    N     N_R   0.499970 0.499970 0.857200 -0.189822
N2    N     N_R   0.500030 0.500030 0.142800 -0.189822
O1    O     O_R   0.499990 0.316750 0.614620 -0.582757
O2    O     O_R   0.500010 0.683250 0.385380 -0.582756
O3    O     O_R   0.499990 0.316780 0.385290 -0.570125
O4    O     O_R   0.500010 0.683220 0.614710 -0.570124
O5    O     O_R   0.346360 0.499970 0.595710 -0.562388
O6    O     O_R   0.653640 0.500030 0.404290 -0.562388
O7    O     O_R   0.346360 0.499990 0.366380 -0.580917
O8    O     O_R   0.653640 0.500010 0.633620 -0.580917
Zn1   Zn    Zn3+2 0.500000 0.499980 0.653120 1.111812
Zn2   Zn    Zn3+2 0.500000 0.500020 0.346880 1.111812
Cl1   Cl    Cl    0.819924 0.734841 0.490109 -0.419965
Cl2   Cl    Cl    0.180076 0.265159 0.509898 -0.419963
Br1   Br    Br    0.777096 0.253815 0.689762 -0.277442
Br2   Br    Br    0.222905 0.746185 0.310237 -0.277442
Cl3   Cl    Cl    0.970064 0.754689 0.284809 -0.299271
Cl4   Cl    Cl    0.029940 0.245319 0.715203 -0.299268
Cl5   Cl    Cl    0.662480 0.140844 0.334446 -0.448491
Cl6   Cl    Cl    0.337521 0.859156 0.665556 -0.448491
Cl7   Cl    Cl    0.653230 0.682219 0.185082 -0.416101
Cl8   Cl    Cl    0.346770 0.317781 0.814918 -0.416098
Br3   Br    Br    0.664070 0.688801 0.863723 -0.222985
Br4   Br    Br    0.335930 0.311199 0.136277 -0.222985

loop_
_geom_bond_atom_site_label_1
_geom_bond_atom_site_label_2
_ccdc_geom_bond_type
C12   C17   A    
C1    O3    A    
C6    C8    A    
C18   Cl1   S    
O3    Zn2   S    
C11   C18   A    
C14   C16   A    
C5    N2    A    
C5    C7    A    
C11   C16   A    
C21   Cl5   S    
C19   C20   A    
C12   C15   A    
N2    Zn2   S    
C2    O2    A    
C1    C4    S    
C1    O1    A    
C2    C3    S    
C10   O6    A    
O4    Zn1   S    
C9    O5    A    
C4    C21   A    
C5    Cl7   S    
C7    Br3   S    
C6    Cl8   S    
N1    Zn1   S    
C4    C24   A    
C14   C19   A    
C14   Cl4   S    
O8    Zn1   S    
C22   Cl6   S    
C24   H2    S    
C18   C20   A    
C21   C23   A    
C13   C15   A    
C8    N2    A    
C9    C12   S    
C22   C24   A    
C10   C11   S    
C8    Br4   S    
C13   Cl3   S    
O7    Zn2   S    
C7    N1    A    
O2    Zn2   S    
C2    O4    A    
C23   H1    S    
O1    Zn1   S    
C9    O7    A    
C3    C22   A    
C10   O8    A    
C13   C20   A    
C17   C19   A    
O6    Zn2   S    
C3    C23   A    
C16   Br1   S    
O5    Zn1   S    
C6    N1    A    
C15   Br2   S    
C17   Cl2   S    
