data_mof_unit_34621.cif
_audit_creation_date              2012-12-11T15:44:47-0500
_audit_creation_method            fapswitch 2.2
_symmetry_space_group_name_H-M    P1
_symmetry_Int_Tables_number       1
_space_group_crystal_system       triclinic
_cell_length_a                    18.95914
_cell_length_b                    10.946186
_cell_length_c                    18.66336
_cell_angle_alpha                 90.251159
_cell_angle_beta                  90.144315
_cell_angle_gamma                 90.022284
_cell_volume                      3873.16238414

loop_
_atom_site_label
_atom_site_type_symbol
_atom_type_description
_atom_site_fract_x
_atom_site_fract_y
_atom_site_fract_z
_atom_type_partial_charge
C1    C     C_R   0.759810 0.536082 0.646807 0.531418
C2    C     C_R   0.238783 0.533370 0.353801 0.533887
C3    C     C_R   0.260024 0.035673 0.646720 0.534452
C4    C     C_R   0.739499 0.035486 0.352857 0.533869
C5    C     C_R   0.734966 0.037222 0.550569 -0.127437
C6    C     C_R   0.162401 0.116811 0.480612 -0.168881
C7    C     C_R   0.222025 0.499151 0.549738 -0.163518
C8    C     C_R   0.661456 0.616458 0.480610 -0.167432
C9    C     C_R   0.719816 0.008300 0.479629 -0.124878
C10   C     C_R   0.173835 0.091114 0.552838 -0.163118
C11   C     C_R   0.211396 0.483312 0.476509 -0.111657
C12   C     C_R   0.672895 0.590348 0.552908 -0.161764
C13   C     C_3   0.796218 0.301091 0.417329 -0.279284
C14   C     C_3   0.367908 0.146546 0.532203 -0.253203
C15   C     C_3   0.291175 0.785411 0.435972 -0.293973
C16   C     C_3   0.866022 0.661180 0.534887 -0.256579
C17   C     C_3   0.810831 0.334305 0.494855 -0.280848
C18   C     C_3   0.354776 0.173276 0.453601 -0.260891
C19   C     C_3   0.299904 0.805654 0.515863 -0.255620
C20   C     C_3   0.852929 0.685889 0.455979 -0.261579
C21   C     C_R   0.776850 0.139262 0.566006 0.031990
C22   C     C_R   0.217715 0.160609 0.438329 -0.002226
C23   C     C_R   0.261237 0.599248 0.573014 0.032398
C24   C     C_R   0.716375 0.663267 0.438785 -0.002165
C25   C     C_R   0.002410 0.347330 0.428614 -0.046390
C26   C     C_R   0.010222 0.330271 0.578941 -0.043960
C27   C     C_R   0.503059 0.847793 0.428958 -0.045098
C28   C     C_R   0.510542 0.828952 0.579186 -0.043871
C29   C     C_R   0.967175 0.131006 0.421994 -0.085174
C30   C     C_R   0.993174 0.105929 0.567902 -0.083727
C31   C     C_R   0.464297 0.633319 0.421580 -0.090025
C32   C     C_R   0.490726 0.605258 0.567230 -0.077377
C33   C     C_R   0.960653 0.017258 0.454163 -0.119686
C34   C     C_R   0.974981 0.004172 0.526724 -0.131103
C35   C     C_R   0.455805 0.519579 0.453404 -0.119322
C36   C     C_R   0.470504 0.504903 0.525789 -0.129217
C37   C     C_R   0.997498 0.223633 0.537025 0.007019
C38   C     C_R   0.989189 0.234234 0.461990 -0.008887
C39   C     C_R   0.496440 0.723205 0.536862 0.008672
C40   C     C_R   0.488073 0.735013 0.461915 -0.011881
C41   C     C_R   0.030220 0.439082 0.545125 0.000070
C42   C     C_R   0.015073 0.453775 0.472076 0.005106
C43   C     C_R   0.532394 0.936927 0.545853 -0.000777
C44   C     C_R   0.517557 0.953177 0.472838 0.007656
C45   C     C_R   0.791798 0.171305 0.638811 0.566952
C46   C     C_R   0.208123 0.172802 0.361147 0.564274
C47   C     C_R   0.272842 0.623670 0.646855 0.546593
C48   C     C_R   0.707822 0.673458 0.361118 0.567900
C49   C     C_R   0.059489 0.537635 0.584640 -0.079772
C50   C     C_R   0.014043 0.575452 0.445484 -0.074478
C51   C     C_R   0.562964 0.033484 0.585955 -0.083845
C52   C     C_R   0.518215 0.075340 0.446910 -0.073861
C53   C     C_R   0.065784 0.653071 0.554449 -0.117529
C54   C     C_R   0.040701 0.672857 0.485633 -0.131565
C55   C     C_R   0.570332 0.149357 0.556585 -0.117947
C56   C     C_R   0.545612 0.171225 0.487843 -0.134287
C57   C     C_R   0.759059 0.109608 0.085251 -0.027611
C58   C     C_R   0.246051 0.104293 0.917136 -0.024901
C59   C     C_R   0.259053 0.609599 0.085247 -0.027612
C60   C     C_R   0.746054 0.604291 0.917138 -0.024643
C61   C     C_R   0.825001 0.093605 0.052638 -0.002716
C62   C     C_R   0.178314 0.102342 0.946712 -0.001774
C63   C     C_R   0.324997 0.593605 0.052636 -0.002863
C64   C     C_R   0.678315 0.602349 0.946712 -0.001671
C65   C     C_R   0.834603 0.116297 0.981141 -0.009808
C66   C     C_R   0.168133 0.122434 0.018202 -0.005114
C67   C     C_R   0.334599 0.616296 0.981139 -0.009376
C68   C     C_R   0.668133 0.622443 0.018201 -0.005189
C69   C     C_R   0.718632 0.199580 0.972547 -0.134762
C70   C     C_R   0.289969 0.172261 0.033756 -0.138501
C71   C     C_R   0.218622 0.699554 0.972540 -0.134698
C72   C     C_R   0.789971 0.672257 0.033758 -0.138572
C73   C     C_R   0.708431 0.179965 0.046786 -0.036013
C74   C     C_R   0.301682 0.154372 0.960062 -0.033995
C75   C     C_R   0.208421 0.679945 0.046779 -0.036215
C76   C     C_R   0.801686 0.654363 0.960066 -0.033999
C77   C     C_3   0.879146 0.993957 0.051613 -0.228970
C78   C     C_3   0.116026 0.018090 0.942711 -0.235495
C79   C     C_3   0.379145 0.493960 0.051611 -0.229040
C80   C     C_3   0.616024 0.518104 0.942709 -0.235490
C81   C     C_3   0.889326 0.020181 0.972319 -0.233623
C82   C     C_3   0.106011 0.040046 0.022647 -0.233400
C83   C     C_3   0.389324 0.520183 0.972317 -0.233547
C84   C     C_3   0.606008 0.540061 0.022645 -0.233475
C85   C     C_R   0.780043 0.158089 0.937822 -0.023803
C86   C     C_R   0.223789 0.148055 0.064167 -0.019514
C87   C     C_R   0.280036 0.658073 0.937818 -0.022414
C88   C     C_R   0.723789 0.648057 0.064167 -0.019519
C89   C     C_R   0.973929 0.344241 0.648488 0.522626
C90   C     C_R   0.028671 0.347799 0.353855 0.519173
C91   C     C_R   0.473922 0.844027 0.648504 0.526278
C92   C     C_R   0.528889 0.847913 0.354014 0.521610
C93   C     C_R   0.010337 0.337522 0.073586 0.035497
C94   C     C_R   0.984422 0.339680 0.927733 0.047300
C95   C     C_R   0.510341 0.837523 0.073585 0.035486
C96   C     C_R   0.484427 0.839680 0.927731 0.047590
C97   C     C_R   0.065551 0.330500 0.024390 0.009974
C98   C     C_R   0.052928 0.328783 0.951737 -0.021026
C99   C     C_R   0.565556 0.830516 0.024389 0.009682
C100  C     C_R   0.552933 0.828799 0.951736 -0.021073
C101  C     C_R   0.927971 0.347121 0.976385 -0.095591
C102  C     C_R   0.940788 0.343851 0.049841 -0.140381
C103  C     C_R   0.427975 0.847100 0.976383 -0.095654
C104  C     C_R   0.440792 0.843828 0.049839 -0.140368
C105  C     C_3   0.126282 0.415603 0.016234 -0.238671
C106  C     C_3   0.113357 0.411922 0.936361 -0.266556
C107  C     C_3   0.626283 0.915625 0.016236 -0.239035
C108  C     C_3   0.613358 0.911949 0.936363 -0.265608
C109  C     C_R   0.760117 0.535524 0.851434 0.528249
C110  C     C_R   0.240901 0.537035 0.149210 0.516265
C111  C     C_R   0.260116 0.035526 0.851433 0.526593
C112  C     C_R   0.740903 0.037039 0.149213 0.515268
C113  C     C_R   0.790372 0.171911 0.860465 0.562613
C114  C     C_R   0.210477 0.169362 0.139603 0.565982
C115  C     C_R   0.290369 0.671905 0.860466 0.559467
C116  C     C_R   0.710477 0.669362 0.139604 0.565837
C117  C     C_R   0.969388 0.347065 0.853544 0.535513
C118  C     C_R   0.028814 0.346417 0.147352 0.536932
C119  C     C_R   0.469390 0.847065 0.853543 0.534711
C120  C     C_R   0.528816 0.846418 0.147351 0.537411
C121  C     C_R   0.748043 0.079480 0.424314 0.035283
C122  C     C_R   0.241343 0.106591 0.583365 0.003135
C123  C     C_R   0.243012 0.564013 0.427563 0.038394
C124  C     C_R   0.740043 0.608565 0.584053 0.004031
C125  C     C_R   0.796860 0.170479 0.440001 0.007964
C126  C     C_R   0.291560 0.171654 0.544373 0.010863
C127  C     C_R   0.290328 0.651582 0.451264 -0.000564
C128  C     C_R   0.788824 0.678329 0.545945 0.011737
C129  C     C_R   0.810366 0.201126 0.510622 0.012260
C130  C     C_R   0.279838 0.197909 0.472798 0.028466
C131  C     C_R   0.298200 0.670278 0.523708 0.053302
C132  C     C_R   0.777227 0.704148 0.474217 0.024137
Cr1   Cr    Cr6+3 0.885860 0.491680 0.749630 1.003111
Cr2   Cr    Cr6+3 0.114140 0.491680 0.250370 1.009840
Cr3   Cr    Cr6+3 0.385860 0.991680 0.749630 1.007720
Cr4   Cr    Cr6+3 0.614140 0.991680 0.250370 1.009485
Cr5   Cr    Cr6+3 0.730490 0.332970 0.748720 0.996354
Cr6   Cr    Cr6+3 0.269510 0.332970 0.251280 1.005018
Cr7   Cr    Cr6+3 0.230490 0.832970 0.748720 0.996600
Cr8   Cr    Cr6+3 0.769510 0.832970 0.251280 1.004744
Cr9   Cr    Cr6+3 0.887570 0.179310 0.750150 0.993607
Cr10  Cr    Cr6+3 0.112430 0.179310 0.249850 0.997006
Cr11  Cr    Cr6+3 0.387570 0.679310 0.750150 0.997774
Cr12  Cr    Cr6+3 0.612430 0.679310 0.249850 0.997595
H1    H     H_    0.712808 0.982463 0.593167 0.130780
H2    H     H_    0.112397 0.092736 0.456585 0.157821
H3    H     H_    0.197971 0.437092 0.587548 0.109889
H4    H     H_    0.611980 0.590026 0.456183 0.156920
H5    H     H_    0.087570 0.728024 0.585410 0.119566
H6    H     H_    0.041439 0.763931 0.463320 0.106581
H7    H     H_    0.592678 0.223104 0.588125 0.126307
H8    H     H_    0.547116 0.262811 0.466247 0.107551
H9    H     H_    0.677192 0.241039 0.941380 0.167348
H10   H     H_    0.333333 0.200666 0.067710 0.178283
H11   H     H_    0.177179 0.741003 0.941370 0.167465
H12   H     H_    0.833333 0.700658 0.067714 0.178272
H13   H     H_    0.856506 0.902459 0.061322 0.167263
H14   H     H_    0.129689 0.922501 0.929842 0.174793
H15   H     H_    0.356507 0.402460 0.061322 0.167172
H16   H     H_    0.629683 0.422513 0.929840 0.174739
H17   H     H_    0.926222 0.017216 0.084599 0.144459
H18   H     H_    0.072618 0.056823 0.909727 0.135842
H19   H     H_    0.426221 0.517224 0.084597 0.144577
H20   H     H_    0.572619 0.556843 0.909725 0.135942
H21   H     H_    0.941916 0.059302 0.959731 0.140862
H22   H     H_    0.056147 0.088015 0.035679 0.137607
H23   H     H_    0.441914 0.559307 0.959729 0.140919
H24   H     H_    0.556146 0.588034 0.035676 0.137638
H25   H     H_    0.871678 0.944207 0.936956 0.160193
H26   H     H_    0.117287 0.959918 0.056445 0.192133
H27   H     H_    0.371677 0.444208 0.936954 0.159753
H28   H     H_    0.617281 0.459932 0.056444 0.192104
H29   H     H_    0.874429 0.359154 0.957302 0.116466
H30   H     H_    0.897511 0.351410 0.087377 0.118104
H31   H     H_    0.374433 0.859120 0.957300 0.116531
H32   H     H_    0.397514 0.851370 0.087375 0.118491
H33   H     H_    0.177680 0.376147 0.032378 0.122022
H34   H     H_    0.096682 0.501473 0.914026 0.178266
H35   H     H_    0.677683 0.876170 0.032379 0.122199
H36   H     H_    0.596678 0.001500 0.914031 0.178953
H37   H     H_    0.113688 0.504562 0.040660 0.210011
H38   H     H_    0.156047 0.365102 0.906165 0.137489
H39   H     H_    0.613688 0.004583 0.040665 0.210082
H40   H     H_    0.656050 0.865139 0.906166 0.138977
H41   H     H_    0.686187 0.930658 0.467801 0.122031
H42   H     H_    0.132403 0.045393 0.582019 0.138862
H43   H     H_    0.178530 0.408666 0.457871 0.120797
H44   H     H_    0.631981 0.542047 0.581463 0.139279
H45   H     H_    0.239995 0.819451 0.414696 0.152448
H46   H     H_    0.884298 0.567011 0.546038 0.160515
H47   H     H_    0.743541 0.331829 0.398212 0.155609
H48   H     H_    0.382779 0.050185 0.542437 0.158104
H49   H     H_    0.840839 0.323019 0.381060 0.136018
H50   H     H_    0.402141 0.215470 0.558920 0.142936
H51   H     H_    0.338287 0.813039 0.404639 0.136979
H52   H     H_    0.897293 0.733941 0.561805 0.142518
H53   H     H_    0.863725 0.374895 0.503332 0.135151
H54   H     H_    0.382218 0.256410 0.434585 0.134578
H55   H     H_    0.352023 0.844158 0.530933 0.137476
H56   H     H_    0.877890 0.771054 0.436803 0.139108
H57   H     H_    0.766414 0.383196 0.520714 0.149022
H58   H     H_    0.360618 0.091430 0.418570 0.141606
H59   H     H_    0.253492 0.850556 0.540674 0.157454
H60   H     H_    0.861243 0.604260 0.421329 0.141691
H61   H     H_    0.945732 0.939069 0.422121 0.107157
H62   H     H_    0.972220 0.914999 0.551269 0.103943
H63   H     H_    0.438777 0.442568 0.421367 0.111969
H64   H     H_    0.466189 0.415606 0.550008 0.104160
H65   H     H_    0.953533 0.137772 0.365835 0.131118
H66   H     H_    0.007110 0.090082 0.623276 0.130989
H67   H     H_    0.450804 0.641448 0.365444 0.130372
H68   H     H_    0.504770 0.588141 0.622444 0.130312
H69   H     H_    0.990354 0.598447 0.394626 0.139177
H70   H     H_    0.077031 0.525309 0.639433 0.123487
H71   H     H_    0.494761 0.100303 0.396281 0.140448
H72   H     H_    0.579989 0.019562 0.640780 0.128020
O1    O     O_R   0.957020 0.451640 0.669920 -0.518046
O2    O     O_R   0.042980 0.451640 0.330080 -0.524001
O3    O     O_R   0.457020 0.951640 0.669920 -0.517705
O4    O     O_R   0.542980 0.951640 0.330080 -0.524733
O5    O     O_R   0.736470 0.210100 0.823360 -0.500967
O6    O     O_R   0.263530 0.210100 0.176640 -0.500756
O7    O     O_R   0.236470 0.710100 0.823360 -0.507765
O8    O     O_R   0.763530 0.710100 0.176640 -0.501001
O9    O     O_R   0.831960 0.093290 0.830130 -0.512428
O10   O     O_R   0.168040 0.093290 0.169870 -0.510463
O11   O     O_R   0.331960 0.593290 0.830130 -0.518910
O12   O     O_R   0.668040 0.593290 0.169870 -0.510961
O13   O     O_R   0.945600 0.250580 0.824860 -0.528107
O14   O     O_R   0.054400 0.250580 0.175140 -0.521971
O15   O     O_R   0.445600 0.750580 0.824860 -0.528600
O16   O     O_R   0.554400 0.750580 0.175140 -0.521925
O17   O     O_3   0.834640 0.334650 0.749500 -0.279136
O18   O     O_3   0.165360 0.334650 0.250500 -0.281595
O19   O     O_3   0.334640 0.834650 0.749500 -0.259102
O20   O     O_3   0.665360 0.834650 0.250500 -0.281089
O21   O     O_R   0.821450 0.543440 0.674610 -0.497123
O22   O     O_R   0.178550 0.543440 0.325390 -0.500781
O23   O     O_R   0.321450 0.043440 0.674610 -0.496152
O24   O     O_R   0.678550 0.043440 0.325390 -0.500537
O25   O     O_R   0.715320 0.458650 0.668100 -0.535685
O26   O     O_R   0.284680 0.458650 0.331900 -0.527028
O27   O     O_R   0.215320 0.958650 0.668100 -0.532278
O28   O     O_R   0.784680 0.958650 0.331900 -0.526514
O29   O     O_R   0.737170 0.209590 0.674530 -0.503407
O30   O     O_R   0.262830 0.209590 0.325470 -0.492945
O31   O     O_R   0.237170 0.709590 0.674530 -0.504022
O32   O     O_R   0.762830 0.709590 0.325470 -0.493162
O33   O     O_R   0.832710 0.092740 0.669580 -0.506667
O34   O     O_R   0.167290 0.092740 0.330420 -0.513702
O35   O     O_R   0.332710 0.592740 0.669580 -0.506624
O36   O     O_R   0.667290 0.592740 0.330420 -0.515777
O37   O     O_R   0.946290 0.250060 0.676040 -0.520313
O38   O     O_R   0.053710 0.250060 0.323960 -0.520500
O39   O     O_R   0.446290 0.750060 0.676040 -0.505428
O40   O     O_R   0.553710 0.750060 0.323960 -0.519048
O41   O     O_R   0.956270 0.452200 0.830470 -0.499564
O42   O     O_R   0.043730 0.452200 0.169530 -0.492313
O43   O     O_R   0.456270 0.952200 0.830470 -0.500352
O44   O     O_R   0.543730 0.952200 0.169530 -0.492160
O45   O     O_R   0.820760 0.543950 0.823440 -0.518190
O46   O     O_R   0.179240 0.543950 0.176560 -0.515758
O47   O     O_R   0.320760 0.043950 0.823440 -0.520316
O48   O     O_R   0.679240 0.043950 0.176560 -0.516315
O49   O     O_R   0.714570 0.459210 0.828640 -0.526571
O50   O     O_R   0.285430 0.459210 0.171360 -0.523919
O51   O     O_R   0.214570 0.959210 0.828640 -0.526748
O52   O     O_R   0.785430 0.959210 0.171360 -0.524330
C133  C     C_2   0.643009 0.225670 0.080894 0.205825
H73   H     H_    0.642347 0.247892 0.137571 0.133499
O53   O     O_2   0.588940 0.238534 0.045983 -0.509213
C134  C     C_2   0.372528 0.184929 0.931395 0.235455
H74   H     H_    0.378754 0.213681 0.876282 0.127410
O54   O     O_2   0.424772 0.181781 0.969778 -0.480301
C135  C     C_2   0.142995 0.725646 0.080883 0.205854
H75   H     H_    0.142328 0.747865 0.137560 0.133970
O55   O     O_2   0.088929 0.738512 0.045968 -0.509306
C136  C     C_2   0.872536 0.684904 0.931403 0.235571
H76   H     H_    0.878769 0.713648 0.876288 0.128418
O56   O     O_2   0.924779 0.681748 0.969792 -0.480453

loop_
_geom_bond_atom_site_label_1
_geom_bond_atom_site_label_2
_ccdc_geom_bond_type
C51   H72   S    
C58   C62   A    
C119  O43   A    
C55   C56   A    
C82   H26   S    
C67   C83   S    
C101  C102  A    
C72   H12   S    
C29   C33   A    
Cr4   O48   S    
Cr9   O33   S    
C41   C42   A    
C14   C18   S    
C96   C119  S    
C101  H29   S    
C35   C36   A    
Cr10  O38   S    
C72   C76   A    
C30   C34   A    
Cr7   O31   S    
Cr3   O43   S    
C120  O16   A    
C47   O31   A    
C97   C98   A    
C54   H6    S    
C63   C79   S    
C2    C123  S    
C34   H62   S    
C26   C89   S    
Cr1   O45   S    
Cr12  O40   S    
C33   H61   S    
C25   C90   S    
C50   C54   A    
C95   C120  S    
Cr11  O35   S    
C116  O12   A    
Cr10  O34   S    
C64   C68   A    
C115  O7    A    
C16   C20   S    
C135  O55   D    
Cr3   O23   S    
C1    O25   A    
C9    H41   S    
C65   C81   S    
C79   H15   S    
C32   H68   S    
C94   C117  S    
C95   C99   A    
C80   H16   S    
Cr12  O16   S    
C66   C82   S    
C94   C98   A    
C113  O5    A    
Cr9   O13   S    
C12   H44   S    
Cr5   O5    S    
C17   H57   S    
C59   C110  S    
C117  O41   A    
C31   C40   A    
C108  H36   S    
Cr8   O32   S    
C51   C55   A    
C36   H64   S    
C32   C39   A    
C57   C73   A    
C92   O4    A    
C24   C132  A    
C80   H20   S    
Cr4   O24   S    
C60   C109  S    
C105  H37   S    
C45   O33   A    
C121  C125  A    
C52   C56   A    
Cr5   O49   S    
C27   C44   A    
C78   H14   S    
C46   O34   A    
C135  H75   S    
C53   C54   A    
C61   C77   S    
C134  H74   S    
C83   H27   S    
C29   C38   A    
C70   C74   A    
C9    C121  A    
C107  C108  S    
Cr8   O52   S    
C69   C73   A    
C81   H25   S    
C56   H8    S    
Cr7   O27   S    
C112  O52   A    
C47   O35   A    
Cr6   O26   S    
C3    C122  S    
C80   C84   S    
C124  C128  A    
C8    C24   A    
C97   C105  S    
C122  C126  A    
C44   C52   A    
Cr1   O41   S    
C15   H45   S    
C71   H11   S    
Cr2   O46   S    
C15   C127  S    
C133  H73   S    
C11   H43   S    
C53   H5    S    
C64   C80   S    
C8    H4    S    
Cr1   O21   S    
C29   H65   S    
C20   C132  S    
Cr6   O18   S    
C128  C132  A    
C41   C49   A    
C72   C88   A    
Cr2   O42   S    
C7    C11   A    
C46   O30   A    
C21   C45   S    
C14   C126  S    
C134  O54   D    
C19   C131  S    
C63   C67   A    
C100  C108  S    
C5    H1    S    
C103  H31   S    
Cr12  O20   S    
C75   C135  S    
C58   C111  S    
C68   C84   S    
C23   C47   S    
C88   C116  S    
C20   H60   S    
Cr10  O14   S    
C109  O49   A    
C30   H66   S    
C45   O29   A    
C39   C40   A    
C126  C130  A    
C62   C66   A    
Cr8   O8    S    
Cr1   O17   S    
Cr6   O50   S    
C50   H69   S    
C1    O21   A    
C120  O44   A    
C83   H23   S    
C49   H70   S    
C60   C76   A    
C7    H3    S    
Cr1   O1    S    
C17   C129  S    
C30   C37   A    
C107  H39   S    
Cr8   O28   S    
C5    C21   A    
C24   C48   S    
C116  O8    A    
C15   C19   S    
C43   C44   A    
C115  O11   A    
C37   C38   A    
C84   H24   S    
Cr10  O10   S    
C125  C129  A    
C25   C38   A    
C114  O10   A    
Cr9   O9    S    
Cr5   O29   S    
C78   C82   S    
C93   C97   A    
C113  O9    A    
C99   C100  A    
C12   C124  A    
C77   C81   S    
C27   C40   A    
C8    C12   A    
Cr3   O3    S    
C19   H59   S    
C33   C34   A    
C4    O24   A    
C23   C131  A    
C27   C92   S    
C18   H58   S    
C3    O27   A    
Cr4   O44   S    
C114  O6    A    
C17   H53   S    
C104  H32   S    
C21   C129  A    
C16   H46   S    
C42   C50   A    
C71   C87   A    
C92   O40   A    
C35   H63   S    
C22   C46   S    
C112  O48   A    
C78   H18   S    
C133  O53   D    
Cr7   O19   S    
C91   O3    A    
C68   C88   A    
C136  O56   D    
C59   C63   A    
C79   H19   S    
C93   C118  S    
C109  O45   A    
C70   C86   A    
C59   C75   A    
C123  C127  A    
C110  O50   A    
C4    O28   A    
C69   C85   A    
C95   C104  A    
C58   C74   A    
C105  H33   S    
C82   H22   S    
Cr7   O7    S    
C55   H7    S    
C2    O26   A    
Cr7   O51   S    
C14   H50   S    
C81   H21   S    
C94   C101  A    
C16   C128  S    
C107  H35   S    
C86   C114  S    
C70   H10   S    
C93   C102  A    
C67   C87   A    
C62   C78   S    
C2    O22   A    
C71   C75   A    
Cr3   O19   S    
Cr11  O11   S    
C74   C134  S    
C84   H28   S    
C13   H47   S    
C25   C42   A    
C66   C86   A    
Cr4   O20   S    
C32   C36   A    
C26   C37   A    
C57   C61   A    
Cr3   O47   S    
Cr4   O4    S    
C108  H40   S    
C119  O15   A    
C11   C123  A    
C102  H30   S    
C111  O47   A    
C99   C107  S    
C105  C106  S    
C28   C39   A    
C28   C43   A    
C19   H55   S    
C98   C106  S    
C76   C136  S    
C60   C64   A    
Cr9   O37   S    
C127  C131  A    
C85   C113  S    
C73   C133  S    
C1    C124  S    
C15   H51   S    
C48   O32   A    
C65   C85   A    
Cr2   O2    S    
C110  O46   A    
C79   C83   S    
Cr11  O39   S    
C43   C51   A    
C7    C23   A    
C91   O39   A    
Cr5   O25   S    
C118  O14   A    
C6    H2    S    
C96   C100  A    
C117  O13   A    
C16   H52   S    
C10   H42   S    
C77   H17   S    
C87   C115  S    
C4    C121  S    
C28   C91   S    
C31   C35   A    
C14   H48   S    
C52   H71   S    
C48   O36   A    
C90   O38   A    
C89   O37   A    
C69   H9    S    
C90   O2    A    
C49   C53   A    
C18   C130  S    
C6    C10   A    
Cr2   O22   S    
C111  O51   A    
C13   C17   S    
C57   C112  S    
Cr11  O19   S    
C61   C65   A    
C10   C122  A    
Cr10  O18   S    
C31   H67   S    
Cr6   O30   S    
Cr9   O17   S    
C118  O42   A    
C89   O1    A    
C3    O23   A    
C103  C104  A    
Cr8   O20   S    
Cr6   O6    S    
C136  H76   S    
Cr12  O12   S    
C13   H49   S    
C5    C9    A    
Cr12  O36   S    
Cr11  O15   S    
C96   C103  A    
Cr5   O17   S    
C13   C125  S    
C106  H34   S    
C20   H56   S    
C22   C130  A    
C18   H54   S    
C106  H38   S    
C26   C41   A    
C77   H13   S    
Cr2   O18   S    
C6    C22   A    
