data_mof_unit_19073.cif
_audit_creation_date              2012-12-10T16:53:10-0500
_audit_creation_method            fapswitch 2.2
_symmetry_space_group_name_H-M    P1
_symmetry_Int_Tables_number       1
_space_group_crystal_system       triclinic
_cell_length_a                    10.797544
_cell_length_b                    10.934324
_cell_length_c                    9.697369
_cell_angle_alpha                 89.416779
_cell_angle_beta                  89.853396
_cell_angle_gamma                 90.556901
_cell_volume                      1144.7912292

loop_
_atom_site_label
_atom_site_type_symbol
_atom_type_description
_atom_site_fract_x
_atom_site_fract_y
_atom_site_fract_z
_atom_type_partial_charge
C1    C     C_R   0.494480 0.265269 0.500954 0.788173
C2    C     C_R   0.063811 0.399171 0.583147 0.090681
C3    C     C_R   0.128550 0.486683 0.500904 -0.099707
C4    C     C_R   0.064760 0.567880 0.415542 -0.187483
C5    C     C_R   0.936993 0.567904 0.415134 -0.198068
C6    C     C_R   0.870835 0.486333 0.499610 -0.096142
C7    C     C_2   0.485557 0.933935 0.391022 -0.134942
C8    C     C_2   0.521489 0.865475 0.498098 -0.274952
C9    C     C_2   0.499651 0.066750 0.393585 -0.202730
C10   C     C_2   0.473571 0.133881 0.505241 0.016073
C11   C     C_2   0.429749 0.427750 0.923097 -0.041987
C12   C     C_R   0.262508 0.495327 0.500346 0.792944
C13   C     C_2   0.429083 0.428366 0.078798 -0.053604
C14   C     C_R   0.504926 0.734376 0.499254 0.856524
C15   C     C_R   0.737308 0.495653 0.499879 0.782599
C16   C     C_R   0.125869 0.309882 0.662866 -0.169511
C17   C     C_R   0.059739 0.223327 0.740589 -0.115192
C18   C     C_R   0.931089 0.221822 0.737896 -0.136606
C19   C     C_R   0.867752 0.307457 0.658316 -0.172105
C20   C     C_R   0.932774 0.398456 0.581667 0.095719
Cu1   Cu    Cu3+1 0.500020 0.500020 0.638630 0.961129
Cu2   Cu    Cu3+1 0.499980 0.499980 0.361370 0.948335
H1    H     H_    0.114297 0.633866 0.351387 0.158280
H2    H     H_    0.368000 0.363550 0.872645 0.161240
H3    H     H_    0.556987 0.560317 0.893032 0.196840
H4    H     H_    0.366082 0.365321 0.131043 0.157504
H5    H     H_    0.559261 0.558114 0.105238 0.194302
H6    H     H_    0.225494 0.304164 0.664256 0.164966
H7    H     H_    0.108533 0.155853 0.801512 0.165404
H8    H     H_    0.880110 0.153012 0.796337 0.145086
H9    H     H_    0.767988 0.299497 0.655726 0.158099
H10   H     H_    0.889342 0.634073 0.350949 0.153003
H11   H     H_    0.450493 0.892190 0.297539 0.171904
H12   H     H_    0.564820 0.906428 0.587531 0.179700
H13   H     H_    0.532749 0.110535 0.299214 0.161322
N1    N     N_2   0.498640 0.498660 0.846910 -0.279711
N2    N     N_2   0.498610 0.498630 0.153040 -0.282540
O1    O     O_R   0.500020 0.321960 0.617040 -0.567586
O2    O     O_R   0.499980 0.321920 0.382900 -0.585226
O3    O     O_R   0.319670 0.500020 0.617100 -0.575151
O4    O     O_R   0.319630 0.499980 0.382950 -0.572914
O5    O     O_R   0.500020 0.678080 0.617100 -0.561311
O6    O     O_R   0.499980 0.678040 0.382960 -0.580700
O7    O     O_R   0.680370 0.500020 0.617050 -0.582356
O8    O     O_R   0.680330 0.499980 0.382900 -0.573578
I1    I     I_    0.380418 0.065464 0.686610 -0.455723

loop_
_geom_bond_atom_site_label_1
_geom_bond_atom_site_label_2
_ccdc_geom_bond_type
C12   O3    A    
C10   I1    S    
C12   O4    A    
C18   H8    S    
Cu1   O7    S    
C2    C16   A    
C9    C10   D    
C13   N2    D    
C19   C20   A    
C14   O5    A    
C5    H10   S    
C19   H9    S    
C6    C20   A    
C2    C3    A    
C7    C8    D    
Cu1   N1    S    
C8    H12   S    
Cu1   Cu2   S    
C7    H11   S    
Cu1   O5    S    
Cu1   O3    S    
C1    O1    A    
H5    N2    S    
Cu2   O2    S    
C11   N1    D    
C15   O7    A    
C17   C18   A    
C5    C6    A    
C13   H4    S    
Cu2   O4    S    
C16   C17   A    
C15   O8    A    
H3    N1    S    
C2    C20   A    
C3    C4    A    
C11   H2    S    
C11   C13   S    
Cu2   O8    S    
C17   H7    S    
C7    C9    S    
C18   C19   A    
C1    C10   S    
C9    H13   S    
C4    H1    S    
C1    O2    A    
C16   H6    S    
C4    C5    A    
C8    C14   S    
C3    C12   S    
C6    C15   S    
Cu2   N2    S    
Cu1   O1    S    
Cu2   O6    S    
C14   O6    A    
