data_mof_unit_20384.cif
_audit_creation_date              2013-03-05T16:13:53-0500
_audit_creation_method            fapswitch 2.2
_symmetry_space_group_name_H-M    P1
_symmetry_Int_Tables_number       1
_space_group_crystal_system       triclinic
_cell_length_a                    20.316682
_cell_length_b                    22.740123
_cell_length_c                    6.93855
_cell_angle_alpha                 89.99761
_cell_angle_beta                  86.448017
_cell_angle_gamma                 89.996657
_cell_volume                      3199.47876041

loop_
_atom_site_label
_atom_site_type_symbol
_atom_site_description
_atom_site_fract_x
_atom_site_fract_y
_atom_site_fract_z
_atom_type_partial_charge
O1    O     O_R   0.751270 0.447300 0.600030 -0.549865
O2    O     O_R   0.248730 0.947300 0.399970 -0.549738
O3    O     O_R   0.613530 0.440160 0.952150 -0.592968
O4    O     O_R   0.386470 0.940160 0.047850 -0.593063
O5    O     O_R   0.613050 0.552700 0.122560 -0.580271
O6    O     O_R   0.386950 0.052700 0.877440 -0.575057
C1    C     C_R   0.591502 0.425524 0.787188 1.151206
C2    C     C_R   0.408441 0.925460 0.212850 1.152579
O7    O     O_R   0.750780 0.440350 0.929820 -0.589832
O8    O     O_R   0.249220 0.940350 0.070180 -0.589981
O9    O     O_R   0.751280 0.552900 0.100070 -0.544028
O10   O     O_R   0.248720 0.052900 0.899930 -0.542052
C3    C     C_R   0.773801 0.425899 0.757302 1.203481
C4    C     C_R   0.226215 0.925884 0.242717 1.202611
O11   O     O_R   0.613040 0.447100 0.622520 -0.569204
O12   O     O_R   0.386960 0.947100 0.377480 -0.569267
O13   O     O_3   0.682160 0.536920 0.777780 -0.280424
O14   O     O_3   0.317840 0.036920 0.222220 -0.278454
V1    V     V_3+5 0.682160 0.493150 0.052630 1.365239
V2    V     V_3+5 0.317840 0.993150 0.947370 1.366698
O15   O     O_R   0.750790 0.559840 0.429870 -0.608905
O16   O     O_R   0.249210 0.059840 0.570130 -0.610549
C5    C     C_R   0.773948 0.574049 0.256845 1.178270
C6    C     C_R   0.226093 0.074088 0.743149 1.171130
O17   O     O_R   0.613540 0.559650 0.452200 -0.600602
O18   O     O_R   0.386460 0.059650 0.547800 -0.602377
C7    C     C_R   0.591604 0.574303 0.287731 1.185562
C8    C     C_R   0.408368 0.074334 0.712278 1.179253
V3    V     V_3+5 0.682160 0.506850 0.552630 1.345348
V4    V     V_3+5 0.317840 0.006850 0.447370 1.344855
O19   O     O_3   0.682150 0.463080 0.277610 -0.259572
O20   O     O_3   0.317850 0.963080 0.722390 -0.259847
C9    C     C_R   0.579517 0.862403 0.175673 -0.144418
C10   C     C_R   0.420436 0.362388 0.821914 -0.136442
H1    H     H_    0.628248 0.879925 0.140388 0.224319
H2    H     H_    0.371230 0.380173 0.845572 0.222985
C11   C     C_R   0.462507 0.881925 0.214068 -0.549105
C12   C     C_R   0.537521 0.381924 0.786169 -0.550012
C13   C     C_R   0.473403 0.597577 0.356683 0.143358
C14   C     C_R   0.526312 0.097830 0.639514 0.144676
C15   C     C_R   0.425171 0.638417 0.422778 0.114401
C16   C     C_R   0.574366 0.138914 0.574237 0.113558
C17   C     C_R   0.438239 0.698699 0.406153 0.732294
C18   C     C_R   0.561441 0.199110 0.594844 0.731149
C19   C     C_R   0.495655 0.719709 0.303070 -0.167706
C20   C     C_R   0.504424 0.219667 0.701078 -0.165945
C21   C     C_R   0.548496 0.679164 0.265499 -0.220537
C22   C     C_R   0.451706 0.179006 0.738728 -0.221111
C23   C     C_R   0.504090 0.780657 0.252724 0.022016
C24   C     C_R   0.496145 0.280413 0.753943 0.021276
C25   C     C_R   0.569161 0.801891 0.208536 -0.236936
C26   C     C_R   0.431286 0.301480 0.801645 -0.240482
C27   C     C_R   0.622622 0.762144 0.190239 0.253887
C28   C     C_R   0.378274 0.261495 0.827724 0.258023
C29   C     C_R   0.611547 0.701592 0.208105 0.639227
C30   C     C_R   0.389144 0.201109 0.802996 0.638958
C31   C     C_R   0.450085 0.820954 0.237941 0.319766
C32   C     C_R   0.550076 0.320852 0.766090 0.323730
C33   C     C_R   0.527251 0.901914 0.184181 0.812580
C34   C     C_R   0.472620 0.402016 0.810250 0.811818
C35   C     C_R   0.537121 0.617609 0.294843 -0.337875
C36   C     C_R   0.462877 0.117616 0.705224 -0.335203
C37   C     C_R   0.170518 0.882559 0.261164 -0.611654
C38   C     C_R   0.829533 0.382605 0.738914 -0.612141
C39   C     C_R   0.160220 0.839818 0.116639 0.130450
C40   C     C_R   0.839905 0.339900 0.883530 0.130642
C41   C     C_R   0.106056 0.801192 0.138148 0.723648
C42   C     C_R   0.894057 0.301263 0.861881 0.723910
C43   C     C_R   0.060844 0.804031 0.301722 -0.161686
C44   C     C_R   0.939227 0.304095 0.698222 -0.162311
C45   C     C_R   0.071633 0.845952 0.446713 0.145984
C46   C     C_R   0.928416 0.346022 0.553264 0.146199
C47   C     C_R   0.125394 0.885157 0.424001 0.711482
C48   C     C_R   0.874642 0.385216 0.576041 0.711558
C49   C     C_R   0.898921 0.690844 0.382976 -0.140133
C50   C     C_R   0.101109 0.190859 0.616897 -0.136901
C51   C     C_R   0.846959 0.650202 0.398945 -0.119972
C52   C     C_R   0.153051 0.150194 0.600948 -0.109961
C53   C     C_R   0.934213 0.700227 0.203883 0.009245
C54   C     C_R   0.065866 0.200298 0.796025 0.010627
N1    N     N_2   0.005107 0.765325 0.327731 0.037001
N2    N     N_2   0.994954 0.265379 0.672143 0.036560
N3    N     N_2   0.988812 0.739835 0.178372 0.088700
N4    N     N_2   0.011294 0.239931 0.821534 0.088258
C55   C     C_R   0.828640 0.617986 0.237261 -0.425114
C56   C     C_R   0.171401 0.118022 0.762697 -0.420942
H3    H     H_    0.821017 0.644114 0.538563 0.234787
H4    H     H_    0.178967 0.144070 0.461313 0.231905
H5    H     H_    0.911358 0.714592 0.510888 0.244864
H6    H     H_    0.088656 0.214585 0.488955 0.243229
C57   C     C_R   0.863667 0.628001 0.058083 0.613867
C58   C     C_R   0.136411 0.128084 0.941897 0.610839
C59   C     C_R   0.915624 0.668580 0.042626 0.677497
C60   C     C_R   0.084471 0.168680 0.957328 0.676726
F1    F     F_    0.539779 0.959939 0.153276 -0.619808
F2    F     F_    0.459800 0.460344 0.831951 -0.619417
N5    N     N_R   0.027826 0.849261 0.617994 0.291611
O21   O     O_R   0.015233 0.899571 0.701735 -0.268191
O22   O     O_R   0.002696 0.801754 0.696991 -0.274279
N6    N     N_R   0.972207 0.349346 0.381952 0.291410
O23   O     O_R   0.984766 0.399661 0.298201 -0.269000
O24   O     O_R   0.997361 0.301849 0.302946 -0.274543
F3    F     F_    0.133665 0.926176 0.562913 -0.624173
F4    F     F_    0.866348 0.426245 0.437161 -0.624301
F5    F     F_    0.848874 0.597811 0.897594 -0.651763
F6    F     F_    0.151225 0.097925 0.102438 -0.652524
F7    F     F_    0.099992 0.758752 0.002495 -0.561835
F8    F     F_    0.900157 0.258825 0.997532 -0.561693
F9    F     F_    0.948935 0.676596 0.868950 -0.598946
F10   F     F_    0.051191 0.176745 0.131025 -0.599534
N7    N     N_R   0.205051 0.833604 0.949126 0.304396
O25   O     O_R   0.268021 0.828461 0.968096 -0.270539
O26   O     O_R   0.182488 0.824066 0.780569 -0.260465
N8    N     N_R   0.795215 0.333764 0.051398 0.304436
O27   O     O_R   0.732218 0.328617 0.032986 -0.270159
O28   O     O_R   0.817938 0.324229 0.219747 -0.260843
N9    N     N_R   0.688979 0.782609 0.150192 0.258398
O29   O     O_R   0.725720 0.759609 0.009500 -0.307325
O30   O     O_R   0.715758 0.817612 0.271356 -0.322289
N10   N     N_R   0.313227 0.281196 0.890651 0.264098
O31   O     O_R   0.262218 0.262354 0.804260 -0.320550
O32   O     O_R   0.304025 0.310291 0.051557 -0.327252
N11   N     N_R   0.384255 0.799859 0.216649 0.271855
O33   O     O_R   0.334528 0.822352 0.318610 -0.324058
O34   O     O_R   0.373891 0.758113 0.093820 -0.284252
N12   N     N_R   0.615994 0.299909 0.787118 0.272365
O35   O     O_R   0.665583 0.322405 0.684568 -0.324719
O36   O     O_R   0.626487 0.257779 0.908463 -0.282571
N13   N     N_R   0.457022 0.536012 0.350728 0.274079
O37   O     O_R   0.493208 0.496749 0.430102 -0.363168
O38   O     O_R   0.404125 0.519189 0.269591 -0.245796
N14   N     N_R   0.542640 0.036229 0.641244 0.273935
O39   O     O_R   0.506693 0.997647 0.557818 -0.363292
O40   O     O_R   0.595568 0.018795 0.720978 -0.245863
F11   F     F_    0.398595 0.736148 0.512342 -0.596674
F12   F     F_    0.600781 0.237034 0.489640 -0.597626
N15   N     N_R   0.364148 0.619030 0.518631 0.296737
O41   O     O_R   0.310213 0.649026 0.502383 -0.194535
O42   O     O_R   0.363007 0.573764 0.633591 -0.235940
N16   N     N_R   0.635034 0.119923 0.475329 0.296758
O43   O     O_R   0.689097 0.149744 0.491348 -0.193770
O44   O     O_R   0.635702 0.075202 0.358158 -0.235628
F13   F     F_    0.664339 0.665436 0.178439 -0.713575
F14   F     F_    0.337361 0.164551 0.843943 -0.708768

loop_
_geom_bond_atom_site_label_1
_geom_bond_atom_site_label_2
_geom_bond_distance
_ccdc_geom_bond_type
C18   F12   1.357601 S    
C40   C42   1.408662 A    
C37   C39   1.421322 A    
N12   O35   1.301621 A    
C28   N10   1.437449 S    
O13   V3    1.705339 S    
C57   F5    1.357652 S    
N7    O25   1.299436 A    
O4    C2    1.298066 A    
V1    O19   1.704194 S    
N5    O21   1.301350 A    
C55   C57   1.412192 A    
C23   C31   1.438012 A    
N11   O33   1.301615 A    
C13   C15   1.406170 A    
C45   N5    1.441913 S    
O9    V1    1.996006 S    
C33   F1    1.358353 S    
C48   F4    1.359221 S    
N16   O44   1.301561 A    
C53   C59   1.401757 A    
O3    C1    1.297952 A    
N9    O30   1.301191 A    
C46   N6    1.441922 S    
C27   N9    1.436994 S    
N11   O34   1.301628 A    
C57   C59   1.401199 A    
O12   V4    1.992178 S    
C14   C36   1.413670 A    
C43   C45   1.412908 A    
O7    C3    1.300095 A    
C39   N7    1.438516 S    
C7    C35   1.480048 S    
N5    O22   1.301347 A    
O5    C7    1.297212 A    
O7    V1    1.990990 S    
O6    C8    1.297243 A    
O8    V2    1.991044 S    
N14   O39   1.300271 A    
C23   C25   1.422941 A    
C24   C26   1.421724 A    
O3    V1    2.000742 S    
O14   V4    1.705286 S    
C40   N8    1.438573 S    
C15   N15   1.439315 S    
C54   N4    1.431251 S    
C52   C56   1.409097 A    
C19   C21   1.426818 A    
C14   N14   1.439764 S    
C51   C55   1.409114 A    
C2    O12   1.294490 A    
C12   C32   1.417309 A    
C10   C34   1.390008 A    
C15   C17   1.399713 A    
C16   C18   1.399487 A    
O2    C4    1.303388 A    
C58   C60   1.401134 A    
N1    N3    1.249864 D    
C18   C20   1.413466 A    
O11   V3    1.992261 S    
C20   C22   1.426816 A    
C27   C29   1.399493 A    
O17   V3    1.997731 S    
C13   C35   1.413751 A    
C28   C30   1.399696 A    
C29   F13   1.356960 S    
C16   N16   1.439393 S    
C24   C32   1.436976 A    
N16   O43   1.301478 A    
C46   C48   1.411194 A    
O8    C4    1.300189 A    
N8    O27   1.299373 A    
C45   C47   1.411196 A    
O13   V1    2.151144 S    
C1    O11   1.294476 A    
C13   N13   1.440215 S    
C39   C41   1.408724 A    
O15   V3    1.993654 S    
C60   F10   1.357333 S    
C9    C25   1.408493 A    
C41   C43   1.416635 A    
C38   C40   1.421419 A    
C31   N11   1.437103 S    
C17   C19   1.413226 A    
C22   C36   1.431016 A    
C53   N3    1.431365 S    
C19   C23   1.436960 A    
O10   V2    1.995876 S    
O1    V3    1.992579 S    
C26   C28   1.412619 A    
N7    O26   1.300565 A    
C17   F11   1.357669 S    
C49   C51   1.402347 A    
C51   H3    1.082662 S    
C11   C33   1.395031 A    
N14   O40   1.301221 A    
C12   C34   1.395677 A    
C34   F2    1.358281 S    
C58   F6    1.357643 S    
C32   N12   1.437294 S    
N2    N4    1.249840 D    
O15   C5    1.302712 A    
O16   C6    1.302655 A    
O1    C3    1.303464 A    
C2    C11   1.479099 S    
C54   C60   1.401707 A    
O6    V2    1.989080 S    
N10   O31   1.301500 A    
N10   O32   1.301292 A    
C21   C29   1.412964 A    
N6    O24   1.301359 A    
V2    O20   1.704246 S    
C52   H4    1.082647 S    
C22   C30   1.413084 A    
O10   C6    1.299516 A    
N12   O36   1.301661 A    
O16   V4    1.993599 S    
N15   O42   1.301540 A    
C10   C26   1.408143 A    
C50   C54   1.411828 A    
C50   C52   1.402281 A    
C14   C16   1.405849 A    
C21   C35   1.431231 A    
N8    O28   1.300535 A    
O18   V4    1.997864 S    
O5    V1    1.988992 S    
O4    V2    2.000611 S    
O17   C7    1.294182 A    
C37   C47   1.411441 A    
N15   O41   1.301495 A    
C20   C24   1.436456 A    
O18   C8    1.294232 A    
O2    V4    1.992708 S    
N13   O37   1.300397 A    
V3    O19   2.152274 S    
C56   C58   1.412158 A    
N9    O29   1.301316 A    
V4    O20   2.152200 S    
C41   F7    1.359025 S    
C3    C38   1.499871 S    
C6    C56   1.494124 S    
C4    C37   1.499899 S    
O9    C5    1.299548 A    
N6    O23   1.301354 A    
C9    H1    1.081157 S    
C1    C12   1.478833 S    
O14   V2    2.151218 S    
C44   N2    1.436727 S    
C43   N1    1.436796 S    
C49   H5    1.082128 S    
C30   F14   1.357091 S    
C47   F3    1.359216 S    
C10   H2    1.081466 S    
C9    C33   1.389403 A    
C5    C55   1.494263 S    
C50   H6    1.082111 S    
C42   C44   1.416581 A    
C38   C48   1.411459 A    
C44   C46   1.412854 A    
C42   F8    1.359026 S    
C25   C27   1.412650 A    
C49   C53   1.411880 A    
C11   C31   1.417171 A    
C59   F9    1.357331 S    
N13   O38   1.301264 A    
C8    C36   1.480183 S    
