data_mof_unit_52484.cif
_audit_creation_date              2012-12-10T17:24:09-0500
_audit_creation_method            fapswitch 2.2
_symmetry_space_group_name_H-M    P1
_symmetry_Int_Tables_number       1
_space_group_crystal_system       triclinic
_cell_length_a                    10.287804
_cell_length_b                    10.543589
_cell_length_c                    16.343186
_cell_angle_alpha                 93.280296
_cell_angle_beta                  76.036837
_cell_angle_gamma                 95.076903
_cell_volume                      1712.43924734

loop_
_atom_site_label
_atom_site_type_symbol
_atom_type_description
_atom_site_fract_x
_atom_site_fract_y
_atom_site_fract_z
_atom_type_partial_charge
C1    C     C_R   0.556319 0.734026 0.489844 0.859435
C2    C     C_R   0.517950 0.492792 0.344437 0.910324
C3    C     C_R   0.444248 0.451264 0.744027 -0.164848
C4    C     C_R   0.517477 0.445634 0.259473 -0.097594
C5    C     C_R   0.540669 0.446682 0.791159 0.519930
C6    C     C_R   0.475581 0.520434 0.204497 0.498228
C7    C     C_R   0.497799 0.419425 0.876437 -0.272349
C8    C     C_R   0.456566 0.464614 0.128143 -0.277704
C9    C     C_R   0.367510 0.364968 0.910467 0.003185
C10   C     C_R   0.457066 0.331458 0.112579 0.017125
C11   C     C_R   0.273314 0.352657 0.859739 0.019435
C12   C     C_R   0.444252 0.266031 0.504752 0.852146
C13   C     C_R   0.492329 0.255129 0.171252 0.054603
C14   C     C_R   0.310987 0.402933 0.779109 -0.250061
C15   C     C_R   0.528566 0.314893 0.242029 -0.303549
C16   C     C_2   0.334058 0.329400 0.000544 -0.071272
C17   C     C_2   0.429089 0.278562 0.031473 -0.063631
C18   C     C_3   0.745600 0.361550 0.757253 0.109128
C19   C     C_3   0.759046 0.282407 0.675024 -0.769975
C20   C     C_3   0.327870 0.677642 0.220365 0.112635
C21   C     C_3   0.276789 0.778795 0.287860 -0.718596
C22   C     C_2   0.527967 0.196060 0.975974 0.939074
C23   C     C_2   0.588012 0.867576 0.466347 -0.202746
C24   C     C_2   0.213187 0.380019 0.059103 0.946867
C25   C     C_2   0.137951 0.284532 0.886678 0.996099
C26   C     C_2   0.485814 0.113708 0.163884 0.934404
C27   C     C_2   0.308795 0.073431 0.575922 0.909873
C28   C     C_2   0.721965 0.932916 0.467212 0.947906
C29   C     C_3   0.081460 0.268605 0.473760 0.081117
C30   C     C_3   0.141304 0.163888 0.411672 -0.749971
C31   C     C_3   0.838558 0.662027 0.609547 0.203472
C32   C     C_3   0.897219 0.782007 0.648996 -0.763790
C33   C     C_2   0.108429 0.568666 0.621754 0.975119
C34   C     C_2   0.413424 0.129196 0.504285 -0.242190
C35   C     C_2   0.891885 0.399668 0.382516 1.057322
C36   C     C_2   0.492113 0.924760 0.441779 -0.123114
C37   C     C_2   0.491316 0.062081 0.441648 -0.217995
C38   C     C_2   0.931783 0.521313 0.500016 0.303808
C39   C     C_2   0.073676 0.483666 0.494123 0.383595
C40   C     C_R   0.477356 0.492848 0.656000 0.887913
H1    H     H_    0.553645 0.257674 0.288195 0.184859
H2    H     H_    0.818163 0.199751 0.676469 0.221861
H3    H     H_    0.658199 0.246662 0.666420 0.249483
H4    H     H_    0.251731 0.594068 0.230295 0.186147
H5    H     H_    0.334837 0.715827 0.157324 0.185946
H6    H     H_    0.348988 0.864349 0.281487 0.250733
H7    H     H_    0.178384 0.806967 0.281363 0.237189
H8    H     H_    0.263476 0.740108 0.351406 0.254737
H9    H     H_    0.567073 0.070663 0.876754 0.343537
H10   H     H_    0.078832 0.368159 0.171385 0.368725
H11   H     H_    0.946483 0.261366 0.874522 0.358277
H12   H     H_    0.237463 0.396391 0.741182 0.246521
H13   H     H_    0.558976 0.952209 0.188400 0.365718
H14   H     H_    0.201899 0.919365 0.631311 0.371327
H15   H     H_    0.867229 0.068104 0.420218 0.349073
H16   H     H_    0.970352 0.252034 0.487555 0.100813
H17   H     H_    0.111863 0.260870 0.533990 0.199296
H18   H     H_    0.252324 0.180581 0.392941 0.250098
H19   H     H_    0.114345 0.069749 0.441010 0.219931
H20   H     H_    0.101896 0.163150 0.354067 0.267948
H21   H     H_    0.842821 0.579117 0.646892 0.175933
H22   H     H_    0.731704 0.676347 0.615473 0.206594
H23   H     H_    0.436452 0.525303 0.082084 0.144512
H24   H     H_    0.997808 0.813309 0.610224 0.291245
H25   H     H_    0.831356 0.861401 0.654242 0.255429
H26   H     H_    0.905256 0.763517 0.713727 0.223843
H27   H     H_    0.126702 0.674191 0.725765 0.344708
H28   H     H_    0.860992 0.267638 0.293568 0.351588
H29   H     H_    0.570556 0.433852 0.914891 0.153499
H30   H     H_    0.565288 0.111021 0.392219 0.244749
H31   H     H_    0.399760 0.871742 0.434957 0.212378
H32   H     H_    0.700620 0.298334 0.810765 0.141840
H33   H     H_    0.846886 0.393472 0.765835 0.250899
H34   H     H_    0.811499 0.340852 0.621008 0.241731
N1    N     N_2   0.846390 0.448330 0.467170 -0.227330
N2    N     N_2   0.153610 0.551670 0.532830 -0.173612
O1    O     O_R   0.430310 0.692580 0.506610 -0.571152
O2    O     O_3   0.457012 0.648022 0.226069 -0.637524
O3    O     O_2   0.640730 0.193530 0.987693 -0.629983
O4    O     O_R   0.491421 0.121486 0.910311 -0.759973
O5    O     O_2   0.159005 0.467561 0.038320 -0.621264
O6    O     O_R   0.161295 0.326564 0.137825 -0.753676
O7    O     O_2   0.118393 0.199436 0.937038 -0.573064
O8    O     O_R   0.033327 0.314953 0.852073 -0.793382
O9    O     O_2   0.404106 0.054401 0.130032 -0.599049
O10   O     O_R   0.571300 0.047891 0.198078 -0.785112
O11   O     O_2   0.255931 0.143261 0.634668 -0.636310
O12   O     O_R   0.569690 0.307420 0.493390 -0.580735
O13   O     O_R   0.270441 0.943066 0.577590 -0.778648
O14   O     O_2   0.789080 0.894717 0.511513 -0.622166
O15   O     O_R   0.774095 0.034794 0.415131 -0.759091
O16   O     O_3   0.127046 0.388054 0.437719 -0.573321
O17   O     O_3   0.904481 0.647324 0.523247 -0.581774
O18   O     O_2   0.041362 0.483043 0.663730 -0.710891
O19   O     O_R   0.158297 0.675812 0.662049 -0.779342
O20   O     O_2   0.983676 0.456301 0.332423 -0.628241
O21   O     O_R   0.822914 0.291923 0.355076 -0.774131
O22   O     O_R   0.652740 0.659410 0.485540 -0.565411
O23   O     O_R   0.347260 0.340590 0.514460 -0.589221
O24   O     O_R   0.375640 0.518570 0.627580 -0.590881
O25   O     O_R   0.624360 0.481430 0.372420 -0.602634
O26   O     O_R   0.598070 0.485390 0.606510 -0.614030
O27   O     O_R   0.401930 0.514610 0.393490 -0.565436
O28   O     O_3   0.675817 0.471459 0.755133 -0.653627
Zn1   Zn    Zn3+2 0.351480 0.522150 0.514070 1.040647
Zn2   Zn    Zn3+2 0.648520 0.477850 0.485930 1.005837

loop_
_geom_bond_atom_site_label_1
_geom_bond_atom_site_label_2
_ccdc_geom_bond_type
N2    Zn1   S    
C34   C37   D    
C1    O1    A    
C31   H21   S    
C33   O18   D    
C35   O20   D    
C35   N1    S    
O24   Zn1   S    
C36   C37   S    
C9    C16   S    
C22   O3    D    
C38   C39   S    
C11   C14   A    
C6    O2    S    
C11   C25   S    
C10   C17   S    
C18   C19   S    
C24   O6    S    
H28   O21   S    
C12   O23   A    
H15   O15   S    
C14   H12   S    
C16   C17   D    
C30   H20   S    
C25   O8    S    
C27   O13   S    
H13   O10   S    
C20   H5    S    
C19   H2    S    
C21   H8    S    
C5    O28   S    
C16   C24   S    
C37   H30   S    
H27   O19   S    
C31   H22   S    
C33   O19   S    
C20   H4    S    
C19   H3    S    
C38   N1    D    
C27   C34   S    
C18   H32   S    
O23   Zn1   S    
C12   O12   A    
C15   H1    S    
H14   O13   S    
C4    C6    A    
C5    C7    A    
C6    C8    A    
C2    O25   A    
C31   O17   S    
C2    C4    S    
C24   O5    D    
C40   O24   A    
C29   C30   S    
O12   Zn2   S    
C33   N2    S    
C31   C32   S    
C26   O10   S    
C30   H19   S    
O27   Zn1   S    
C18   O28   S    
C39   N2    D    
C27   O11   D    
C9    C11   A    
C32   H24   S    
C3    C14   A    
C29   H17   S    
C3    C40   S    
C1    C23   S    
C18   H33   S    
C13   C15   A    
C13   C26   S    
C23   C28   S    
C12   C34   S    
C39   O16   S    
H10   O6    S    
C32   H26   S    
C21   H6    S    
O25   Zn2   S    
C7    C9    A    
C19   H34   S    
C3    C5    A    
C10   C13   A    
C1    O22   A    
C7    H29   S    
C36   H31   S    
C29   H16   S    
C17   C22   S    
O22   Zn2   S    
H9    O4    S    
C20   O2    S    
C4    C15   A    
O1    Zn1   S    
C22   O4    S    
C2    O27   A    
C26   O9    D    
C30   H18   S    
C38   O17   S    
O26   Zn2   S    
C28   O15   S    
C8    H23   S    
C40   O26   A    
C20   C21   S    
N1    Zn2   S    
C8    C10   A    
C23   C36   D    
C25   O7    D    
C28   O14   D    
C35   O21   S    
H11   O8    S    
C29   O16   S    
C32   H25   S    
C21   H7    S    
