data_mof_unit_11375.cif
_audit_creation_date              2012-12-10T17:57:22-0500
_audit_creation_method            fapswitch 2.2
_symmetry_space_group_name_H-M    P1
_symmetry_Int_Tables_number       1
_space_group_crystal_system       triclinic
_cell_length_a                    9.508848
_cell_length_b                    10.820895
_cell_length_c                    13.453957
_cell_angle_alpha                 90.220067
_cell_angle_beta                  72.495375
_cell_angle_gamma                 90.234349
_cell_volume                      1320.21392777

loop_
_atom_site_label
_atom_site_type_symbol
_atom_type_description
_atom_site_fract_x
_atom_site_fract_y
_atom_site_fract_z
_atom_type_partial_charge
Br1   Br    Br    0.174778 0.136502 0.615862 -0.545951
C1    C     C_R   0.500043 0.737774 0.500579 0.810056
C2    C     C_R   0.373366 0.487703 0.814882 -0.095312
C3    C     C_R   0.631156 0.936979 0.465297 -0.173839
C4    C     C_R   0.421315 0.493321 0.700132 0.793140
C5    C     C_R   0.629193 0.064797 0.466499 -0.213948
C6    C     C_R   0.495459 0.127998 0.506526 -0.087527
C7    C     C_R   0.362590 0.061416 0.547960 0.263914
C8    C     C_R   0.365668 0.933425 0.544628 -0.197654
C9    C     C_R   0.499153 0.871282 0.503116 -0.075160
C10   C     C_R   0.897094 0.573091 0.567877 -0.012740
C11   C     C_R   0.045959 0.572929 0.567951 -0.010956
C12   C     C_R   0.433477 0.480758 0.979545 0.085163
C13   C     C_R   0.102854 0.426769 0.432211 0.020661
C14   C     C_R   0.953951 0.426821 0.432221 -0.020650
C15   C     C_R   0.498027 0.262057 0.503191 0.820986
C16   C     C_R   0.578732 0.498151 0.299944 0.796990
C17   C     C_R   0.789240 0.397630 0.028509 -0.195122
C18   C     C_R   0.623235 0.481903 0.186799 -0.044840
C19   C     C_R   0.230973 0.528868 0.868752 -0.174773
C20   C     C_R   0.187924 0.542356 0.976206 -0.155020
C21   C     C_R   0.288083 0.521293 0.031155 -0.182559
C22   C     C_R   0.471091 0.452806 0.871618 0.078245
C23   C     C_R   0.542311 0.465734 0.031630 0.076729
C24   C     C_R   0.680702 0.412288 0.978200 0.159019
C25   C     C_R   0.708038 0.371349 0.875993 -0.238111
C26   C     C_R   0.604090 0.389356 0.824008 -0.195460
C27   C     C_R   0.518481 0.503477 0.135120 -0.247560
C28   C     C_R   0.760321 0.431594 0.132659 -0.205421
Cu1   Cu    Cu3+1 0.359340 0.499980 0.500000 0.972882
Cu2   Cu    Cu3+1 0.640660 0.500020 0.500000 0.944598
H1    H     H_    0.842661 0.414258 0.171697 0.148138
H2    H     H_    0.418277 0.549266 0.178202 0.147116
H3    H     H_    0.153275 0.553463 0.827521 0.154778
H4    H     H_    0.246774 0.534790 0.114232 0.124888
H5    H     H_    0.077305 0.573152 0.016984 0.149176
H6    H     H_    0.628523 0.349533 0.747010 0.185414
H7    H     H_    0.735234 0.889635 0.433115 0.159693
H8    H     H_    0.732231 0.114205 0.434635 0.164284
H9    H     H_    0.263809 0.882361 0.576480 0.170229
H10   H     H_    0.818194 0.631746 0.622174 0.132759
H11   H     H_    0.079380 0.631389 0.622296 0.116886
H12   H     H_    0.181708 0.367955 0.378034 0.126932
H13   H     H_    0.920475 0.368191 0.378005 0.113767
H14   H     H_    0.810454 0.325134 0.835855 0.172987
H15   H     H_    0.895072 0.356970 0.988010 0.149832
N1    N     N_R   0.147940 0.499970 0.499970 -0.155525
N2    N     N_R   0.852060 0.500060 0.499990 -0.163867
O1    O     O_R   0.381250 0.680340 0.500010 -0.588400
O2    O     O_R   0.618820 0.680370 0.500010 -0.582892
O3    O     O_R   0.323240 0.499950 0.650980 -0.571144
O4    O     O_R   0.560810 0.499980 0.650980 -0.591790
O5    O     O_R   0.381180 0.319630 0.499990 -0.537444
O6    O     O_R   0.618750 0.319660 0.499990 -0.595466
O7    O     O_R   0.439190 0.500020 0.349020 -0.591083
O8    O     O_R   0.676760 0.500050 0.349020 -0.589048

loop_
_geom_bond_atom_site_label_1
_geom_bond_atom_site_label_2
_ccdc_geom_bond_type
C12   C21   A    
C10   C11   A    
C4    O4    A    
C5    C6    A    
C18   C27   A    
C1    O1    A    
C22   C26   A    
Cu2   O8    S    
Br1   C7    S    
C8    C9    A    
C16   O7    A    
C2    C22   A    
Cu2   O4    S    
Cu1   O3    S    
C19   H3    S    
C25   C26   A    
C6    C7    A    
C17   C28   A    
C20   C21   A    
C23   C24   A    
C21   H4    S    
C16   O8    A    
C10   N2    A    
C13   N1    A    
C17   C24   A    
C14   N2    A    
C26   H6    S    
C11   N1    A    
C17   H15   S    
C6    C15   S    
C16   C18   S    
Cu1   O1    S    
C3    H7    S    
C27   H2    S    
C10   H10   S    
C28   H1    S    
Cu2   N2    S    
Cu2   O6    S    
Cu1   Cu2   S    
Cu1   O5    S    
C15   O6    A    
C5    H8    S    
Cu2   O2    S    
C3    C9    A    
C1    C9    S    
Cu1   N1    S    
C2    C19   A    
C19   C20   A    
C12   C22   A    
C7    C8    A    
C3    C5    A    
Cu1   O7    S    
C20   H5    S    
C14   H13   S    
C13   C14   A    
C4    O3    A    
C11   H11   S    
C1    O2    A    
C25   H14   S    
C24   C25   A    
C15   O5    A    
C8    H9    S    
C23   C27   A    
C12   C23   A    
C13   H12   S    
C2    C4    S    
C18   C28   A    
