data_mof_unit_54215.cif
_audit_creation_date              2012-12-10T17:03:38-0500
_audit_creation_method            fapswitch 2.2
_symmetry_space_group_name_H-M    P1
_symmetry_Int_Tables_number       1
_space_group_crystal_system       triclinic
_cell_length_a                    10.05718
_cell_length_b                    10.74632
_cell_length_c                    13.130689
_cell_angle_alpha                 90.432654
_cell_angle_beta                  70.166348
_cell_angle_gamma                 90.292468
_cell_volume                      1334.91069361

loop_
_atom_site_label
_atom_site_type_symbol
_atom_type_description
_atom_site_fract_x
_atom_site_fract_y
_atom_site_fract_z
_atom_type_partial_charge
C1    C     C_R   0.499293 0.737212 0.502463 0.930816
C2    C     C_R   0.370325 0.483246 0.821599 -0.117729
C3    C     C_2   0.610930 0.067506 0.502285 -0.173465
C4    C     C_R   0.421456 0.493364 0.703860 0.849143
C5    C     C_2   0.505172 0.131088 0.487581 -0.318580
C6    C     C_2   0.614105 0.933566 0.495852 -0.155284
C7    C     C_2   0.495151 0.868804 0.512636 -0.328842
C8    C     C_2   0.086766 0.406860 0.466323 0.005341
C9    C     C_2   0.930305 0.401245 0.487301 -0.234744
C10   C     C_R   0.500882 0.262747 0.497646 0.936393
C11   C     C_R   0.578528 0.499129 0.295959 0.887261
C12   C     C_R   0.431546 0.472641 0.984561 0.086312
C13   C     C_R   0.768042 0.369548 0.019761 -0.197975
C14   C     C_R   0.625262 0.480612 0.179611 -0.059549
C15   C     C_R   0.237783 0.532983 0.881227 -0.193169
C16   C     C_R   0.199166 0.547267 0.992643 -0.153375
C17   C     C_R   0.296061 0.520810 0.043985 -0.177601
C18   C     C_2   0.167513 0.299036 0.406745 0.489698
C19   C     C_R   0.460453 0.439020 0.875423 0.084491
C20   C     C_R   0.539430 0.456704 0.029677 0.085178
C21   C     C_R   0.663368 0.388621 0.972859 0.171275
C22   C     C_R   0.679605 0.339112 0.871062 -0.250461
C23   C     C_R   0.579481 0.363988 0.822699 -0.191372
C24   C     C_R   0.528542 0.509449 0.129073 -0.211029
C25   C     C_R   0.747694 0.413467 0.124185 -0.201348
H1    H     H_    0.823408 0.390045 0.163150 0.160217
H2    H     H_    0.441865 0.570165 0.171264 0.144591
H3    H     H_    0.165789 0.564312 0.841382 0.158706
H4    H     H_    0.261009 0.535686 0.130424 0.146085
H5    H     H_    0.096120 0.584195 0.038752 0.147861
H6    H     H_    0.595396 0.322443 0.744154 0.168638
H7    H     H_    0.698221 0.113807 0.518246 0.161424
H8    H     H_    0.120257 0.206940 0.420825 -0.007392
H9    H     H_    0.421538 0.087779 0.465014 0.155525
H10   H     H_    0.715883 0.888258 0.478278 0.168783
H11   H     H_    0.391420 0.911232 0.536713 0.146596
H12   H     H_    0.083174 0.566387 0.545417 0.147487
H13   H     H_    0.883023 0.311339 0.482730 0.156379
H14   H     H_    0.902044 0.583708 0.492584 0.166206
H15   H     H_    0.771058 0.283210 0.827853 0.145989
H16   H     H_    0.862472 0.316775 0.977488 0.141568
N1    N     N_2   0.148270 0.498670 0.498870 -0.200176
N2    N     N_2   0.852610 0.498640 0.498840 -0.182607
O1    O     O_R   0.386950 0.680940 0.500020 -0.624335
O2    O     O_R   0.613110 0.680900 0.499980 -0.613776
O3    O     O_R   0.330780 0.500000 0.653640 -0.619430
O4    O     O_R   0.556930 0.499960 0.653610 -0.600610
O5    O     O_R   0.386890 0.319100 0.500020 -0.590025
O6    O     O_R   0.613050 0.319060 0.499980 -0.628125
O7    O     O_R   0.443070 0.500040 0.346390 -0.551782
O8    O     O_R   0.669220 0.500000 0.346360 -0.618606
O9    O     O_2   0.281996 0.312233 0.335935 -0.545011
Zn1   Zn    Zn3+2 0.349000 0.500030 0.500020 0.968478
Zn2   Zn    Zn3+2 0.651000 0.499970 0.499980 0.935958

loop_
_geom_bond_atom_site_label_1
_geom_bond_atom_site_label_2
_ccdc_geom_bond_type
C12   C17   A    
C19   C23   A    
C6    C7    D    
C17   H4    S    
C7    H11   S    
N2    Zn2   S    
C2    C4    S    
C24   H2    S    
O8    Zn2   S    
C22   H15   S    
C5    H9    S    
C12   C20   A    
C13   H16   S    
C2    C19   A    
C13   C21   A    
C5    C10   S    
C14   C25   A    
C11   O7    A    
C4    O3    A    
C21   C22   A    
C20   C21   A    
C2    C15   A    
C1    O2    A    
C15   H3    S    
C3    H7    S    
O4    Zn2   S    
C12   C19   A    
C9    H13   S    
C11   C14   S    
C8    N1    D    
O2    Zn2   S    
N1    Zn1   S    
C10   O5    A    
O5    Zn1   S    
C18   H8    S    
C9    N2    D    
O7    Zn1   S    
C11   O8    A    
C18   O9    D    
C15   C16   A    
C20   C24   A    
C6    H10   S    
O3    Zn1   S    
C3    C6    S    
C14   C24   A    
H12   N1    S    
C22   C23   A    
C16   C17   A    
H14   N2    S    
C1    O1    A    
C3    C5    D    
C25   H1    S    
C1    C7    S    
C10   O6    A    
C16   H5    S    
O1    Zn1   S    
C8    C18   S    
O6    Zn2   S    
C8    C9    S    
C13   C25   A    
C4    O4    A    
C23   H6    S    
