data_mof_unit_29279.cif
_audit_creation_date              2013-03-05T15:51:13-0500
_audit_creation_method            fapswitch 2.2
_symmetry_space_group_name_H-M    P1
_symmetry_Int_Tables_number       1
_space_group_crystal_system       triclinic
_cell_length_a                    23.099454
_cell_length_b                    6.965259
_cell_length_c                    20.671487
_cell_angle_alpha                 90.019776
_cell_angle_beta                  92.963056
_cell_angle_gamma                 89.999071
_cell_volume                      3321.4649132

loop_
_atom_site_label
_atom_site_type_symbol
_atom_site_description
_atom_site_fract_x
_atom_site_fract_y
_atom_site_fract_z
_atom_type_partial_charge
O1    O     O_R   0.188030 0.379840 0.189340 -0.576768
O2    O     O_R   0.811970 0.620160 0.810660 -0.577981
O3    O     O_R   0.311970 0.879840 0.310660 -0.575610
O4    O     O_R   0.688030 0.120160 0.689340 -0.573558
O5    O     O_R   0.307090 0.708420 0.185790 -0.569347
O6    O     O_R   0.692910 0.291580 0.814210 -0.573954
O7    O     O_R   0.192910 0.208420 0.314210 -0.572244
O8    O     O_R   0.807090 0.791580 0.685790 -0.569480
C1    C     C_R   0.326715 0.541192 0.170797 1.056794
C2    C     C_R   0.673275 0.458792 0.829211 1.062154
C3    C     C_R   0.173303 0.041227 0.329234 1.031710
C4    C     C_R   0.826786 0.958754 0.670869 1.045418
O9    O     O_R   0.188180 0.709480 0.181650 -0.562059
O10   O     O_R   0.811820 0.290520 0.818350 -0.562732
O11   O     O_R   0.311820 0.209480 0.318350 -0.551891
O12   O     O_R   0.688180 0.790520 0.681650 -0.550163
O13   O     O_R   0.192210 0.880960 0.306500 -0.602383
O14   O     O_R   0.807790 0.119040 0.693500 -0.603625
O15   O     O_R   0.307790 0.380960 0.193500 -0.602232
O16   O     O_R   0.692210 0.619040 0.806500 -0.601824
C5    C     C_R   0.167826 0.540572 0.165625 1.080511
C6    C     C_R   0.832208 0.459445 0.834342 1.080660
C7    C     C_R   0.331951 0.040825 0.334634 1.058417
C8    C     C_R   0.667762 0.959705 0.665515 1.059664
O17   O     O_3   0.251460 0.546730 0.290970 -0.256990
O18   O     O_3   0.748540 0.453270 0.709030 -0.254342
O19   O     O_3   0.248540 0.046730 0.209030 -0.262231
O20   O     O_3   0.751460 0.953270 0.790970 -0.266110
V1    V     V_3+5 0.249730 0.821120 0.242400 1.344333
V2    V     V_3+5 0.750270 0.178880 0.757600 1.345571
V3    V     V_3+5 0.250270 0.321120 0.257600 1.346586
V4    V     V_3+5 0.749730 0.678880 0.742400 1.353370
C9    C     C_R   0.574646 0.109267 0.622711 0.354390
C10   C     C_R   0.430583 0.915434 0.369548 0.350645
C11   C     C_R   0.929912 0.587307 0.871589 0.335855
C12   C     C_R   0.070212 0.412605 0.128174 0.336035
C13   C     C_R   0.619274 0.974206 0.614958 -0.412520
C14   C     C_R   0.382762 0.033234 0.381921 -0.447272
C15   C     C_R   0.881670 0.470831 0.883436 -0.426516
C16   C     C_R   0.118402 0.529395 0.116494 -0.426674
C17   C     C_R   0.618645 0.858632 0.558976 0.326509
C18   C     C_R   0.383202 0.143387 0.438945 0.300843
C19   C     C_R   0.880526 0.366723 0.941767 0.310316
C20   C     C_R   0.119488 0.634503 0.058358 0.306812
C21   C     C_R   0.574650 0.883315 0.508548 -0.046103
C22   C     C_R   0.433953 0.151884 0.480794 -0.048697
C23   C     C_R   0.925256 0.392640 0.991173 -0.055946
C24   C     C_R   0.074754 0.609243 0.008889 -0.061088
C25   C     C_R   0.528114 0.012803 0.517961 0.071132
C26   C     C_R   0.480681 0.024227 0.470922 0.039453
C27   C     C_R   0.976223 0.495234 0.976652 0.051619
C28   C     C_R   0.023867 0.505917 0.023264 0.053234
C29   C     C_R   0.528906 0.131124 0.574306 -0.120653
C30   C     C_R   0.479801 0.907965 0.414206 -0.101951
C31   C     C_R   0.979402 0.588021 0.915666 -0.122470
C32   C     C_R   0.020695 0.412697 0.084181 -0.121345
C33   C     C_R   0.576422 0.785342 0.448279 -0.279135
C34   C     C_R   0.439099 0.286235 0.532221 -0.259566
C35   C     C_R   0.919889 0.322379 0.055098 -0.265041
C36   C     C_R   0.079945 0.680950 0.945069 -0.260813
C37   C     C_R   0.529127 0.793652 0.402605 0.296976
C38   C     C_R   0.484828 0.272185 0.579532 0.288898
C39   C     C_R   0.967471 0.328045 0.100500 0.285097
C40   C     C_R   0.032520 0.673814 0.899515 0.288164
C41   C     C_3   0.047207 0.073777 0.531940 -0.176269
C42   C     C_3   0.953597 0.926076 0.468965 -0.171587
C43   C     C_3   0.452884 0.573589 0.968266 -0.172163
C44   C     C_3   0.546485 0.425490 0.031128 -0.169174
C45   C     C_3   0.017935 0.882286 0.549879 -0.175615
C46   C     C_3   0.982840 0.117579 0.451039 -0.177535
C47   C     C_3   0.482101 0.382062 0.950221 -0.179060
C48   C     C_3   0.517305 0.617057 0.049163 -0.178181
H1    H     H_    0.033061 0.789630 0.590927 0.228617
H2    H     H_    0.967701 0.210238 0.409996 0.228053
H3    H     H_    0.466933 0.289508 0.909143 0.226129
H4    H     H_    0.532477 0.709631 0.090237 0.228261
C49   C     C_1   0.872415 0.965654 0.625378 -0.151477
C50   C     C_1   0.127928 0.034279 0.375020 -0.154224
C51   C     C_1   0.627646 0.465648 0.874710 -0.160333
C52   C     C_1   0.372135 0.534150 0.125079 -0.151646
C53   C     C_3   0.987229 0.171369 0.524067 -0.110563
C54   C     C_3   0.013562 0.828504 0.476852 -0.110662
C55   C     C_3   0.512891 0.671000 0.976159 -0.108727
C56   C     C_3   0.486482 0.328130 0.023221 -0.109818
C57   C     C_3   0.957812 0.981368 0.541344 0.040730
C58   C     C_3   0.042960 0.018489 0.459558 0.041799
C59   C     C_3   0.542256 0.480951 0.958775 0.041303
C60   C     C_3   0.457151 0.518166 0.040619 0.040234
C61   C     C_1   0.910861 0.970637 0.587541 0.130868
C62   C     C_1   0.089712 0.029263 0.413132 0.131053
C63   C     C_1   0.589203 0.470426 0.912559 0.130822
C64   C     C_1   0.410386 0.529043 0.087018 0.131605
N1    N     N_R   0.573848 0.211463 0.682959 0.243713
O21   O     O_R   0.599187 0.377877 0.689034 -0.334008
O22   O     O_R   0.557075 0.123887 0.734323 -0.349638
N2    N     N_R   0.427272 0.798160 0.312437 0.249259
O23   O     O_R   0.430384 0.877435 0.255727 -0.360422
O24   O     O_R   0.410307 0.620569 0.316398 -0.338849
N3    N     N_R   0.927833 0.706275 0.814826 0.249307
O25   O     O_R   0.921209 0.890891 0.820587 -0.345287
O26   O     O_R   0.925600 0.628882 0.757427 -0.366319
N4    N     N_R   0.072331 0.292613 0.184698 0.249653
O27   O     O_R   0.078492 0.107936 0.178529 -0.343222
O28   O     O_R   0.074710 0.368908 0.242265 -0.364994
N5    N     N_R   0.661080 0.708842 0.555612 0.229583
O29   O     O_R   0.645515 0.530380 0.561373 -0.343817
O30   O     O_R   0.715770 0.751004 0.552517 -0.381892
N6    N     N_R   0.329027 0.215512 0.460310 0.213430
O31   O     O_R   0.306552 0.139425 0.510719 -0.355728
O32   O     O_R   0.304044 0.363808 0.432677 -0.345020
N7    N     N_R   0.835178 0.228537 0.949295 0.230860
O33   O     O_R   0.847851 0.046934 0.954289 -0.343622
O34   O     O_R   0.781167 0.282376 0.948093 -0.384860
N8    N     N_R   0.164915 0.772482 0.051086 0.230199
O35   O     O_R   0.218818 0.717824 0.051333 -0.380326
O36   O     O_R   0.152501 0.954554 0.047765 -0.346583
C65   C     C_2   0.630368 0.694444 0.427107 1.192761
O37   O     O_2   0.631989 0.521502 0.417137 -0.541409
O38   O     O_R   0.678934 0.808613 0.417606 -0.730550
H5    H     H_    0.712828 0.731410 0.402341 0.346303
C66   C     C_2   0.401523 0.459335 0.532918 1.192273
O39   O     O_2   0.373060 0.493739 0.579816 -0.517816
O40   O     O_R   0.399679 0.584160 0.479939 -0.777073
H6    H     H_    0.373136 0.697941 0.486058 0.339651
C67   C     C_2   0.862376 0.272488 0.079257 1.186627
O41   O     O_2   0.853380 0.111632 0.100168 -0.528935
O42   O     O_R   0.818737 0.411602 0.078356 -0.729918
H7    H     H_    0.781686 0.362231 0.096631 0.347500
C68   C     C_2   0.136951 0.738028 0.921204 1.185439
O43   O     O_2   0.175752 0.619107 0.919054 -0.572726
O44   O     O_R   0.146028 0.926595 0.900986 -0.696450
H8    H     H_    0.186624 0.947474 0.885919 0.355959
N9    N     N_R   0.534336 0.696542 0.341950 0.251263
O45   O     O_R   0.554382 0.788701 0.293153 -0.289483
O46   O     O_R   0.528468 0.510898 0.338818 -0.285665
N10   N     N_R   0.487862 0.413159 0.630161 0.259464
O47   O     O_R   0.508731 0.582608 0.618704 -0.360882
O48   O     O_R   0.459181 0.386137 0.681932 -0.249845
N11   N     N_R   0.958446 0.270901 0.165934 0.250677
O49   O     O_R   0.948898 0.400616 0.209410 -0.284561
O50   O     O_R   0.953425 0.090030 0.180344 -0.265324
N12   N     N_R   0.041592 0.731637 0.834159 0.249721
O51   O     O_R   0.046215 0.912704 0.819861 -0.267208
O52   O     O_R   0.051575 0.602451 0.790653 -0.283010
C69   C     C_2   0.099710 0.153112 0.568389 1.135690
O53   O     O_2   0.098323 0.182558 0.626568 -0.524782
O54   O     O_R   0.150049 0.191140 0.535993 -0.767233
H9    H     H_    0.182413 0.244123 0.565831 0.378442
C70   C     C_2   0.901198 0.846173 0.432518 1.131143
O55   O     O_2   0.902527 0.817570 0.374286 -0.529497
O56   O     O_R   0.851067 0.806162 0.465018 -0.770421
H10   H     H_    0.818935 0.751618 0.435241 0.355260
C71   C     C_2   0.400341 0.652939 0.931889 1.131518
O57   O     O_2   0.401727 0.682839 0.873745 -0.531980
O58   O     O_R   0.349953 0.690295 0.964293 -0.763598
H11   H     H_    0.317536 0.743081 0.934493 0.368565
C72   C     C_2   0.598834 0.344936 0.067493 1.128920
O59   O     O_2   0.597573 0.316792 0.125749 -0.534093
O60   O     O_R   0.648800 0.303425 0.034872 -0.769945
H12   H     H_    0.680778 0.247357 0.064517 0.354805
C73   C     C_2   0.031594 0.640652 0.449072 1.013312
O61   O     O_2   0.999487 0.557294 0.409615 -0.602001
O62   O     O_R   0.086115 0.565409 0.466959 -0.763757
H13   H     H_    0.094150 0.440862 0.443734 0.338411
C74   C     C_2   0.969221 0.359169 0.551898 1.013196
O63   O     O_2   0.001381 0.442544 0.591296 -0.600772
O64   O     O_R   0.914658 0.434318 0.534146 -0.765361
H14   H     H_    0.906634 0.558754 0.557442 0.339541
C75   C     C_2   0.468379 0.140325 0.050939 1.013819
O65   O     O_2   0.500474 0.056725 0.090327 -0.603650
O66   O     O_R   0.413806 0.065408 0.033076 -0.764655
H15   H     H_    0.405727 0.940874 0.056260 0.339064
C76   C     C_2   0.530925 0.858768 0.948377 1.011689
O67   O     O_2   0.498703 0.942455 0.909141 -0.607753
O68   O     O_R   0.585574 0.933517 0.965969 -0.763451
H16   H     H_    0.593609 0.057905 0.942677 0.339086

loop_
_geom_bond_atom_site_label_1
_geom_bond_atom_site_label_2
_geom_bond_distance
_ccdc_geom_bond_type
C34   C38   1.405383 A    
C55   C59   1.538298 S    
O66   H15   1.013132 S    
O1    C5    1.299309 A    
C74   O63   1.220461 D    
C59   C63   1.483649 S    
O19   V1    1.716033 S    
O13   V1    1.968875 S    
C75   O65   1.220461 D    
O3    C7    1.300747 A    
O54   H9    1.013745 S    
C48   H4    1.108321 S    
O15   V3    1.969077 S    
C42   C57   1.543007 S    
C73   O61   1.220469 D    
C37   N9    1.434956 S    
C41   C58   1.543094 S    
C42   C46   1.548889 S    
C76   O67   1.220432 D    
C50   C62   1.213716 T    
C2    C51   1.449217 S    
O7    C3    1.293266 A    
N5    O30   1.301797 A    
C49   C61   1.213861 T    
C43   C60   1.542991 S    
C72   O59   1.221998 D    
C17   N5    1.435672 S    
C12   N4    1.435586 S    
C10   N2    1.434160 S    
C14   C18   1.405848 A    
C70   O56   1.396611 S    
O60   H12   1.013424 S    
C69   O53   1.221991 D    
O4    C8    1.298698 A    
C41   C45   1.549190 S    
O1    V3    2.003986 S    
N6    O31   1.300960 A    
O2    V4    2.003986 S    
C18   C22   1.421724 A    
C38   N10   1.433908 S    
C33   C37   1.407727 A    
O3    V1    2.003798 S    
C46   C53   1.553484 S    
C12   C16   1.409646 A    
C45   C54   1.553440 S    
C69   O54   1.396908 S    
C28   C32   1.422248 A    
C41   C53   1.544273 S    
C1    O15   1.295579 A    
O62   H13   1.013119 S    
C2    O16   1.295829 A    
N2    O24   1.301445 A    
C46   H2    1.108298 S    
O56   H10   1.013275 S    
C45   H1    1.108291 S    
O14   V2    1.968875 S    
C21   C25   1.424183 A    
C71   O58   1.397006 S    
C16   C20   1.408734 A    
C51   C63   1.213915 T    
C44   C48   1.548970 S    
O11   C7    1.301389 A    
C43   C71   1.499977 S    
C48   C60   1.552731 S    
C20   N8    1.436586 S    
O12   C8    1.306274 A    
C22   C34   1.416407 A    
O17   V1    2.158587 S    
C75   O66   1.396258 S    
C74   O64   1.396229 S    
C19   N7    1.436973 S    
O10   V2    2.004466 S    
C11   N3    1.435490 S    
C73   O62   1.396249 S    
C18   N6    1.438901 S    
C24   C36   1.421651 A    
O5    V1    1.975048 S    
C76   O68   1.396196 S    
C9    C29   1.425317 A    
O7    V3    1.975386 S    
C11   C31   1.424558 A    
C27   C28   1.426704 A    
C44   C56   1.544071 S    
C60   C64   1.483127 S    
O40   H6    1.013864 S    
C42   C70   1.499292 S    
N10   O48   1.301195 A    
C56   C75   1.496537 S    
C58   C62   1.483269 S    
O64   H14   1.013117 S    
C4    C49   1.449146 S    
C57   C61   1.483546 S    
O18   V4    1.715599 S    
C23   C27   1.422507 A    
C27   C31   1.422140 A    
C54   C58   1.538029 S    
O19   V3    2.157973 S    
C9    C13   1.410784 A    
C1    C52   1.448725 S    
O8    V4    1.975387 S    
C52   C64   1.213615 T    
C11   C15   1.410085 A    
N2    O23   1.301326 A    
O2    C6    1.299224 A    
C12   C32   1.424009 A    
C3    C50   1.448909 S    
C67   O42   1.397642 S    
C42   C54   1.543967 S    
C29   C38   1.423027 A    
N8    O36   1.301238 A    
O68   H16   1.013125 S    
O20   V4    2.157973 S    
O8    C4    1.293348 A    
C21   C33   1.422745 A    
C31   C40   1.420084 A    
C8    C13   1.495310 S    
C32   C39   1.419861 A    
O9    C5    1.303289 A    
N7    O34   1.301777 A    
N1    O21   1.301634 A    
C26   C30   1.423938 A    
C43   C55   1.544315 S    
O38   H5    1.013467 S    
O11   V3    2.004785 S    
C66   O39   1.222837 D    
C47   C59   1.552763 S    
O6    V2    1.975047 S    
O44   H8    1.013788 S    
C10   C30   1.427933 A    
C55   C76   1.496359 S    
N9    O45   1.301044 A    
N12   O52   1.300961 A    
C72   O60   1.396693 S    
C35   C67   1.484528 S    
C41   C69   1.499725 S    
C44   C72   1.499491 S    
C46   C58   1.552673 S    
C45   C57   1.552717 S    
C33   C65   1.483705 S    
C47   C56   1.553409 S    
O16   V4    1.969077 S    
O9    V1    2.004465 S    
C3    O13   1.295592 A    
C34   C66   1.486109 S    
C17   C21   1.428140 A    
N7    O33   1.301272 A    
N3    O26   1.301646 A    
C10   C14   1.409933 A    
C39   N11   1.435632 S    
O17   V3    1.715599 S    
C56   C60   1.537944 S    
O5    C1    1.293272 A    
N10   O47   1.301347 A    
C30   C37   1.420492 A    
C9    N1    1.435213 S    
C36   C68   1.484152 S    
O6    C2    1.293300 A    
C15   C19   1.408664 A    
N11   O49   1.300978 A    
N8    O35   1.301786 A    
C54   C73   1.496483 S    
O12   V4    2.004789 S    
C7    C14   1.489048 S    
N5    O29   1.301201 A    
C22   C26   1.421253 A    
C35   C39   1.408466 A    
N3    O25   1.301114 A    
N4    O28   1.301660 A    
C36   C40   1.408060 A    
O10   C6    1.303507 A    
C65   O38   1.397289 S    
C68   O43   1.222883 D    
C65   O37   1.222920 D    
C47   H3    1.108271 S    
N11   O50   1.301208 A    
C67   O41   1.222691 D    
C5    C16   1.490305 S    
C40   N12   1.435616 S    
C25   C29   1.425929 A    
C6    C15   1.490547 S    
O20   V2    1.716034 S    
N6    O32   1.300977 A    
C43   C47   1.549167 S    
C13   C17   1.408924 A    
N4    O27   1.301112 A    
O4    V2    2.003797 S    
C66   O40   1.397474 S    
C48   C55   1.553523 S    
C23   C35   1.420713 A    
C20   C24   1.426568 A    
C24   C28   1.422761 A    
N1    O22   1.300983 A    
C25   C26   1.429069 A    
C4    O14   1.295633 A    
O58   H11   1.013827 S    
N9    O46   1.301385 A    
C44   C59   1.543057 S    
C53   C74   1.496427 S    
N12   O51   1.301103 A    
C71   O57   1.221961 D    
C70   O55   1.222012 D    
C19   C23   1.426188 A    
C53   C57   1.538224 S    
O42   H7    1.013411 S    
C68   O44   1.397548 S    
O18   V2    2.158586 S    
