data_mof_unit_36026.cif
_audit_creation_date              2012-12-10T18:10:25-0500
_audit_creation_method            fapswitch 2.2
_symmetry_space_group_name_H-M    P1
_symmetry_Int_Tables_number       1
_space_group_crystal_system       triclinic
_cell_length_a                    11.141331
_cell_length_b                    9.455103
_cell_length_c                    15.960052
_cell_angle_alpha                 90.965233
_cell_angle_beta                  94.42524
_cell_angle_gamma                 90.040032
_cell_volume                      1676.01736328

loop_
_atom_site_label
_atom_site_type_symbol
_atom_type_description
_atom_site_fract_x
_atom_site_fract_y
_atom_site_fract_z
_atom_type_partial_charge
C1    C     C_R   0.260241 0.499502 0.494384 0.913985
C2    C     C_3   0.652959 0.532289 0.965399 0.607981
C3    C     C_3   0.638735 0.533602 0.063083 -0.563514
C4    C     C_1   0.522176 0.503246 0.824750 0.172770
C5    C     C_1   0.503625 0.500018 0.175164 0.114507
C6    C     C_1   0.501257 0.498663 0.250529 -0.029087
C7    C     C_3   0.081395 0.640308 0.522360 -0.474379
C8    C     C_3   0.083452 0.389442 0.549881 -0.521619
C9    C     C_3   0.941361 0.656756 0.520333 0.250314
C10   C     C_3   0.944265 0.371390 0.550319 0.185177
C11   C     C_3   0.064206 0.468709 0.391998 0.490618
C12   C     C_3   0.122740 0.498297 0.486867 -0.159442
C13   C     C_3   0.880437 0.499471 0.490855 -0.317013
C14   C     C_R   0.498921 0.499244 0.340174 0.981663
C15   C     C_3   0.914294 0.465799 0.392825 -0.422013
C16   C     C_3   0.579964 0.085341 0.572156 -0.158382
C17   C     C_3   0.588928 0.919081 0.566458 -0.167600
C18   C     C_3   0.379060 0.084035 0.514189 -0.185445
C19   C     C_3   0.381329 0.916859 0.521278 -0.198871
C20   C     C_3   0.537529 0.080036 0.421866 -0.198238
C21   C     C_3   0.521401 0.915033 0.418276 -0.180910
C22   C     C_R   0.741015 0.499993 0.497597 1.015659
C23   C     C_R   0.502356 0.501003 0.659683 0.851989
C24   C     C_3   0.429801 0.625275 0.041453 0.181067
C25   C     C_3   0.478535 0.349143 0.042513 0.217557
C26   C     C_3   0.468881 0.356993 0.944688 -0.341407
C27   C     C_3   0.425511 0.615058 0.943863 -0.324432
C28   C     C_1   0.513753 0.502791 0.749233 -0.013382
C29   C     C_3   0.506686 0.500532 0.082867 -0.102285
C30   C     C_3   0.522130 0.503204 0.917034 -0.149775
Cu1   Cu    Cu3+1 0.499860 0.642410 0.500040 1.028527
Cu2   Cu    Cu3+1 0.499860 0.357590 0.500040 1.027106
H1    H     H_    0.335213 0.572987 0.921601 0.149173
H2    H     H_    0.371629 0.355456 0.923645 0.186920
H3    H     H_    0.544773 0.114935 0.633465 0.181728
H4    H     H_    0.575568 0.874557 0.629067 0.181618
H5    H     H_    0.669766 0.133747 0.575398 0.236822
H6    H     H_    0.679952 0.889208 0.552571 0.254067
H7    H     H_    0.343133 0.131543 0.571377 0.166718
H8    H     H_    0.359574 0.885835 0.585369 0.174303
H9    H     H_    0.483001 0.124844 0.367506 0.191342
H10   H     H_    0.443544 0.888964 0.372495 0.180411
H11   H     H_    0.632483 0.106520 0.413862 0.204064
H12   H     H_    0.596772 0.862636 0.390540 0.208862
H13   H     H_    0.316244 0.113029 0.460319 0.217594
H14   H     H_    0.308295 0.873122 0.476963 0.193807
H15   H     H_    0.558593 0.284376 0.061997 0.195922
H16   H     H_    0.477788 0.724324 0.062336 0.191999
H17   H     H_    0.666741 0.636932 0.092819 0.239043
H18   H     H_    0.701267 0.458541 0.096703 0.249580
H19   H     H_    0.127272 0.723723 0.489460 0.226193
H20   H     H_    0.131102 0.291450 0.535874 0.211411
H21   H     H_    0.124656 0.653938 0.586820 0.234324
H22   H     H_    0.123922 0.417895 0.613804 0.225560
N1    N     N_3   0.500250 0.143650 0.501830 -0.157205
N2    N     N_3   0.500250 0.856350 0.501830 -0.153773
O1    O     O_R   0.317570 0.620260 0.500050 -0.596413
O2    O     O_R   0.317570 0.379740 0.500050 -0.578025
O3    O     O_R   0.499890 0.620310 0.379470 -0.571682
O4    O     O_R   0.499890 0.379690 0.379470 -0.555371
O5    O     O_R   0.682190 0.620260 0.500020 -0.510630
O6    O     O_R   0.682190 0.379740 0.500020 -0.538965
O7    O     O_R   0.499870 0.620210 0.620600 -0.572325
O8    O     O_R   0.499870 0.379790 0.620600 -0.575715
C31   C     C_2   0.909922 0.785484 0.463467 0.985106
O9    O     O_2   0.986619 0.872823 0.449367 -0.494339
O10   O     O_R   0.792530 0.824744 0.442486 -0.739504
H23   H     H_    0.787555 0.916348 0.410108 0.350482
C32   C     C_2   0.918531 0.215548 0.522855 1.011159
O11   O     O_2   0.821413 0.179432 0.490376 -0.592456
O12   O     O_R   0.997865 0.105103 0.545981 -0.618467
H24   H     H_    0.057206 0.123952 0.596158 0.327702
S1    S     S_3+6 0.120438 0.604726 0.321602 0.083252
O13   O     O_2   0.056953 0.743658 0.324975 -0.240976
O14   O     O_2   0.252097 0.633702 0.340009 -0.313958
O15   O     O_3   0.101635 0.547055 0.221322 -0.318901
H25   H     H_    0.174029 0.490089 0.212884 0.438546
S2    S     S_3+6 0.130055 0.306320 0.347984 0.046008
O16   O     O_2   0.073373 0.276017 0.260821 -0.165419
O17   O     O_2   0.262167 0.325558 0.339831 -0.300203
O18   O     O_3   0.112660 0.162342 0.405973 -0.530219
H26   H     H_    0.129659 0.081000 0.368786 0.415483
C33   C     C_2   0.853132 0.566960 0.327110 0.890189
O19   O     O_2   0.881392 0.562642 0.254589 -0.452512
O20   O     O_R   0.744805 0.632954 0.340976 -0.759578
H27   H     H_    0.710239 0.688069 0.290729 0.332031
C34   C     C_2   0.847962 0.329676 0.356625 0.939689
O21   O     O_2   0.898029 0.217652 0.344812 -0.462337
O22   O     O_R   0.724249 0.334520 0.333755 -0.775387
H28   H     H_    0.692353 0.245134 0.303837 0.332595
S3    S     S_3+6 0.281853 0.653671 0.076384 0.083214
O23   O     O_2   0.294296 0.692665 0.168146 -0.222116
O24   O     O_2   0.222161 0.775287 0.030313 -0.201096
O25   O     O_3   0.194096 0.510166 0.059050 -0.405892
H29   H     H_    0.162067 0.515619 0.999563 0.384837
S4    S     S_3+6 0.357731 0.244887 0.081150 0.082126
O26   O     O_2   0.315983 0.304392 0.161577 -0.221269
O27   O     O_2   0.251667 0.232628 0.017220 -0.210824
O28   O     O_3   0.411848 0.081505 0.099978 -0.471842
H30   H     H_    0.343508 0.027800 0.119937 0.416556
C35   C     C_2   0.513203 0.224979 0.900785 0.952820
O29   O     O_2   0.485148 0.205426 0.825828 -0.602718
O30   O     O_R   0.581579 0.123021 0.944889 -0.635559
H31   H     H_    0.611472 0.047523 0.905862 0.384084
C36   C     C_2   0.421220 0.759134 0.901561 0.992998
O31   O     O_2   0.416614 0.766482 0.824975 -0.591016
O32   O     O_R   0.408877 0.883020 0.949133 -0.653744
H32   H     H_    0.389301 0.968009 0.912833 0.367203
S5    S     S_3+6 0.715467 0.703202 0.939216 0.043363
O33   O     O_2   0.647988 0.821114 0.978183 -0.301717
O34   O     O_2   0.844220 0.716666 0.974039 -0.153595
O35   O     O_3   0.709309 0.722776 0.834441 -0.523465
H33   H     H_    0.736176 0.821126 0.826266 0.391933
S6    S     S_3+6 0.764516 0.396633 0.940930 0.097273
O36   O     O_2   0.767248 0.279385 0.003392 -0.203303
O37   O     O_2   0.735891 0.332602 0.855061 -0.302586
O38   O     O_3   0.905576 0.461317 0.944298 -0.395095
H34   H     H_    0.918152 0.487913 0.885837 0.404580
S7    S     S_3+6 0.903474 0.730435 0.623565 0.051284
O39   O     O_2   0.789948 0.669338 0.652133 -0.284236
O40   O     O_2   0.003225 0.714225 0.691549 -0.214197
O41   O     O_3   0.881144 0.905707 0.617733 -0.503415
H35   H     H_    0.851814 0.934213 0.672568 0.388953
S8    S     S_3+6 0.902585 0.364292 0.659857 0.042043
O42   O     O_2   0.920558 0.218036 0.694176 -0.268811
O43   O     O_2   0.978263 0.459956 0.717988 -0.221922
O44   O     O_3   0.756584 0.400522 0.666317 -0.518057
H36   H     H_    0.752269 0.445886 0.722171 0.412743

loop_
_geom_bond_atom_site_label_1
_geom_bond_atom_site_label_2
_ccdc_geom_bond_type
C19   N2    S    
C34   O21   D    
C18   H13   S    
C2    S5    S    
C35   O29   D    
S1    O13   D    
Cu1   O5    S    
C24   C27   S    
Cu2   O2    S    
S6    O36   D    
C3    H17   S    
C19   H14   S    
O20   H27   S    
C27   H1    S    
C14   O3    A    
C36   O32   S    
S8    O43   D    
C10   S8    S    
S5    O34   D    
C26   C35   S    
C5    C6    T    
S2    O17   D    
C22   O6    A    
C27   C36   S    
S4    O28   S    
C32   O12   S    
C18   C19   S    
Cu1   O3    S    
C3    C29   S    
C9    C13   S    
C24   C29   S    
C11   C15   S    
C26   H2    S    
O28   H30   S    
C16   C17   S    
C31   O10   S    
S4    O27   D    
O32   H32   S    
C17   H4    S    
Cu1   N2    S    
C25   H15   S    
Cu2   N1    S    
C16   H5    S    
C23   O7    A    
C35   O30   S    
C27   C30   S    
S1    O14   D    
O25   H29   S    
C1    C12   S    
C1    O2    A    
C20   N1    S    
C20   H9    S    
O35   H33   S    
C4    C28   T    
C3    H18   S    
O18   H26   S    
C5    C29   S    
S7    O40   D    
C25   C29   S    
C7    C12   S    
O10   H23   S    
C24   H16   S    
Cu1   O7    S    
O15   H25   S    
Cu2   O8    S    
C11   S1    S    
S5    O35   S    
C8    H22   S    
S3    O23   D    
S2    O16   D    
C15   C33   S    
C25   C26   S    
S3    O24   D    
C18   H7    S    
C11   S2    S    
C1    O1    A    
C6    C14   S    
C21   H12   S    
C33   O19   D    
C8    C12   S    
S4    O26   D    
C23   C28   S    
C17   N2    S    
C18   N1    S    
S8    O44   S    
C23   O8    A    
C33   O20   S    
C26   C30   S    
C13   C15   S    
C9    S7    S    
S1    O15   S    
Cu2   O4    S    
O44   H36   S    
C24   S3    S    
C20   H11   S    
C15   C34   S    
S7    O41   S    
C7    C9    S    
C8    H20   S    
Cu1   Cu2   S    
C10   C13   S    
C21   N2    S    
S6    O37   D    
S7    O39   D    
C14   O4    A    
C36   O31   D    
C2    C30   S    
Cu1   O1    S    
C34   O22   S    
C2    C3    S    
O22   H28   S    
C16   N1    S    
Cu2   O6    S    
O12   H24   S    
C16   H3    S    
O38   H34   S    
C22   O5    A    
C2    S6    S    
S2    O18   S    
C13   C22   S    
C17   H6    S    
C32   O11   D    
C9    C31   S    
S6    O38   S    
C19   H8    S    
C7    H19   S    
C21   H10   S    
C10   C32   S    
C20   C21   S    
C25   S4    S    
C8    C10   S    
C31   O9    D    
O30   H31   S    
C7    H21   S    
O41   H35   S    
S5    O33   D    
C4    C30   S    
C11   C12   S    
S8    O42   D    
S3    O25   S    
