data_mof_unit_22943.cif
_audit_creation_date              2012-12-10T19:47:27-0500
_audit_creation_method            fapswitch 2.2
_symmetry_space_group_name_H-M    P1
_symmetry_Int_Tables_number       1
_space_group_crystal_system       triclinic
_cell_length_a                    10.825849
_cell_length_b                    10.869207
_cell_length_c                    12.71434
_cell_angle_alpha                 93.051171
_cell_angle_beta                  93.194177
_cell_angle_gamma                 90.342469
_cell_volume                      1491.57415419

loop_
_atom_site_label
_atom_site_type_symbol
_atom_type_description
_atom_site_fract_x
_atom_site_fract_y
_atom_site_fract_z
_atom_type_partial_charge
C1    C     C_R   0.261907 0.496338 0.500386 0.789099
C2    C     C_R   0.738097 0.503629 0.499610 0.789984
C3    C     C_R   0.494027 0.871706 0.497492 -0.090961
C4    C     C_R   0.506129 0.128293 0.502528 -0.092200
C5    C     C_R   0.452238 0.934015 0.407297 0.011290
C6    C     C_R   0.547893 0.065984 0.592752 0.011933
C7    C     C_R   0.246433 0.187424 0.709903 -0.106045
C8    C     C_R   0.754005 0.812291 0.289589 -0.106554
C9    C     C_R   0.190806 0.259375 0.633131 -0.122264
C10   C     C_R   0.809744 0.740603 0.366490 -0.126651
C11   C     C_R   0.129901 0.368358 0.662884 0.115934
C12   C     C_R   0.870082 0.631233 0.336944 0.111073
C13   C     C_R   0.125545 0.404521 0.770295 -0.137774
C14   C     C_R   0.873722 0.594369 0.229627 -0.125253
C15   C     C_R   0.182890 0.333096 0.846873 -0.136401
C16   C     C_R   0.816254 0.665532 0.152928 -0.125246
C17   C     C_R   0.243127 0.224495 0.816728 -0.115670
C18   C     C_R   0.756614 0.774551 0.182856 -0.114253
C19   C     C_R   0.938105 0.449054 0.580591 -0.243801
C20   C     C_R   0.061904 0.550807 0.419362 -0.241196
C21   C     C_R   0.871808 0.505733 0.499369 -0.074700
C22   C     C_R   0.128202 0.494155 0.500601 -0.075549
C23   C     C_R   0.503861 0.261885 0.500911 0.789917
C24   C     C_R   0.496188 0.738115 0.499094 0.790468
C25   C     C_R   0.934017 0.558706 0.418322 0.006785
C26   C     C_R   0.065994 0.441092 0.581608 0.005211
C27   C     C_2   0.472573 0.459853 0.030566 -0.182677
C28   C     C_2   0.527460 0.540148 0.969429 -0.242302
C29   C     C_1   0.522526 0.527034 0.852994 0.206155
C30   C     C_1   0.477487 0.472973 0.147005 0.230303
C31   C     C_R   0.758823 0.256611 0.788378 -0.232692
C32   C     C_R   0.240152 0.744176 0.212123 -0.120926
C33   C     C_R   0.708480 0.201266 0.693410 -0.142382
C34   C     C_R   0.290909 0.799401 0.306985 -0.195180
C35   C     C_R   0.600870 0.128268 0.692397 0.142216
C36   C     C_R   0.398956 0.871716 0.307795 0.140743
C37   C     C_R   0.547558 0.108104 0.788390 -0.257893
C38   C     C_R   0.452416 0.891189 0.211750 -0.203286
C39   C     C_R   0.596801 0.164849 0.882787 -0.142495
C40   C     C_R   0.402863 0.834393 0.117481 -0.255182
C41   C     C_R   0.702172 0.239885 0.883656 0.487730
C42   C     C_R   0.296232 0.759780 0.117198 0.484040
C43   C     C_R   0.540384 0.938340 0.588603 -0.253142
C44   C     C_R   0.459824 0.061644 0.411401 -0.250688
Cu1   Cu    Cu3+1 0.492140 0.492110 0.395880 0.988103
Cu2   Cu    Cu3+1 0.507860 0.507890 0.604120 0.981559
H1    H     H_    0.078097 0.487894 0.794499 0.137312
H2    H     H_    0.920688 0.510652 0.205593 0.136573
H3    H     H_    0.179894 0.361487 0.929585 0.140389
H4    H     H_    0.818693 0.636601 0.070291 0.134252
H5    H     H_    0.889550 0.406685 0.641331 0.146925
H6    H     H_    0.110451 0.593155 0.358599 0.143949
H7    H     H_    0.577157 0.619196 0.007020 0.146385
H8    H     H_    0.422820 0.380843 0.992966 0.145290
H9    H     H_    0.842241 0.311710 0.788349 0.118379
H10   H     H_    0.156407 0.689470 0.211618 0.138779
H11   H     H_    0.753424 0.214700 0.620839 0.121008
H12   H     H_    0.245900 0.786456 0.379606 0.123368
H13   H     H_    0.467734 0.048085 0.790341 0.134217
H14   H     H_    0.532558 0.950752 0.209668 0.136849
H15   H     H_    0.553289 0.149724 0.955718 0.139338
H16   H     H_    0.446990 0.849438 0.044822 0.119176
H17   H     H_    0.574523 0.890450 0.656925 0.166077
H18   H     H_    0.425688 0.109506 0.343061 0.167032
H19   H     H_    0.286505 0.168791 0.876188 0.118301
H20   H     H_    0.713141 0.830051 0.123297 0.122058
H21   H     H_    0.291077 0.102474 0.686207 0.127903
H22   H     H_    0.709807 0.897545 0.313110 0.129208
H23   H     H_    0.193613 0.229361 0.550673 0.106741
H24   H     H_    0.807452 0.771098 0.448874 0.107783
N1    N     N_1   0.480320 0.480250 0.239400 -0.156715
N2    N     N_1   0.519680 0.519750 0.760600 -0.155232
O1    O     O_R   0.313000 0.493330 0.412070 -0.585015
O2    O     O_R   0.687000 0.506670 0.587930 -0.584956
O3    O     O_R   0.326280 0.506660 0.587930 -0.564371
O4    O     O_R   0.673720 0.493340 0.412070 -0.561630
O5    O     O_R   0.493370 0.312980 0.412070 -0.584344
O6    O     O_R   0.506630 0.687020 0.587930 -0.587941
O7    O     O_R   0.506650 0.326310 0.587930 -0.562712
O8    O     O_R   0.493350 0.673690 0.412070 -0.563113
O9    O     O_3   0.748088 0.294282 0.978413 -0.745574
H25   H     H_    0.821544 0.345136 0.965487 0.311116
O10   O     O_3   0.244199 0.702260 0.025875 -0.752415
H26   H     H_    0.295043 0.721711 0.966286 0.316428

loop_
_geom_bond_atom_site_label_1
_geom_bond_atom_site_label_2
_ccdc_geom_bond_type
Cu1   N1    S    
C30   N1    T    
C27   H8    S    
C43   H17   S    
C39   C41   A    
Cu1   Cu2   S    
C44   H18   S    
C3    C43   A    
Cu1   O4    S    
C28   C29   S    
C19   C21   A    
C16   H4    S    
Cu2   O7    S    
C20   C25   A    
C5    C36   S    
C40   H16   S    
C6    C35   S    
Cu1   O1    S    
C19   C26   A    
C23   O7    A    
C24   O8    A    
C7    C17   A    
C31   C33   A    
Cu2   N2    S    
C2    O2    A    
C29   N2    T    
C40   C42   A    
C1    C22   S    
C27   C30   S    
C3    C24   S    
Cu2   O3    S    
O9    H25   S    
C39   H15   S    
C1    O3    A    
C4    C6    A    
Cu2   O6    S    
C4    C23   S    
C14   H2    S    
C4    C44   A    
C11   C26   S    
C8    C18   A    
C32   C34   A    
O10   H26   S    
C41   O9    S    
C2    C21   S    
C23   O5    A    
C9    C11   A    
C37   H13   S    
C10   C12   A    
C38   H14   S    
C10   H24   S    
C24   O6    A    
C5    C44   A    
C12   C14   A    
C8    H22   S    
C6    C43   A    
C13   C15   A    
C14   C16   A    
C20   C22   A    
Cu2   O2    S    
C2    O4    A    
C13   H1    S    
C7    C9    A    
C21   C25   A    
C33   H11   S    
C31   C41   A    
C35   C37   A    
C8    C10   A    
C42   O10   S    
C9    H23   S    
C3    C5    A    
C28   H7    S    
C15   C17   A    
C18   H20   S    
C17   H19   S    
C12   C25   S    
C20   H6    S    
C1    O1    A    
C36   C38   A    
C37   C39   A    
C38   C40   A    
C11   C13   A    
C33   C35   A    
Cu1   O8    S    
C34   C36   A    
C15   H3    S    
C7    H21   S    
C19   H5    S    
C16   C18   A    
C22   C26   A    
C27   C28   D    
C34   H12   S    
C32   C42   A    
Cu1   O5    S    
C31   H9    S    
C32   H10   S    
