data_mof_unit_9221.cif
_audit_creation_date              2012-12-11T15:53:49-0500
_audit_creation_method            fapswitch 2.2
_symmetry_space_group_name_H-M    P1
_symmetry_Int_Tables_number       1
_space_group_crystal_system       triclinic
_cell_length_a                    10.634525
_cell_length_b                    10.778027
_cell_length_c                    17.062366
_cell_angle_alpha                 80.506218
_cell_angle_beta                  99.355713
_cell_angle_gamma                 118.734478
_cell_volume                      1683.50205799

loop_
_atom_site_label
_atom_site_type_symbol
_atom_type_description
_atom_site_fract_x
_atom_site_fract_y
_atom_site_fract_z
_atom_type_partial_charge
Br1   Br    Br    0.296620 0.437076 0.879061 -0.464820
Br2   Br    Br    0.982498 0.309053 0.656878 -0.429757
C1    C     C_R   0.384156 0.283115 0.632089 0.541467
C2    C     C_1   0.332877 0.183872 0.781129 -0.015488
C3    C     C_1   0.332896 0.669344 0.278670 -0.002407
C4    C     C_R   0.369106 0.654202 0.586060 0.533918
C5    C     C_1   0.320482 0.679062 0.207910 -0.008241
C6    C     C_R   0.870920 0.685705 0.167672 -0.037171
C7    C     C_R   0.918757 0.605510 0.224933 -0.077165
C8    C     C_R   0.905806 0.597414 0.303840 -0.093061
C9    C     C_R   0.837499 0.785457 0.275013 0.209017
C10   C     C_R   0.841908 0.785147 0.193679 -0.089712
C11   C     C_3   0.909611 0.461005 0.230357 0.183960
C12   C     C_R   0.388063 0.827598 0.673214 -0.133091
C13   C     C_3   0.891058 0.448660 0.318839 0.172033
C14   C     C_R   0.850767 0.676198 0.330064 -0.013100
C15   C     C_R   0.296043 0.114322 0.172078 0.022086
C16   C     C_R   0.776694 0.618534 0.626861 0.542611
C17   C     C_R   0.181817 0.113366 0.202469 -0.014153
C18   C     C_R   0.190790 0.132237 0.280850 0.001473
C19   C     C_R   0.413013 0.115762 0.306582 -0.167097
C20   C     C_R   0.405281 0.100755 0.225800 -0.163894
C21   C     C_3   0.100581 0.195135 0.171464 0.193036
C22   C     C_3   0.118347 0.226684 0.257023 0.474185
C23   C     C_R   0.372316 0.849725 0.748948 -0.160084
C24   C     C_R   0.313685 0.147500 0.332208 -0.029784
C25   C     C_R   0.892534 0.702373 0.855765 0.551676
C26   C     C_R   0.282143 0.750271 0.882794 0.573335
C27   C     C_R   0.286011 0.116974 0.857971 0.583034
C28   C     C_R   0.349235 0.223096 0.401370 0.552494
C29   C     C_R   0.893869 0.693869 0.086125 0.556793
C30   C     C_R   0.311583 0.703270 0.124621 0.580634
C31   C     C_R   0.279578 0.096452 0.088793 0.605908
C32   C     C_R   0.363823 0.655491 0.361490 0.550415
C33   C     C_R   0.775932 0.624695 0.401427 0.542143
C34   C     C_3   0.151526 0.455778 0.798707 0.357202
C35   C     C_R   0.282255 0.734547 0.799414 -0.010750
C36   C     C_R   0.189371 0.606228 0.766656 0.084776
C37   C     C_R   0.202892 0.584782 0.691342 -0.000222
C38   C     C_3   0.163017 0.431627 0.715021 0.079862
C39   C     C_R   0.313656 0.689878 0.647451 -0.011041
C40   C     C_1   0.823414 0.656506 0.705984 -0.002492
C41   C     C_1   0.851480 0.684903 0.773603 -0.006582
C42   C     C_1   0.364133 0.230721 0.714071 -0.035109
Cr1   Cr    Cr6+3 0.608440 0.389080 0.519680 1.095470
Cr2   Cr    Cr6+3 0.288640 0.400090 0.490760 1.062711
Cr3   Cr    Cr6+3 0.602940 0.710800 0.489510 1.062665
Cr4   Cr    Cr6+3 0.052530 0.947560 0.964210 1.057287
Cr5   Cr    Cr6+3 0.059970 0.626800 0.992920 1.094270
Cr6   Cr    Cr6+3 0.373320 0.938440 0.995370 1.059572
H1    H     H_    0.469009 0.914739 0.638786 0.167448
H2    H     H_    0.710515 0.388774 0.178201 0.330042
H3    H     H_    0.680393 0.366195 0.311347 0.335074
H4    H     H_    0.110201 0.354261 0.097598 0.354760
H5    H     H_    0.305826 0.398073 0.254783 0.328205
H6    H     H_    0.006676 0.194213 0.344133 0.355500
H7    H     H_    0.993772 0.283419 0.839709 0.359191
H8    H     H_    0.861870 0.911993 0.349745 0.348610
H9    H     H_    0.981258 0.442544 0.359501 0.152733
H10   H     H_    0.503154 0.116167 0.346662 0.196946
H11   H     H_    0.487533 0.085544 0.205169 0.191656
H12   H     H_    0.987981 0.126105 0.147305 0.144370
H13   H     H_    0.438568 0.953595 0.770187 0.150902
H14   H     H_    0.252752 0.408704 0.711681 0.118735
H15   H     H_    0.821796 0.861758 0.151254 0.159612
H16   H     H_    0.011994 0.465716 0.219563 0.184691
O1    O     O_R   0.754020 0.497590 0.609930 -0.469015
O2    O     O_R   0.406180 0.826930 0.920660 -0.488637
O3    O     O_R   0.358620 0.062870 0.901950 -0.517564
O4    O     O_R   0.481420 0.271390 0.600630 -0.486523
O5    O     O_R   0.163910 0.085460 0.050210 -0.474651
O6    O     O_R   0.935200 0.815170 0.045770 -0.516999
O7    O     O_R   0.916120 0.596690 0.069430 -0.480693
O8    O     O_R   0.192310 0.631200 0.086170 -0.499370
O9    O     O_R   0.406770 0.819480 0.096420 -0.499962
O10   O     O_R   0.359170 0.055960 0.064880 -0.507746
O11   O     O_3   0.161940 0.837600 0.984160 -0.321207
O12   O     O_R   0.295080 0.533620 0.397890 -0.481071
O13   O     O_R   0.263810 0.254550 0.589590 -0.484405
O14   O     O_R   0.300820 0.531200 0.560890 -0.500176
O15   O     O_R   0.491480 0.744020 0.564270 -0.512030
O16   O     O_R   0.726290 0.693800 0.583010 -0.504352
O17   O     O_R   0.747830 0.500190 0.434090 -0.468533
O18   O     O_R   0.475680 0.273800 0.437630 -0.487556
O19   O     O_R   0.257620 0.257160 0.413750 -0.498422
O20   O     O_3   0.788902 0.361475 0.186229 -0.631637
O21   O     O_3   0.755238 0.340289 0.339362 -0.634991
O22   O     O_3   0.177773 0.315427 0.119726 -0.669800
O23   O     O_R   0.485280 0.746620 0.388440 -0.481538
O24   O     O_3   0.207754 0.370826 0.268228 -0.674746
O25   O     O_3   0.985446 0.173167 0.287676 -0.638711
O26   O     O_3   0.011637 0.382586 0.822571 -0.618176
O27   O     O_3   0.807889 0.885156 0.296973 -0.628210
O28   O     O_R   0.720550 0.696220 0.420010 -0.489627
O29   O     O_3   0.500010 0.499990 0.499980 -0.291006
O30   O     O_R   0.163320 0.092900 0.874450 -0.473679
O31   O     O_R   0.934650 0.822080 0.882840 -0.495301
O32   O     O_R   0.915520 0.604140 0.893670 -0.479194
O33   O     O_R   0.191760 0.638110 0.923230 -0.431759

loop_
_geom_bond_atom_site_label_1
_geom_bond_atom_site_label_2
_ccdc_geom_bond_type
Cr2   O14   S    
C19   C24   A    
C22   O25   S    
C25   O32   A    
H7    O26   S    
C17   C18   A    
C1    O13   A    
C30   O9    A    
C37   C39   A    
Cr4   O31   S    
C26   O2    A    
Cr6   O3    S    
H5    O24   S    
C8    C13   S    
C16   C40   S    
C14   C33   S    
C30   O8    A    
C36   C37   A    
C29   O7    A    
C23   H13   S    
Cr3   O16   S    
C7    C11   S    
C23   C35   A    
Cr5   O32   S    
C21   H12   S    
Cr2   O29   S    
C18   C22   S    
C6    C7    A    
C4    C39   S    
C11   O20   S    
Cr1   O1    S    
C21   C22   S    
Br2   C38   S    
C7    C8    A    
C2    C27   S    
Cr2   O19   S    
C34   O26   S    
C4    O15   A    
C19   C20   A    
Cr3   O23   S    
Cr1   O17   S    
C15   C31   S    
Cr4   O6    S    
C16   O16   A    
C27   O3    A    
C11   H16   S    
H6    O25   S    
C1    C42   S    
C34   C38   S    
C1    O4    A    
C19   H10   S    
C37   C38   S    
Cr2   O12   S    
C33   O17   A    
C2    C42   T    
C16   O1    A    
Cr4   O11   S    
C17   C21   S    
C35   C36   A    
Cr6   O10   S    
Cr5   O33   S    
C3    C5    T    
C9    C14   A    
C31   O10   A    
C4    O14   A    
C12   H1    S    
C6    C10   A    
C3    C32   S    
H3    O21   S    
C28   O19   A    
C12   C39   A    
C26   O33   A    
C29   O6    A    
C24   C28   S    
C21   O22   S    
C11   C13   S    
Cr5   O7    S    
Cr1   O18   S    
C40   C41   T    
Cr4   O5    S    
Cr1   O29   S    
Cr6   O11   S    
C13   O21   S    
C33   O28   A    
C25   O31   A    
C5    C30   S    
Cr4   O30   S    
Cr1   O4    S    
C6    C29   S    
C13   H9    S    
H8    O27   S    
C22   O24   S    
C27   O30   A    
C9    C10   A    
C10   H15   S    
C15   C20   A    
C38   H14   S    
C34   C36   S    
C32   O23   A    
C8    C14   A    
Cr6   O9    S    
C32   O12   A    
C20   H11   S    
H4    O22   S    
C9    O27   S    
Cr2   O13   S    
C18   C24   A    
C26   C35   S    
H2    O20   S    
C15   C17   A    
Cr3   O28   S    
Cr5   O11   S    
Cr3   O15   S    
C12   C23   A    
C28   O18   A    
C31   O5    A    
C25   C41   S    
Cr3   O29   S    
Cr5   O8    S    
Cr6   O2    S    
Br1   C34   S    
