data_mof_unit_55780.cif
_audit_creation_date              2012-12-10T16:37:23-0500
_audit_creation_method            fapswitch 2.2
_symmetry_space_group_name_H-M    P1
_symmetry_Int_Tables_number       1
_space_group_crystal_system       triclinic
_cell_length_a                    16.835278
_cell_length_b                    16.945366
_cell_length_c                    16.826678
_cell_angle_alpha                 66.081948
_cell_angle_beta                  65.552799
_cell_angle_gamma                 65.149776
_cell_volume                      3806.40651634

loop_
_atom_site_label
_atom_site_type_symbol
_atom_type_description
_atom_site_fract_x
_atom_site_fract_y
_atom_site_fract_z
_atom_type_partial_charge
C1    C     C_R   0.395164 0.075306 0.650125 -0.333163
C2    C     C_R   0.470551 0.689255 0.924703 -0.309349
C3    C     C_3   0.874714 0.186834 0.694117 -0.362447
C4    C     C_3   0.808106 0.306666 0.118483 -0.349900
C5    C     C_3   0.313927 0.614769 0.756810 -0.380144
C6    C     C_3   0.123109 0.116135 0.591182 -0.244423
C7    C     C_3   0.689106 0.204213 0.380127 -0.386338
C8    C     C_3   0.580669 0.131467 0.124468 -0.262706
C9    C     C_3   0.603617 0.809227 0.804830 -0.313124
C10   C     C_3   0.182361 0.415397 0.198279 -0.287426
C11   C     C_3   0.904386 0.388671 0.881022 -0.237067
C12   C     C_R   0.038201 0.548006 0.323516 -0.309269
C13   C     C_R   0.897084 0.469816 0.702842 -0.336984
C14   C     C_R   0.959282 0.179258 0.439490 0.975494
C15   C     C_R   0.023229 0.823045 0.566920 0.944282
C16   C     C_R   0.179728 0.439138 0.959248 0.941236
C17   C     C_R   0.820304 0.560597 0.040970 0.952715
C18   C     C_R   0.439199 0.960710 0.179513 0.969035
C19   C     C_R   0.560499 0.040249 0.820629 0.954736
C20   C     C_R   0.569607 0.822689 0.022294 0.968678
C21   C     C_R   0.600957 0.935279 0.349879 -0.360110
C22   C     C_R   0.429687 0.176713 0.980357 0.981128
C23   C     C_R   0.014557 0.570209 0.825797 0.961812
C24   C     C_R   0.976087 0.431457 0.177806 0.946126
C25   C     C_R   0.820037 0.037145 0.563079 0.944484
C26   C     C_R   0.176782 0.979331 0.430360 0.985661
C27   C     C_R   0.438022 0.083282 0.701835 0.577173
C28   C     C_R   0.558969 0.920367 0.301787 0.566764
C29   C     C_R   0.969779 0.737650 0.472112 0.558039
C30   C     C_R   0.896952 0.305487 0.561201 0.561083
C31   C     C_R   0.690461 0.442564 0.094616 0.571873
C32   C     C_R   0.983855 0.681636 0.421090 -0.352413
C33   C     C_R   0.309722 0.555515 0.905356 0.584632
C34   C     C_R   0.262110 0.069723 0.485105 0.550641
C35   C     C_R   0.710390 0.054741 0.450040 0.599489
C36   C     C_R   0.477249 0.268452 0.073078 0.544123
C37   C     C_R   0.520614 0.731503 0.934308 0.548796
C38   C     C_R   0.044608 0.492124 0.277537 0.550249
C39   C     C_R   0.919213 0.506728 0.749477 0.539410
C40   C     C_R   0.539926 0.031845 0.539147 0.020786
C41   C     C_R   0.453850 0.003147 0.444365 0.033724
C42   C     C_R   0.963580 0.561726 0.559240 0.030135
C43   C     C_R   0.890807 0.362381 0.606686 -0.343382
C44   C     C_R   0.959908 0.458820 0.465430 0.026267
C45   C     C_R   0.543662 0.545651 0.017069 0.028300
C46   C     C_R   0.443442 0.457781 0.997737 0.031138
C47   C     C_R   0.591415 0.005128 0.458172 0.017768
C48   C     C_R   0.402000 0.045321 0.514680 0.022636
C49   C     C_R   0.929335 0.487591 0.608287 0.026056
C50   C     C_R   0.992342 0.534827 0.416856 0.009385
C51   C     C_R   0.477055 0.596939 0.969278 0.017978
C52   C     C_R   0.506035 0.408529 0.049178 0.029395
C53   C     C_R   0.549656 0.980686 0.417227 0.025375
C54   C     C_R   0.632509 0.401780 0.094389 -0.351992
C55   C     C_R   0.444915 0.049727 0.569089 0.030582
C56   C     C_R   0.424955 0.552921 0.961591 0.018453
C57   C     C_R   0.559641 0.451398 0.055367 0.030461
C58   C     C_R   0.925093 0.436758 0.561163 0.027429
C59   C     C_R   0.984367 0.591435 0.464146 0.039293
C60   C     C_R   0.534980 0.064798 0.671544 -0.050962
C61   C     C_R   0.461514 0.948610 0.325396 -0.022395
C62   C     C_R   0.987804 0.694561 0.558411 -0.040768
C63   C     C_R   0.930513 0.328616 0.464872 -0.025754
C64   C     C_R   0.669686 0.538155 0.063002 -0.013714
C65   C     C_R   0.355181 0.600389 0.918471 -0.322579
C66   C     C_R   0.327878 0.460745 0.941342 -0.054107
C67   C     C_R   0.312443 0.012031 0.425641 -0.066858
C68   C     C_R   0.673809 0.050048 0.543935 -0.059099
C69   C     C_R   0.422844 0.315381 0.011670 -0.067727
C70   C     C_R   0.573740 0.684070 0.996100 -0.077769
C71   C     C_R   0.991900 0.430812 0.321496 -0.084886
C72   C     C_R   0.966385 0.573680 0.698812 -0.061693
C73   C     C_R   0.585766 0.068225 0.720386 -0.124822
C74   C     C_R   0.412864 0.938237 0.279367 -0.099111
C75   C     C_R   0.018077 0.731191 0.601093 -0.129480
C76   C     C_R   0.309484 0.088247 0.523924 -0.338085
C77   C     C_R   0.933540 0.278650 0.412358 -0.108384
C78   C     C_R   0.719281 0.586914 0.067632 -0.100949
C79   C     C_R   0.280626 0.412187 0.933780 -0.115366
C80   C     C_R   0.272335 0.975453 0.392653 -0.132883
C81   C     C_R   0.719629 0.060865 0.592094 -0.134779
C82   C     C_R   0.391844 0.272766 0.975184 -0.127116
C83   C     C_R   0.607458 0.726461 0.029021 -0.137597
C84   C     C_R   0.967536 0.393918 0.274934 -0.135624
C85   C     C_R   0.006991 0.607813 0.734023 -0.122953
C86   C     C_R   0.670358 0.082678 0.674027 0.048998
C87   C     C_R   0.677848 0.018015 0.413386 -0.307471
C88   C     C_R   0.326695 0.929735 0.325838 0.054055
C89   C     C_R   0.045432 0.677131 0.677742 0.047653
C90   C     C_R   0.928971 0.322983 0.324638 0.040349
C91   C     C_R   0.673663 0.673566 0.074767 0.031287
C92   C     C_R   0.326632 0.325418 0.927796 0.031353
C93   C     C_R   0.583243 0.047105 0.585992 -0.091915
C94   C     C_R   0.409466 0.987121 0.399040 -0.069649
C95   C     C_R   0.974590 0.608884 0.605046 -0.062638
C96   C     C_R   0.959747 0.406708 0.417521 -0.061902
C97   C     C_R   0.594645 0.589024 0.026709 -0.071868
C98   C     C_R   0.511044 0.317687 0.095385 -0.343462
C99   C     C_R   0.398384 0.411443 0.983357 -0.097553
C100  C     C_3   0.702714 0.130678 0.707383 -0.791827
C101  C     C_3   0.296044 0.870927 0.303095 -0.821472
C102  C     C_3   0.121079 0.688961 0.694496 -0.807074
C103  C     C_3   0.877649 0.296429 0.289325 -0.776989
C104  C     C_3   0.697944 0.706615 0.130229 -0.777666
C105  C     C_3   0.305283 0.292964 0.869282 -0.763695
C106  C     C_3   0.310398 0.092654 0.829479 -0.273459
C107  C     C_3   0.698668 0.877660 0.192049 -0.333373
C108  C     C_3   0.930178 0.872691 0.360176 -0.248928
H1    H     H_    0.321863 0.089762 0.674138 0.142633
H2    H     H_    0.430577 0.729952 0.877729 0.161642
H3    H     H_    0.075345 0.597357 0.286928 0.168023
H4    H     H_    0.854248 0.426723 0.743328 0.152729
H5    H     H_    0.733419 0.179985 0.648206 0.279504
H6    H     H_    0.644674 0.171222 0.751892 0.222908
H7    H     H_    0.751980 0.081101 0.745745 0.253488
H8    H     H_    0.355305 0.825928 0.263884 0.223560
H9    H     H_    0.263317 0.825724 0.366487 0.226704
H10   H     H_    0.247979 0.913495 0.261574 0.260648
H11   H     H_    0.166824 0.719847 0.629814 0.206304
H12   H     H_    0.674323 0.907810 0.337521 0.160589
H13   H     H_    0.092120 0.732029 0.741052 0.277745
H14   H     H_    0.165099 0.621560 0.723618 0.241805
H15   H     H_    0.829165 0.357926 0.257918 0.269267
H16   H     H_    0.926020 0.255942 0.241017 0.258609
H17   H     H_    0.835864 0.254773 0.346215 0.241799
H18   H     H_    0.634577 0.742716 0.174469 0.270900
H19   H     H_    0.736294 0.649206 0.176155 0.220471
H20   H     H_    0.741714 0.750860 0.084156 0.251098
H21   H     H_    0.266963 0.350638 0.823484 0.216167
H22   H     H_    0.369898 0.258691 0.824637 0.262906
H23   H     H_    0.979790 0.710975 0.352157 0.146295
H24   H     H_    0.262592 0.247053 0.912494 0.254286
H25   H     H_    0.326518 0.018960 0.839546 0.154238
H26   H     H_    0.249250 0.132685 0.804686 0.130394
H27   H     H_    0.292606 0.101057 0.897342 0.187164
H28   H     H_    0.749174 0.821608 0.225899 0.174864
H29   H     H_    0.704210 0.944029 0.183141 0.107189
H30   H     H_    0.717170 0.873540 0.122376 0.189170
H31   H     H_    0.891181 0.858408 0.330766 0.128132
H32   H     H_    0.004540 0.855786 0.322370 0.121760
H33   H     H_    0.904557 0.946703 0.351427 0.202677
H34   H     H_    0.857655 0.346800 0.678501 0.152438
H35   H     H_    0.813459 0.210463 0.748627 0.171555
H36   H     H_    0.936173 0.191664 0.699429 0.117317
H37   H     H_    0.886929 0.113926 0.706329 0.195263
H38   H     H_    0.807107 0.304990 0.053623 0.121829
H39   H     H_    0.780654 0.252968 0.174314 0.174733
H40   H     H_    0.880814 0.289658 0.113478 0.189521
H41   H     H_    0.327568 0.556075 0.733971 0.178679
H42   H     H_    0.380372 0.622807 0.746196 0.162073
H43   H     H_    0.279346 0.677471 0.712293 0.201013
H44   H     H_    0.108385 0.183977 0.597571 0.143419
H45   H     H_    0.647567 0.329664 0.123477 0.148378
H46   H     H_    0.160023 0.062183 0.640477 0.101022
H47   H     H_    0.058068 0.101796 0.614385 0.211619
H48   H     H_    0.667770 0.228166 0.440536 0.183396
H49   H     H_    0.627919 0.205423 0.368553 0.169353
H50   H     H_    0.718290 0.253672 0.320018 0.211259
H51   H     H_    0.582386 0.122256 0.193022 0.149631
H52   H     H_    0.632100 0.165213 0.070591 0.107466
H53   H     H_    0.604479 0.064305 0.114219 0.215238
H54   H     H_    0.611492 0.763342 0.768040 0.166539
H55   H     H_    0.664111 0.785633 0.829286 0.157436
H56   H     H_    0.335560 0.673045 0.891166 0.162523
H57   H     H_    0.601697 0.876786 0.755196 0.190228
H58   H     H_    0.162718 0.355261 0.211467 0.154311
H59   H     H_    0.212334 0.404586 0.251151 0.161115
H60   H     H_    0.236532 0.422254 0.132338 0.194293
H61   H     H_    0.966825 0.349231 0.838102 0.105635
H62   H     H_    0.844110 0.368697 0.894440 0.125957
H63   H     H_    0.918544 0.368026 0.946002 0.202679
H64   H     H_    0.272757 0.139016 0.560371 0.157576
H65   H     H_    0.711249 0.017734 0.342930 0.143520
H66   H     H_    0.541250 0.282852 0.150439 0.156168
O1    O     O_R   0.982940 0.138950 0.510160 -0.582199
O2    O     O_R   0.982940 0.510160 0.138950 -0.586196
O3    O     O_R   0.861050 0.017060 0.489840 -0.578025
O4    O     O_R   0.138950 0.982940 0.510160 -0.603209
O5    O     O_R   0.867700 0.025880 0.612340 -0.637194
O6    O     O_R   0.132300 0.974120 0.387660 -0.640496
O7    O     O_R   0.025880 0.612340 0.867700 -0.618142
O8    O     O_R   0.974120 0.387660 0.132300 -0.638930
O9    O     O_R   0.612340 0.867700 0.025880 -0.638046
O10   O     O_R   0.387660 0.132300 0.974120 -0.639474
O11   O     O_R   0.387660 0.974120 0.132300 -0.638431
O12   O     O_R   0.017060 0.861050 0.489840 -0.597591
O13   O     O_R   0.612340 0.025880 0.867700 -0.641490
O14   O     O_R   0.132300 0.387660 0.974120 -0.640177
O15   O     O_R   0.867700 0.612340 0.025880 -0.644468
O16   O     O_R   0.974120 0.132300 0.387660 -0.630271
O17   O     O_R   0.025880 0.867700 0.612340 -0.630707
O18   O     O_3   0.385142 0.126355 0.770314 -0.611226
O19   O     O_3   0.609911 0.868291 0.240537 -0.607385
O20   O     O_3   0.913655 0.827344 0.454160 -0.577835
O21   O     O_3   0.858127 0.235243 0.608354 -0.614978
O22   O     O_3   0.759092 0.391773 0.137176 -0.617761
O23   O     O_R   0.138950 0.510160 0.982940 -0.562697
O24   O     O_3   0.255773 0.604419 0.847434 -0.598532
O25   O     O_3   0.168885 0.115118 0.498699 -0.588687
O26   O     O_3   0.755699 0.117608 0.389596 -0.615561
O27   O     O_3   0.489683 0.176829 0.118425 -0.593430
O28   O     O_3   0.521518 0.817289 0.877054 -0.596125
O29   O     O_3   0.107486 0.495231 0.192168 -0.588954
O30   O     O_3   0.885187 0.484190 0.843623 -0.581878
O31   O     O_R   0.861050 0.489840 0.017060 -0.567539
O32   O     O_R   0.510160 0.982940 0.138950 -0.587601
O33   O     O_R   0.489840 0.017060 0.861050 -0.559438
O34   O     O_R   0.489840 0.861050 0.017060 -0.594365
O35   O     O_R   0.510160 0.138950 0.982940 -0.607305
O36   O     O_R   0.017060 0.489840 0.861050 -0.609453
Zn1   Zn    Zn3+2 0.004880 0.004880 0.583590 0.925790
Zn2   Zn    Zn3+2 0.995120 0.995120 0.416410 0.962047
Zn3   Zn    Zn3+2 0.004880 0.583590 0.004880 1.005907
Zn4   Zn    Zn3+2 0.995120 0.416410 0.995120 0.921562
Zn5   Zn    Zn3+2 0.583590 0.004880 0.004880 0.922469
Zn6   Zn    Zn3+2 0.416410 0.995120 0.995120 0.959292

loop_
_geom_bond_atom_site_label_1
_geom_bond_atom_site_label_2
_ccdc_geom_bond_type
O32   Zn5   S    
C48   C55   A    
C15   C75   S    
C46   C99   A    
C11   H63   S    
O12   Zn2   S    
C89   C102  S    
C40   C47   A    
C48   C76   A    
C106  O18   S    
C40   C93   A    
C103  H15   S    
C54   H45   S    
C88   C101  S    
C5    O24   S    
C33   C65   A    
C7    H50   S    
C66   C79   A    
C45   C57   A    
O35   Zn5   S    
C34   C67   A    
C101  H10   S    
C22   C82   S    
O3    Zn2   S    
C8    O27   S    
C23   O7    A    
C21   H12   S    
C27   C60   A    
C6    O25   S    
C98   H66   S    
C25   O3    A    
O10   Zn6   S    
C45   C51   A    
C29   O20   S    
C4    H40   S    
C22   O35   A    
C46   C52   A    
C60   C73   A    
C23   C85   S    
C82   C92   A    
C76   H64   S    
C51   C56   A    
C14   C77   S    
C7    O26   S    
C9    H55   S    
O16   Zn2   S    
O33   Zn6   S    
C22   O10   A    
C69   C82   A    
C43   C58   A    
C19   O13   A    
C29   C62   A    
C72   C95   A    
C35   C87   A    
C34   O25   S    
C106  H25   S    
C2    H2    S    
C7    H48   S    
C30   O21   S    
C44   C58   A    
C10   H59   S    
C33   C66   A    
C67   C94   A    
C37   O28   S    
O1    Zn1   S    
C102  H13   S    
C86   C100  S    
C10   O29   S    
C91   C104  S    
C36   C98   A    
C81   C86   A    
C25   C81   S    
C70   C97   A    
C47   C53   A    
C1    H1    S    
C60   C93   A    
O34   Zn6   S    
C62   C95   A    
C19   O33   A    
C18   O32   A    
C100  H7    S    
C84   C90   A    
C103  H17   S    
C30   C63   A    
C33   O24   S    
C108  H33   S    
C35   O26   S    
C72   C85   A    
C105  H24   S    
C26   O4    A    
O9    Zn5   S    
C87   H65   S    
C15   O12   A    
O13   Zn5   S    
C77   C90   A    
C9    H57   S    
C100  H5    S    
C24   O8    A    
C42   C95   A    
C19   C73   S    
C100  H6    S    
O6    Zn2   S    
C2    C51   A    
C108  H32   S    
C85   C89   A    
C61   C94   A    
O5    Zn1   S    
C105  H21   S    
C71   C96   A    
C17   O15   A    
O36   Zn4   S    
C4    H39   S    
C63   C96   A    
C3    O21   S    
C49   C58   A    
C47   C87   A    
C66   C99   A    
C107  H29   S    
C102  H14   S    
C16   O23   A    
C14   O1    A    
C44   C96   A    
C10   H60   S    
C41   C94   A    
C104  H20   S    
C10   H58   S    
C40   C55   A    
C4    H38   S    
C28   O19   S    
C3    H35   S    
C70   C83   A    
C3    H36   S    
C41   C53   A    
C79   C92   A    
C6    H46   S    
C39   C72   A    
O15   Zn3   S    
C20   O9    A    
C13   C49   A    
C69   C99   A    
C103  H16   S    
C64   C97   A    
C21   C28   A    
O31   Zn4   S    
C11   H61   S    
C38   O29   S    
C16   O14   A    
C78   C91   A    
C62   C75   A    
C20   C83   S    
C34   C76   A    
C36   O27   S    
C50   C59   A    
C108  O20   S    
C24   O2    A    
C12   C38   A    
C107  O19   S    
O23   Zn3   S    
C36   C69   A    
O8    Zn4   S    
C71   C84   A    
C63   C77   A    
C44   C50   A    
C4    O22   S    
C15   O17   A    
C38   C71   A    
C106  H27   S    
O14   Zn4   S    
C64   C78   A    
C31   C64   A    
C67   C80   A    
C6    H47   S    
C42   C59   A    
C108  H31   S    
C12   C50   A    
C25   O5    A    
C3    H37   S    
C105  H22   S    
C7    H49   S    
C23   O36   A    
C26   O6    A    
C61   C74   A    
C13   H4    S    
C83   C91   A    
C18   O11   A    
C68   C93   A    
C5    H43   S    
O11   Zn6   S    
C68   C81   A    
C8    H53   S    
C16   C79   S    
C101  H9    S    
C107  H30   S    
C17   O31   A    
C1    C55   A    
C6    H44   S    
C29   C32   A    
C80   C88   A    
C45   C97   A    
C28   C61   A    
C21   C53   A    
C9    O28   S    
C2    C37   A    
C31   O22   S    
C104  H19   S    
C35   C68   A    
C5    H41   S    
C65   H56   S    
C52   C98   A    
C17   C78   S    
C41   C48   A    
O4    Zn1   S    
C11   O30   S    
C32   H23   S    
C31   C54   A    
C24   C84   S    
C9    H54   S    
C30   C43   A    
C26   C80   S    
C90   C103  S    
C13   C39   A    
C52   C57   A    
C5    H42   S    
C42   C49   A    
C39   O30   S    
C14   O16   A    
C92   C105  S    
C106  H26   S    
C104  H18   S    
C11   H62   S    
C18   C74   S    
C27   O18   S    
C75   C89   A    
C46   C56   A    
C1    C27   A    
C101  H8    S    
C20   O34   A    
O2    Zn3   S    
C43   H34   S    
O7    Zn3   S    
C73   C86   A    
C32   C59   A    
C74   C88   A    
C37   C70   A    
C8    H51   S    
C54   C57   A    
C12   H3    S    
C102  H11   S    
C56   C65   A    
O17   Zn1   S    
C107  H28   S    
C8    H52   S    
