data_mof_unit_38417.cif
_audit_creation_date              2012-12-10T18:07:57-0500
_audit_creation_method            fapswitch 2.2
_symmetry_space_group_name_H-M    P1
_symmetry_Int_Tables_number       1
_space_group_crystal_system       triclinic
_cell_length_a                    28.822629
_cell_length_b                    18.280096
_cell_length_c                    22.090173
_cell_angle_alpha                 90.11124
_cell_angle_beta                  140.667004
_cell_angle_gamma                 89.864666
_cell_volume                      7377.00870406

loop_
_atom_site_label
_atom_site_type_symbol
_atom_type_description
_atom_site_fract_x
_atom_site_fract_y
_atom_site_fract_z
_atom_type_partial_charge
C1    C     C_R   0.860008 0.000037 0.861363 0.939903
C2    C     C_R   0.999959 0.140005 0.499908 0.975207
C3    C     C_R   0.500001 0.359979 0.500488 0.940268
C4    C     C_R   0.499959 0.640005 0.499910 0.975225
C5    C     C_R   0.000068 0.999398 0.620301 0.969890
C6    C     C_R   0.999987 0.998917 0.379717 0.982921
C7    C     C_R   0.500068 0.499398 0.620301 0.969886
C8    C     C_R   0.499987 0.498916 0.379717 0.982937
C9    C     C_R   0.499987 0.139137 0.500053 0.800824
C10   C     C_R   0.499953 0.860881 0.499906 0.797530
C11   C     C_R   0.999987 0.639137 0.500053 0.800822
C12   C     C_R   0.139991 0.999966 0.138592 0.938375
C13   C     C_R   0.999953 0.360881 0.499906 0.797529
C14   C     C_R   0.639147 0.000007 0.639439 0.795871
C15   C     C_R   0.360853 0.999960 0.360560 0.797825
C16   C     C_R   0.139147 0.500007 0.639439 0.795870
C17   C     C_R   0.860853 0.499960 0.360560 0.797824
C18   C     C_1   0.999964 0.782275 0.500469 -0.045906
C19   C     C_1   0.999854 0.217795 0.499748 -0.040704
C20   C     C_1   0.499964 0.282275 0.500469 -0.045905
C21   C     C_1   0.499854 0.717795 0.499749 -0.040697
C22   C     C_1   0.499966 0.216815 0.500252 -0.108998
C23   C     C_R   0.360008 0.500037 0.861363 0.939900
C24   C     C_1   0.499866 0.783240 0.499736 -0.122037
C25   C     C_1   0.999966 0.716815 0.500252 -0.108995
C26   C     C_1   0.999866 0.283240 0.499736 -0.122016
C27   C     C_R   0.999179 0.999441 0.878943 0.923658
C28   C     C_R   0.001141 0.999547 0.121342 0.927591
C29   C     C_R   0.499179 0.499441 0.878943 0.923650
C30   C     C_R   0.501140 0.499547 0.121341 0.927580
C31   C     C_3   0.045688 0.924713 0.831967 0.133139
C32   C     C_3   0.090329 0.000114 0.301373 0.106106
C33   C     C_3   0.956693 0.923543 0.170085 0.116730
C34   C     C_R   0.639991 0.499966 0.138592 0.938368
C35   C     C_3   0.909935 0.997961 0.698682 0.117694
C36   C     C_3   0.545686 0.424712 0.831965 0.133142
C37   C     C_3   0.590328 0.500110 0.301371 0.106105
C38   C     C_3   0.456688 0.423545 0.170080 0.116746
C39   C     C_3   0.409936 0.497963 0.698683 0.117693
C40   C     C_3   0.040322 0.920403 0.751984 0.362375
C41   C     C_3   0.091880 0.008570 0.377714 0.420641
C42   C     C_3   0.962435 0.918601 0.250425 0.346543
C43   C     C_3   0.907949 0.006398 0.621881 0.409081
C44   C     C_3   0.540320 0.420402 0.751982 0.362370
C45   C     C_1   0.716844 0.000052 0.717799 -0.085267
C46   C     C_3   0.591881 0.508566 0.377714 0.420648
C47   C     C_3   0.462431 0.418603 0.250421 0.346534
C48   C     C_3   0.407949 0.506400 0.621881 0.409084
C49   C     C_3   0.037496 0.077388 0.824215 -0.380204
C50   C     C_3   0.960950 0.076410 0.174445 -0.380364
C51   C     C_3   0.537500 0.577386 0.824219 -0.380213
C52   C     C_3   0.460950 0.576411 0.174445 -0.380378
C53   C     C_3   0.997485 0.998390 0.808099 -0.420465
C54   C     C_3   0.002830 0.998513 0.192114 -0.421684
C55   C     C_3   0.497485 0.498390 0.808099 -0.420464
C56   C     C_1   0.283156 0.999899 0.282194 -0.085917
C57   C     C_3   0.502828 0.498512 0.192112 -0.421693
C58   C     C_3   0.999818 0.999360 0.688597 -0.507096
C59   C     C_3   0.000348 0.998704 0.311482 -0.505004
C60   C     C_3   0.499818 0.499361 0.688597 -0.507093
C61   C     C_3   0.500349 0.498704 0.311482 -0.505003
C62   C     C_3   0.050893 0.072351 0.763435 0.511345
C63   C     C_3   0.946913 0.070122 0.234418 0.519790
C64   C     C_3   0.550895 0.572350 0.763437 0.511342
C65   C     C_3   0.446918 0.570126 0.234422 0.519786
C66   C     C_1   0.782331 0.000081 0.783636 -0.031493
C67   C     C_1   0.216844 0.500052 0.717799 -0.085265
C68   C     C_1   0.217670 0.999892 0.216342 -0.027759
C69   C     C_1   0.282331 0.500081 0.783636 -0.031489
C70   C     C_1   0.717670 0.499892 0.216341 -0.027761
C71   C     C_2   0.125650 0.933882 0.932973 0.436692
C72   C     C_2   0.127631 0.065351 0.305597 0.413929
C73   C     C_2   0.876626 0.930284 0.068683 0.455041
C74   C     C_2   0.871423 0.062244 0.693894 0.410326
C75   C     C_2   0.625649 0.433878 0.932971 0.436684
C76   C     C_2   0.627631 0.565346 0.305595 0.413938
C77   C     C_2   0.376621 0.430290 0.068679 0.454999
C78   C     C_1   0.783156 0.499899 0.282194 -0.085916
C79   C     C_2   0.371425 0.562247 0.693896 0.410328
C80   C     C_2   0.108043 0.092760 0.933391 0.565410
C81   C     C_2   0.999599 0.147969 0.193459 0.523262
C82   C     C_2   0.890584 0.091297 0.065292 0.563316
C83   C     C_2   0.997853 0.148372 0.804808 0.527225
C84   C     C_2   0.608048 0.592753 0.933397 0.565414
C85   C     C_2   0.499597 0.647971 0.193455 0.523302
C86   C     C_2   0.390583 0.591294 0.065290 0.563322
C87   C     C_2   0.497861 0.648373 0.804817 0.527248
C88   C     C_R   0.000001 0.859979 0.500488 0.940263
Cu1   Cu    Cu3+1 1.000000 0.927450 0.000000 1.238509
Cu2   Cu    Cu3+1 0.500040 0.000000 0.562520 1.114580
Cu3   Cu    Cu3+1 0.999960 0.500000 0.437480 1.125970
Cu4   Cu    Cu3+1 0.000040 0.500000 0.562520 1.114582
Cu5   Cu    Cu3+1 0.000000 0.072550 0.000000 1.059171
Cu6   Cu    Cu3+1 0.500000 0.427450 0.000000 1.238509
Cu7   Cu    Cu3+1 0.500000 0.572550 0.000000 1.059178
Cu8   Cu    Cu3+1 0.927450 0.000000 0.427440 1.262128
Cu9   Cu    Cu3+1 0.072550 0.000000 0.572560 1.251930
Cu10  Cu    Cu3+1 0.427450 0.500000 0.427440 1.262134
Cu11  Cu    Cu3+1 0.572550 0.500000 0.572560 1.251930
Cu12  Cu    Cu3+1 0.499960 0.000000 0.437480 1.125965
H1    H     H_    0.171096 0.916596 0.952101 0.214210
H2    H     H_    0.207556 0.823710 0.392886 0.384242
H3    H     H_    0.932518 0.774354 0.027060 0.370312
H4    H     H_    0.795002 0.820357 0.605542 0.382235
H5    H     H_    0.453867 0.256703 0.812449 0.377775
H6    H     H_    0.707551 0.323703 0.392879 0.384241
H7    H     H_    0.432509 0.274358 0.027050 0.370310
H8    H     H_    0.294997 0.320363 0.605537 0.382235
H9    H     H_    0.004247 0.729732 0.649607 0.371092
H10   H     H_    0.237738 0.949782 0.640850 0.366041
H11   H     H_    0.084638 0.812996 0.480028 0.373344
H12   H     H_    0.141592 0.116803 0.339014 0.154029
H13   H     H_    0.762906 0.946725 0.359101 0.368695
H14   H     H_    0.504242 0.229731 0.649603 0.371092
H15   H     H_    0.737734 0.449769 0.640847 0.366041
H16   H     H_    0.584629 0.312990 0.480017 0.373343
H17   H     H_    0.262893 0.446751 0.359095 0.368699
H18   H     H_    0.243866 0.904893 0.896979 0.394624
H19   H     H_    0.129826 0.215683 0.427031 0.402729
H20   H     H_    0.758191 0.895681 0.103221 0.397670
H21   H     H_    0.862200 0.212073 0.566882 0.403097
H22   H     H_    0.743861 0.404890 0.896968 0.394622
H23   H     H_    0.831697 0.910155 0.049286 0.207463
H24   H     H_    0.629835 0.715677 0.427040 0.402730
H25   H     H_    0.258190 0.395697 0.103231 0.397665
H26   H     H_    0.362203 0.712075 0.566887 0.403097
H27   H     H_    0.119734 0.064982 0.986691 0.087901
H28   H     H_    0.037122 0.150506 0.194396 0.087449
H29   H     H_    0.879548 0.063828 0.012269 0.082121
H30   H     H_    0.959084 0.150087 0.801733 0.086517
H31   H     H_    0.619735 0.564976 0.986694 0.087889
H32   H     H_    0.537127 0.650507 0.194406 0.087433
H33   H     H_    0.379549 0.563825 0.012269 0.082112
H34   H     H_    0.855818 0.113424 0.659332 0.154782
H35   H     H_    0.459086 0.650090 0.801731 0.086510
H36   H     H_    0.257937 0.051310 0.001391 0.410431
H37   H     H_    0.888355 0.210129 0.291904 0.366248
H38   H     H_    0.760051 0.152111 0.064811 0.399408
H39   H     H_    0.104132 0.218895 0.705625 0.369163
H40   H     H_    0.757939 0.551303 0.001390 0.410431
H41   H     H_    0.388376 0.710161 0.291911 0.366249
H42   H     H_    0.260065 0.652133 0.064825 0.399412
H43   H     H_    0.604127 0.718903 0.705625 0.369161
H44   H     H_    0.671095 0.416594 0.952098 0.214211
H45   H     H_    0.641591 0.616799 0.339010 0.154025
H46   H     H_    0.331690 0.410173 0.049285 0.207463
H47   H     H_    0.355820 0.613427 0.659335 0.154786
H48   H     H_    0.953873 0.756703 0.812458 0.377775
O1    O     O_R   0.894190 0.938730 0.894180 -0.524772
O2    O     O_R   0.000020 0.061270 0.091170 -0.651421
O3    O     O_2   0.569861 0.308625 0.342594 -0.127297
O4    O     O_3   0.561091 0.359216 0.443123 -0.541773
O5    O     O_2   0.334609 0.366012 0.510920 -0.152291
O6    O     O_2   0.260802 0.462519 0.470790 -0.177727
O7    O     O_3   0.311070 0.469355 0.416287 -0.440009
O8    O     O_2   0.152492 0.819122 0.857715 -0.195780
O9    O     O_2   0.116871 0.872285 0.726562 -0.243719
O10   O     O_3   0.209605 0.934385 0.887278 -0.471421
O11   O     O_2   0.149206 0.104493 0.524819 -0.169824
O12   O     O_2   0.213428 0.102523 0.496172 -0.247199
O13   O     O_R   0.000020 0.938730 0.091170 -0.461169
O14   O     O_3   0.097317 0.175433 0.380836 -0.534710
O15   O     O_2   0.854562 0.813099 0.149414 -0.200930
O16   O     O_2   0.886174 0.870678 0.275918 -0.251184
O17   O     O_3   0.790877 0.925666 0.110471 -0.450665
O18   O     O_2   0.845552 0.101422 0.471045 -0.163649
O19   O     O_2   0.783071 0.095541 0.502088 -0.240177
O20   O     O_3   0.896328 0.172842 0.614068 -0.536825
O21   O     O_2   0.652490 0.319120 0.857712 -0.195781
O22   O     O_2   0.616865 0.372280 0.726555 -0.243725
O23   O     O_3   0.709601 0.434383 0.887268 -0.471417
O24   O     O_R   0.999980 0.061270 0.908830 -0.651213
O25   O     O_2   0.649221 0.604486 0.524830 -0.169812
O26   O     O_2   0.713434 0.602512 0.496170 -0.247198
O27   O     O_3   0.597326 0.675428 0.380844 -0.534725
O28   O     O_2   0.354550 0.313111 0.149400 -0.200939
O29   O     O_2   0.386176 0.370677 0.275920 -0.251181
O30   O     O_3   0.290878 0.425684 0.110485 -0.450659
O31   O     O_2   0.345554 0.601427 0.471048 -0.163655
O32   O     O_2   0.283072 0.595545 0.502089 -0.240178
O33   O     O_3   0.396330 0.672844 0.614071 -0.536834
O34   O     O_2   0.147157 0.145974 0.964242 -0.410234
O35   O     O_R   0.499980 0.438730 0.908830 -0.463600
O36   O     O_2   0.975995 0.208598 0.181368 -0.394939
O37   O     O_2   0.850444 0.143650 0.034322 -0.401776
O38   O     O_2   0.021865 0.209240 0.818971 -0.397684
O39   O     O_2   0.647167 0.645964 0.964253 -0.410233
O40   O     O_2   0.475982 0.708599 0.181341 -0.394950
O41   O     O_2   0.350440 0.643645 0.034316 -0.401769
O42   O     O_2   0.521882 0.709238 0.818994 -0.397692
O43   O     O_2   0.174354 0.052367 0.812081 -0.169923
O44   O     O_2   0.177772 0.153680 0.883624 -0.148890
O45   O     O_3   0.207857 0.033222 0.959298 -0.546549
O46   O     O_R   0.500020 0.561270 0.091170 -0.651417
O47   O     O_2   0.025913 0.152838 0.403780 -0.299536
O48   O     O_2   0.954779 0.226429 0.263992 -0.155314
O49   O     O_3   0.893161 0.157781 0.285702 -0.471707
O50   O     O_2   0.799953 0.028885 0.052164 -0.291414
O51   O     O_2   0.823346 0.043852 0.184427 -0.178869
O52   O     O_3   0.812506 0.155191 0.106641 -0.384139
O53   O     O_2   0.968131 0.149573 0.589517 -0.295660
O54   O     O_2   0.030295 0.228164 0.722206 -0.167285
O55   O     O_3   0.100177 0.165658 0.709296 -0.470404
O56   O     O_2   0.674354 0.552368 0.812079 -0.169924
O57   O     O_R   0.500020 0.438730 0.091170 -0.461169
O58   O     O_2   0.677775 0.653678 0.883629 -0.148883
O59   O     O_3   0.707859 0.533216 0.959296 -0.546546
O60   O     O_2   0.525924 0.652817 0.403799 -0.299552
O61   O     O_2   0.454832 0.726433 0.264043 -0.155345
O62   O     O_3   0.393171 0.657810 0.285704 -0.471699
O63   O     O_2   0.299953 0.528897 0.052172 -0.291410
O64   O     O_2   0.323352 0.543874 0.184439 -0.178866
O65   O     O_3   0.312520 0.655207 0.106654 -0.384140
O66   O     O_2   0.468135 0.649571 0.589520 -0.295672
O67   O     O_2   0.530288 0.728163 0.722204 -0.167293
O68   O     O_R   0.499980 0.561270 0.908830 -0.651206
O69   O     O_3   0.600179 0.665666 0.709304 -0.470394
O70   O     O_R   0.938700 0.894210 0.438700 -0.537258
O71   O     O_R   0.061300 0.105790 0.561300 -0.539696
O72   O     O_R   0.061300 0.894210 0.561300 -0.557389
O73   O     O_R   0.105810 0.061270 0.105820 -0.582950
O74   O     O_R   0.938700 0.105790 0.438700 -0.542677
O75   O     O_R   0.438700 0.394210 0.438700 -0.537254
O76   O     O_R   0.561300 0.605790 0.561300 -0.539699
O77   O     O_R   0.561300 0.394210 0.561300 -0.557388
O78   O     O_R   0.438700 0.605790 0.438700 -0.542673
O79   O     O_R   0.938740 0.000000 0.529880 -0.493947
O80   O     O_R   0.061260 0.000000 0.470120 -0.486817
O81   O     O_R   0.438740 0.500000 0.529880 -0.493947
O82   O     O_R   0.561260 0.500000 0.470120 -0.486814
O83   O     O_R   0.061220 0.000000 0.652370 -0.517677
O84   O     O_R   0.105810 0.938730 0.105820 -0.523559
O85   O     O_R   0.938780 0.000000 0.347630 -0.517175
O86   O     O_R   0.561220 0.500000 0.652370 -0.517682
O87   O     O_R   0.438780 0.500000 0.347630 -0.517184
O88   O     O_R   0.499910 0.105770 0.447130 -0.547531
O89   O     O_R   0.500090 0.894230 0.552870 -0.557068
O90   O     O_R   0.500090 0.105770 0.552870 -0.576427
O91   O     O_R   0.499910 0.894230 0.447130 -0.557499
O92   O     O_R   0.999910 0.605770 0.447130 -0.547529
O93   O     O_R   0.000090 0.394230 0.552870 -0.557067
O94   O     O_R   0.000090 0.605770 0.552870 -0.576429
O95   O     O_R   0.894190 0.061270 0.894180 -0.584469
O96   O     O_R   0.999910 0.394230 0.447130 -0.557495
O97   O     O_R   0.605760 0.000000 0.553010 -0.548452
O98   O     O_R   0.394240 0.000000 0.446990 -0.548006
O99   O     O_R   0.105760 0.500000 0.553010 -0.548453
O100  O     O_R   0.894240 0.500000 0.446990 -0.548007
O101  O     O_R   0.605780 0.000000 0.658540 -0.563140
O102  O     O_R   0.394220 0.000000 0.341460 -0.566495
O103  O     O_R   0.105780 0.500000 0.658540 -0.563140
O104  O     O_R   0.894220 0.500000 0.341460 -0.566494
O105  O     O_2   0.142147 0.945980 0.002217 -0.579552
O106  O     O_R   0.394190 0.438730 0.894180 -0.524773
O107  O     O_2   0.140632 0.063819 0.264427 -0.517852
O108  O     O_2   0.859993 0.944025 0.999674 -0.569839
O109  O     O_2   0.858895 0.060086 0.735581 -0.522202
O110  O     O_2   0.642147 0.445973 0.002217 -0.579544
O111  O     O_2   0.640633 0.563813 0.264427 -0.517852
O112  O     O_2   0.359987 0.444024 0.999669 -0.569825
O113  O     O_2   0.358897 0.560089 0.735584 -0.522199
O114  O     O_2   0.064276 0.772245 0.849673 -0.182621
O115  O     O_2   0.076683 0.827008 0.959451 -0.232031
O116  O     O_3   0.949119 0.806939 0.791360 -0.404147
O117  O     O_R   0.605810 0.561270 0.105820 -0.582951
O118  O     O_2   0.133863 0.913191 0.247656 -0.254257
O119  O     O_2   0.230259 0.962118 0.404908 -0.217459
O120  O     O_3   0.169410 0.847658 0.379454 -0.367449
O121  O     O_2   0.048176 0.815365 0.206134 -0.164870
O122  O     O_2   0.944497 0.770086 0.157731 -0.173486
O123  O     O_3   0.922067 0.824180 0.032013 -0.464795
O124  O     O_2   0.868224 0.908536 0.753164 -0.245909
O125  O     O_2   0.770989 0.957822 0.596215 -0.218050
O126  O     O_3   0.833094 0.845386 0.619745 -0.369327
O127  O     O_2   0.564272 0.272243 0.849668 -0.182621
O128  O     O_R   0.605810 0.438730 0.105820 -0.523558
O129  O     O_2   0.576677 0.327006 0.959446 -0.232025
O130  O     O_3   0.449114 0.306939 0.791354 -0.404147
O131  O     O_2   0.633861 0.413186 0.247653 -0.254251
O132  O     O_2   0.730256 0.462110 0.404907 -0.217457
O133  O     O_3   0.669404 0.347651 0.379447 -0.367449
O134  O     O_2   0.548167 0.315364 0.206126 -0.164871
O135  O     O_2   0.444485 0.270089 0.157718 -0.173482
O136  O     O_3   0.422059 0.324184 0.032004 -0.464782
O137  O     O_2   0.368223 0.408538 0.753163 -0.245911
O138  O     O_2   0.270988 0.457828 0.596216 -0.218052
O139  O     O_R   0.394190 0.561270 0.894180 -0.584466
O140  O     O_3   0.333089 0.345391 0.619740 -0.369327
O141  O     O_2   0.936065 0.808585 0.661969 -0.140561
O142  O     O_2   0.950707 0.857971 0.574324 -0.322168
O143  O     O_3   0.039172 0.765137 0.702724 -0.400216
O144  O     O_2   0.170682 0.870574 0.490120 -0.179153
O145  O     O_2   0.240738 0.970953 0.530221 -0.175055
O146  O     O_3   0.189375 0.972061 0.583452 -0.439778
O147  O     O_2   0.973399 0.772320 0.307753 -0.174777
O148  O     O_2   0.069869 0.808627 0.342604 -0.127295
O149  O     O_3   0.061099 0.859221 0.443132 -0.541766
O150  O     O_R   0.999980 0.938730 0.908830 -0.463598
O151  O     O_2   0.834612 0.866008 0.510924 -0.152308
O152  O     O_2   0.760803 0.962515 0.470789 -0.177712
O153  O     O_3   0.811071 0.969349 0.416288 -0.440004
O154  O     O_2   0.436059 0.308587 0.661964 -0.140563
O155  O     O_2   0.450705 0.357971 0.574321 -0.322161
O156  O     O_3   0.539166 0.265136 0.702720 -0.400214
O157  O     O_2   0.670676 0.370566 0.490113 -0.179154
O158  O     O_2   0.740737 0.470941 0.530221 -0.175052
O159  O     O_3   0.689372 0.472050 0.583449 -0.439781
O160  O     O_2   0.473388 0.272320 0.307737 -0.174768
S1    S     S_3+6 0.033831 0.832098 0.858064 0.140104
S2    S     S_3+6 0.171016 0.951805 0.492042 0.180637
S3    S     S_3+6 0.017602 0.838466 0.334927 0.137798
S4    S     S_3+6 0.830990 0.947257 0.508583 0.189031
S5    S     S_3+6 0.488554 0.339122 0.670474 0.135862
S6    S     S_3+6 0.671014 0.451797 0.492039 0.180636
S7    S     S_3+6 0.517595 0.338465 0.334917 0.137801
S8    S     S_3+6 0.330989 0.447261 0.508582 0.189032
S9    S     S_3+6 0.130103 0.889611 0.805451 0.076053
S10   S     S_3+6 0.137486 0.098318 0.445814 0.048738
S11   S     S_3+6 0.872995 0.885417 0.196720 0.073749
S12   S     S_3+6 0.154834 0.929060 0.332845 0.142762
S13   S     S_3+6 0.858693 0.094655 0.551249 0.054576
S14   S     S_3+6 0.630100 0.389608 0.805446 0.076051
S15   S     S_3+6 0.637494 0.598311 0.445819 0.048748
S16   S     S_3+6 0.372991 0.385424 0.196720 0.073745
S17   S     S_3+6 0.358695 0.594657 0.551251 0.054572
S18   S     S_3+6 0.153273 0.075110 0.853795 0.114120
S19   S     S_3+6 0.958955 0.153388 0.298510 0.111426
S20   S     S_3+6 0.844680 0.068592 0.143621 0.115249
S21   S     S_3+6 0.033709 0.155340 0.694699 0.107901
S22   S     S_3+6 0.653275 0.575108 0.853796 0.114126
S23   S     S_3+6 0.971151 0.831965 0.146031 0.144433
S24   S     S_3+6 0.458972 0.653391 0.298527 0.111417
S25   S     S_3+6 0.344685 0.568605 0.143630 0.115256
S26   S     S_3+6 0.533709 0.655341 0.694703 0.107897
S27   S     S_3+6 0.846856 0.925678 0.667879 0.143530
S28   S     S_3+6 0.533827 0.332096 0.858060 0.140109
S29   S     S_3+6 0.654831 0.429055 0.332841 0.142765
S30   S     S_3+6 0.471142 0.331967 0.146022 0.144444
S31   S     S_3+6 0.346855 0.425681 0.667878 0.143528
S32   S     S_3+6 0.988558 0.839122 0.670478 0.135860

loop_
_geom_bond_atom_site_label_1
_geom_bond_atom_site_label_2
_ccdc_geom_bond_type
C72   H12   S    
H5    O130  S    
C35   C53   S    
C43   S13   S    
H24   O27   S    
C50   C82   S    
O137  S31   D    
Cu6   O106  S    
H9    O143  S    
O56   S22   D    
C47   S16   S    
Cu12  O91   S    
O10   S9    S    
C35   S27   S    
O22   S14   D    
O15   S11   D    
Cu12  O97   S    
C1    O95   A    
C43   C58   S    
C64   S26   S    
O64   S25   D    
O126  S27   S    
C77   O112  D    
C5    O83   A    
C48   C60   S    
C9    O90   A    
O54   S21   D    
C36   C44   S    
C85   O40   D    
O134  S30   D    
Cu5   O2    S    
C18   C25   T    
C14   C45   S    
Cu3   O104  S    
C40   C58   S    
Cu2   O90   S    
C82   O37   D    
O158  S6    D    
C28   C54   S    
C29   C55   S    
C17   O100  A    
O136  S30   S    
C42   S11   S    
O157  S6    D    
O5    S8    D    
C38   C57   S    
C40   S32   S    
C44   S14   S    
C75   O110  D    
O159  S6    S    
O19   S13   D    
O11   S10   D    
C65   S24   S    
O145  S2    D    
C33   C73   S    
C15   O102  A    
H37   O49   S    
O154  S5    D    
O9    S9    D    
Cu12  O88   S    
Cu6   O35   S    
C72   O107  D    
H40   O59   S    
H4    O126  S    
H21   O20   S    
C49   C62   S    
C2    C19   S    
C51   C64   S    
H42   O65   S    
C27   C53   S    
C17   O104  A    
C59   C63   S    
O18   S13   D    
C60   C64   S    
O124  S27   D    
C52   C86   S    
O130  S28   S    
C36   C55   S    
C38   S30   S    
C41   S10   S    
C49   C53   S    
C74   H34   S    
C17   C78   S    
C51   C55   S    
O20   S13   S    
O141  S32   D    
C8    O87   A    
C61   C65   S    
Cu9   O80   S    
Cu10  Cu11  S    
C21   C24   T    
C84   O39   D    
C37   C57   S    
C52   C65   S    
C50   C81   S    
O123  S23   S    
Cu5   O24   S    
H7    O136  S    
Cu4   O100  S    
O12   S10   D    
O51   S20   D    
C14   O101  A    
C30   O46   A    
C12   C68   S    
C5    C58   S    
O23   S14   S    
C33   C42   S    
C36   C75   S    
C11   C25   S    
O125  S27   D    
O31   S17   D    
C73   H23   S    
H17   O7    S    
Cu8   O85   S    
C80   O34   D    
C35   C43   S    
C31   C71   S    
C7    O86   A    
C39   S31   S    
C10   O91   A    
O63   S25   D    
Cu10  O75   S    
O3    S7    D    
Cu7   O68   S    
Cu6   Cu7   S    
C28   O13   A    
O61   S24   D    
O7    S8    S    
O45   S18   S    
O121  S23   D    
C43   S4    S    
C63   S20   S    
O119  S12   D    
C75   H44   S    
Cu3   Cu4   S    
C64   S22   S    
O32   S17   D    
C10   C24   S    
C11   O92   A    
C56   C68   T    
C30   O57   A    
C18   C88   S    
C5    O79   A    
H3    O123  S    
O25   S15   D    
H8    O140  S    
O160  S7    D    
C73   O108  D    
Cu4   O93   S    
C15   O98   A    
C48   S17   S    
O148  S3    D    
O66   S26   D    
Cu9   O72   S    
C16   C67   S    
H48   O116  S    
C82   H29   S    
C87   O42   D    
Cu4   O103  S    
Cu7   O46   S    
C13   C26   S    
O115  S1    D    
C33   C54   S    
O140  S31   S    
C3    O75   A    
C6    C59   S    
H15   O159  S    
C42   C59   S    
Cu7   O139  S    
H41   O62   S    
C88   O70   A    
C48   S8    S    
Cu1   Cu5   S    
O151  S4    D    
Cu3   O96   S    
C10   O89   A    
H22   O23   S    
C36   S28   S    
H25   O30   S    
H26   O33   S    
C81   O36   D    
Cu4   O94   S    
C27   O24   A    
C23   O139  A    
C58   C62   S    
C35   C74   S    
O21   S14   D    
C42   S3    S    
C34   O117  A    
C44   S5    S    
O156  S5    S    
C32   C72   S    
C31   S1    S    
H10   O146  S    
C50   C54   S    
O4    S7    S    
Cu6   O128  S    
O120  S12   S    
Cu7   O117  S    
C13   O96   A    
C30   C57   S    
C2    O74   A    
C31   C40   S    
Cu1   O13   S    
C19   C26   T    
C71   O105  D    
O6    S8    D    
C39   C55   S    
O58   S22   D    
O153  S4    S    
C6    O80   A    
Cu3   O92   S    
H20   O17   S    
C83   O38   D    
C1    O1    A    
O29   S16   D    
C4    O78   A    
O131  S29   D    
C34   C70   S    
C14   O97   A    
Cu1   O1    S    
C71   H1    S    
C46   S15   S    
O133  S29   S    
O30   S16   S    
C23   O106  A    
H19   O14   S    
C32   C54   S    
Cu2   O101  S    
C16   O103  A    
Cu1   O150  S    
C76   O111  D    
Cu3   O99   S    
C41   S2    S    
C46   C61   S    
C87   H35   S    
O14   S10   S    
Cu5   O95   S    
O49   S19   S    
Cu11  O86   S    
C79   H47   S    
C34   O128  A    
C88   O72   A    
C39   C79   S    
O67   S26   D    
O155  S5    D    
O16   S11   D    
C86   H33   S    
O69   S26   S    
H18   O10   S    
O59   S22   S    
C3    C20   S    
Cu11  O77   S    
C37   C76   S    
C20   C22   T    
C76   H45   S    
Cu8   O74   S    
C2    O71   A    
C79   O113  D    
C7    C60   S    
Cu8   Cu9   S    
C62   S18   S    
C7    O81   A    
C16   O99   A    
Cu2   O89   S    
C33   S23   S    
C47   C61   S    
O143  S32   S    
C38   C77   S    
O47   S19   D    
O43   S18   D    
C49   C83   S    
H39   O55   S    
O28   S16   D    
C37   S29   S    
O60   S24   D    
C44   C60   S    
Cu2   O98   S    
Cu1   O84   S    
O127  S28   D    
O122  S23   D    
C65   S25   S    
C52   C57   S    
H13   O153  S    
C49   C80   S    
C37   C46   S    
C51   C84   S    
C39   C48   S    
H38   O52   S    
C28   O2    A    
C70   C78   T    
C23   C69   S    
O55   S21   S    
O26   S15   D    
O48   S19   D    
C52   C85   S    
C63   S19   S    
Cu12  O102  S    
C85   H32   S    
C9    C22   S    
H43   O69   S    
O138  S31   D    
O152  S4    D    
O149  S3    S    
O50   S20   D    
C8    O82   A    
O147  S3    D    
Cu10  O87   S    
H11   O149  S    
Cu9   O71   S    
C3    O77   A    
C8    C61   S    
O33   S17   S    
H2    O120  S    
C9    O88   A    
O62   S24   S    
C27   O150  A    
Cu6   O57   S    
O142  S32   D    
Cu2   Cu12  S    
C12   O84   A    
C50   C63   S    
C13   O93   A    
C47   S7    S    
Cu8   O79   S    
C41   C59   S    
C83   H30   S    
C51   C87   S    
C29   O68   A    
C4    O76   A    
C67   C69   T    
O132  S29   D    
O44   S18   D    
O52   S20   S    
Cu10  O81   S    
O146  S2    S    
C32   C41   S    
O8    S9    D    
H14   O156  S    
C1    C66   S    
O65   S25   S    
C31   C53   S    
C38   C47   S    
O27   S15   S    
O17   S11   S    
C6    O85   A    
O114  S1    D    
H16   O4    S    
Cu11  O82   S    
C74   O109  D    
Cu11  O76   S    
C86   O41   D    
C29   O35   A    
O135  S30   D    
O118  S12   D    
O116  S1    S    
C62   S21   S    
C80   H27   S    
C84   H31   S    
H6    O133  S    
C15   C56   S    
H36   O45   S    
C81   H28   S    
C46   S6    S    
C4    C21   S    
Cu9   O83   S    
Cu8   O70   S    
C77   H46   S    
O129  S28   D    
C12   O73   A    
O144  S2    D    
C32   S12   S    
C45   C66   T    
C11   O94   A    
Cu5   O73   S    
O53   S21   D    
C40   S9    S    
Cu10  O78   S    
