data_mof_unit_26328.cif
_audit_creation_date              2012-12-10T18:50:46-0500
_audit_creation_method            fapswitch 2.2
_symmetry_space_group_name_H-M    P1
_symmetry_Int_Tables_number       1
_space_group_crystal_system       triclinic
_cell_length_a                    10.673876
_cell_length_b                    9.847119
_cell_length_c                    15.737913
_cell_angle_alpha                 90.030857
_cell_angle_beta                  90.156406
_cell_angle_gamma                 90.025215
_cell_volume                      1654.157111

loop_
_atom_site_label
_atom_site_type_symbol
_atom_type_description
_atom_site_fract_x
_atom_site_fract_y
_atom_site_fract_z
_atom_type_partial_charge
C1    C     C_R   0.260010 0.500015 0.499786 0.980136
C2    C     C_3   0.617425 0.557987 0.951959 -0.417393
C3    C     C_3   0.616987 0.555599 0.049888 -0.500999
C4    C     C_1   0.495165 0.499838 0.825944 -0.084130
C5    C     C_1   0.494784 0.499309 0.174241 -0.106687
C6    C     C_1   0.498262 0.499664 0.249475 -0.153777
C7    C     C_R   0.062897 0.416456 0.558871 -0.034589
C8    C     C_R   0.062291 0.584418 0.441828 -0.023619
C9    C     C_R   0.933897 0.414321 0.555881 -0.222408
C10   C     C_R   0.933310 0.586214 0.444831 -0.221653
C11   C     C_R   0.871301 0.500115 0.500290 -0.047530
C12   C     C_R   0.127024 0.500151 0.500089 -0.190119
C13   C     C_R   0.580623 0.072015 0.550916 -0.053141
C14   C     C_R   0.580615 0.928165 0.550920 -0.059105
C15   C     C_R   0.500874 0.499920 0.338274 0.956141
C16   C     C_R   0.419309 0.927983 0.449035 -0.055816
C17   C     C_R   0.419289 0.071839 0.449051 -0.050339
C18   C     C_R   0.739583 0.500020 0.500186 0.861268
C19   C     C_R   0.500144 0.500043 0.661789 0.947153
C20   C     C_3   0.384162 0.594635 0.048280 0.050951
C21   C     C_3   0.476899 0.350394 0.048410 0.083386
C22   C     C_3   0.476393 0.352045 0.949834 -0.442583
C23   C     C_3   0.382157 0.586432 0.949704 -0.389393
C24   C     C_1   0.497643 0.500073 0.750657 -0.143236
C25   C     C_3   0.490239 0.498832 0.082683 0.224237
C26   C     C_3   0.492912 0.499238 0.917350 0.272991
H1    H     H_    0.292668 0.541009 0.926750 0.195377
H2    H     H_    0.387811 0.308454 0.924065 0.184927
H3    H     H_    0.354862 0.873459 0.408263 0.154535
H4    H     H_    0.354791 0.126235 0.408308 0.143981
H5    H     H_    0.561820 0.293553 0.069728 0.145929
H6    H     H_    0.409288 0.700549 0.067037 0.141266
H7    H     H_    0.554096 0.287070 0.925979 0.160430
H8    H     H_    0.387900 0.690894 0.922935 0.151137
H9    H     H_    0.633008 0.660268 0.074495 0.186270
H10   H     H_    0.696209 0.491907 0.073081 0.187029
H11   H     H_    0.630001 0.664263 0.929399 0.180564
H12   H     H_    0.698086 0.497477 0.928051 0.182596
H13   H     H_    0.881437 0.351002 0.599616 0.169887
H14   H     H_    0.880505 0.649626 0.401163 0.171138
H15   H     H_    0.645134 0.126557 0.591646 0.132723
H16   H     H_    0.645105 0.873768 0.591663 0.134851
N1    N     N_R   0.499970 0.857200 0.499980 -0.089502
N2    N     N_R   0.499970 0.142800 0.499980 -0.087622
O1    O     O_R   0.316750 0.614620 0.499990 -0.608374
O2    O     O_R   0.316750 0.385380 0.499990 -0.604945
O3    O     O_R   0.499990 0.614720 0.377140 -0.611052
O4    O     O_R   0.499990 0.385280 0.377140 -0.617057
O5    O     O_R   0.683220 0.614710 0.500000 -0.626168
O6    O     O_R   0.683220 0.385290 0.500000 -0.625612
O7    O     O_R   0.499980 0.614620 0.622860 -0.626485
O8    O     O_R   0.499980 0.385380 0.622860 -0.597554
Zn1   Zn    Zn3+2 0.499980 0.653120 0.500000 0.972583
Zn2   Zn    Zn3+2 0.499980 0.346880 0.500000 0.985181
N3    N     N_2   0.260677 0.563682 0.083156 -0.309901
H17   H     H_    0.260539 0.527135 0.144493 0.262573
C27   C     C_3   0.166464 0.667947 0.071686 -0.806552
H18   H     H_    0.191570 0.759711 0.109199 0.241449
H19   H     H_    0.074486 0.629513 0.094090 0.252282
H20   H     H_    0.156905 0.695725 0.003628 0.248241
N4    N     N_2   0.365806 0.282644 0.081686 -0.288008
H21   H     H_    0.282233 0.314017 0.055282 0.258082
C28   C     C_3   0.374037 0.136409 0.089030 -0.820829
H22   H     H_    0.286716 0.096415 0.117949 0.250414
H23   H     H_    0.453880 0.107691 0.130722 0.248747
H24   H     H_    0.386090 0.089686 0.025294 0.235991
C29   C     C_2   0.125538 0.335151 0.626387 0.914089
O9    O     O_2   0.218962 0.378518 0.662408 -0.647985
O10   O     O_R   0.074011 0.210793 0.651244 -0.808805
H25   H     H_    0.123830 0.165546 0.698297 0.341897
C30   C     C_2   0.124808 0.666127 0.374726 0.897758
O11   O     O_2   0.083657 0.778089 0.355858 -0.638134
O12   O     O_R   0.227216 0.613220 0.330669 -0.828996
H26   H     H_    0.260143 0.678022 0.285923 0.331906

loop_
_geom_bond_atom_site_label_1
_geom_bond_atom_site_label_2
_ccdc_geom_bond_type
C4    C26   S    
N3    H17   S    
C28   H23   S    
C11   C18   S    
C20   C25   S    
C23   H1    S    
C9    C11   A    
O12   H26   S    
C2    H12   S    
C21   N4    S    
C5    C6    T    
C16   N1    A    
C20   C23   S    
C15   O3    A    
C8    C12   A    
C23   H8    S    
O2    Zn2   S    
C13   H15   S    
C19   C24   S    
C16   H3    S    
C17   N2    A    
O1    Zn1   S    
C30   O11   D    
C2    C26   S    
C22   H2    S    
C21   C22   S    
O4    Zn2   S    
C17   H4    S    
C21   H5    S    
C2    H11   S    
C1    O1    A    
C27   H18   S    
O6    Zn2   S    
C1    C12   S    
C15   O4    A    
C20   N3    S    
C5    C25   S    
O3    Zn1   S    
C3    H10   S    
C1    O2    A    
O8    Zn2   S    
C2    C3    S    
C19   O7    A    
C7    C9    A    
O10   H25   S    
N3    C27   S    
C22   C26   S    
N4    H21   S    
C4    C24   T    
O5    Zn1   S    
C7    C12   A    
C27   H19   S    
C8    C10   A    
C10   C11   A    
O7    Zn1   S    
C7    C29   S    
C28   H22   S    
N2    Zn2   S    
C9    H13   S    
C3    C25   S    
C18   O6    A    
C10   H14   S    
C3    H9    S    
C20   H6    S    
C23   C26   S    
C30   O12   S    
N4    C28   S    
C22   H7    S    
C21   C25   S    
C16   C17   A    
C8    C30   S    
C29   O10   S    
C6    C15   S    
C13   C14   A    
C14   H16   S    
C19   O8    A    
N1    Zn1   S    
C13   N2    A    
C28   H24   S    
C29   O9    D    
C18   O5    A    
C14   N1    A    
C27   H20   S    
