data_mof_unit_42709.cif
_audit_creation_date              2012-10-26T17:13:12-0400
_audit_creation_method            fapswitch 2.2
_symmetry_space_group_name_H-M    P1
_symmetry_Int_Tables_number       1
_space_group_crystal_system       triclinic
_cell_length_a                    16.872153
_cell_length_b                    16.699676
_cell_length_c                    17.001096
_cell_angle_alpha                 67.507066
_cell_angle_beta                  68.14122
_cell_angle_gamma                 67.949857
_cell_volume                      3953.09989334

loop_
_atom_site_label
_atom_site_type_symbol
_atom_type_description
_atom_site_fract_x
_atom_site_fract_y
_atom_site_fract_z
_atom_type_partial_charge
C1    C     C_R   0.320887 0.957780 0.451716 0.054638
C2    C     C_R   0.683550 0.011014 0.560020 0.047213
C3    C     C_R   0.986233 0.451714 0.311382 0.052055
C4    C     C_R   0.048678 0.540540 0.678151 0.057098
C5    C     C_R   0.453426 0.324295 0.949948 0.059259
C6    C     C_R   0.546552 0.675435 0.049778 0.054440
C7    C     C_R   0.548077 0.034933 0.681061 0.053962
C8    C     C_R   0.430935 0.004365 0.312383 0.003715
C9    C     C_R   0.686290 0.570441 0.998117 0.061282
C10   C     C_R   0.313755 0.429136 0.001902 -0.008781
C11   C     C_R   0.056061 0.673612 0.547544 0.051752
C12   C     C_R   0.019245 0.308373 0.424527 0.051965
C13   C     C_R   0.445756 0.996125 0.453900 -0.025901
C14   C     C_R   0.542035 0.012874 0.549077 -0.020761
C15   C     C_R   0.020699 0.446784 0.441375 -0.026223
C16   C     C_R   0.048065 0.535763 0.536495 -0.024494
C17   C     C_R   0.454371 0.450137 0.989804 -0.021484
C18   C     C_R   0.546115 0.549561 0.009227 -0.022251
C19   C     C_R   0.030105 0.827752 0.564364 0.815726
C20   C     C_R   0.982978 0.169945 0.431131 0.823464
C21   C     C_R   0.829580 0.568449 0.019374 0.828662
C22   C     C_R   0.170611 0.431857 0.979711 0.793871
C23   C     C_R   0.564593 0.027621 0.828404 0.820091
C24   C     C_R   0.431538 0.981827 0.169965 0.789434
C25   C     C_R   0.436821 0.172032 0.968469 0.808500
C26   C     C_R   0.563140 0.827909 0.031596 0.829088
C27   C     C_R   0.975759 0.435029 0.170624 0.813191
C28   C     C_R   0.027694 0.564200 0.828534 0.824958
C29   C     C_R   0.171440 0.970746 0.436098 0.820603
C30   C     C_R   0.829469 0.020774 0.567054 0.819291
C31   C     C_R   0.399272 0.985671 0.405976 -0.007742
C32   C     C_R   0.591318 0.020316 0.596768 -0.022846
C33   C     C_R   0.004943 0.402934 0.394192 -0.025939
C34   C     C_R   0.053259 0.582736 0.587457 -0.021622
C35   C     C_R   0.407421 0.401591 0.979718 -0.012107
C36   C     C_R   0.592742 0.597963 0.020070 -0.027600
C37   C     C_R   0.270222 0.955939 0.401723 -0.127199
C38   C     C_R   0.732141 0.025692 0.604777 -0.151291
C39   C     C_R   0.971599 0.402206 0.265995 -0.155475
C40   C     C_R   0.044910 0.595001 0.729936 -0.151684
C41   C     C_R   0.403437 0.272105 0.949797 -0.132612
C42   C     C_R   0.596522 0.727717 0.050269 -0.135682
C43   C     C_R   0.598427 0.040417 0.729908 -0.138734
C44   C     C_R   0.391192 0.980314 0.266014 -0.162738
C45   C     C_R   0.732902 0.608756 0.023217 -0.139800
C46   C     C_R   0.267229 0.391317 0.976274 -0.167727
C47   C     C_R   0.051375 0.726291 0.598391 -0.138431
C48   C     C_R   0.986430 0.265999 0.389140 -0.137085
C49   C     C_R   0.454800 0.046880 0.711507 0.131171
C50   C     C_R   0.501795 0.046089 0.269288 0.139084
C51   C     C_R   0.065353 0.708337 0.455977 0.135216
C52   C     C_R   0.069674 0.259249 0.486485 0.129361
C53   C     C_R   0.730052 0.506600 0.950293 0.112531
C54   C     C_R   0.270113 0.493992 0.048867 0.152218
C55   C     C_R   0.297347 0.929341 0.545893 0.119681
C56   C     C_R   0.722577 0.988532 0.478567 0.139073
C57   C     C_R   0.546942 0.303472 0.917975 0.121581
C58   C     C_R   0.452789 0.696848 0.080366 0.126575
C59   C     C_R   0.984728 0.546210 0.280090 0.121700
C60   C     C_R   0.048801 0.446391 0.709495 0.132670
C61   C     C_R   0.312105 0.952947 0.313516 -0.124934
C62   C     C_R   0.685937 0.047553 0.686063 -0.142084
C63   C     C_R   0.956160 0.317035 0.313176 -0.150860
C64   C     C_R   0.057781 0.682412 0.685667 -0.147899
C65   C     C_R   0.315167 0.314225 0.946199 -0.128730
C66   C     C_R   0.685048 0.685845 0.053521 -0.147435
C67   C     C_R   0.668941 0.013320 0.421342 -0.026389
C68   C     C_R   0.333850 0.955589 0.592965 -0.020694
C69   C     C_R   0.077696 0.395216 0.649066 -0.020286
C70   C     C_R   0.972386 0.591890 0.339738 -0.026499
C71   C     C_R   0.405052 0.655032 0.061005 -0.004369
C72   C     C_R   0.595133 0.345633 0.936282 -0.009723
C73   C     C_R   0.560257 0.034193 0.317489 0.041206
C74   C     C_R   0.414897 0.011199 0.676797 -0.027348
C75   C     C_R   0.314497 0.553962 0.041858 0.003259
C76   C     C_R   0.686407 0.446753 0.954960 -0.010590
C77   C     C_R   0.072339 0.302030 0.542813 -0.013765
C78   C     C_R   0.028686 0.674169 0.417875 -0.020433
C79   C     C_R   0.702241 0.032408 0.328531 -0.095962
C80   C     C_R   0.299684 0.949865 0.685155 -0.070403
C81   C     C_R   0.097291 0.299526 0.676536 -0.076013
C82   C     C_R   0.956093 0.687008 0.312928 -0.086607
C83   C     C_R   0.311767 0.687494 0.070700 -0.089156
C84   C     C_R   0.688596 0.314081 0.924266 -0.072982
C85   C     C_R   0.647716 0.044390 0.276392 -0.056163
C86   C     C_R   0.337235 0.982298 0.725063 -0.073136
C87   C     C_R   0.267916 0.638332 0.057713 -0.084683
C88   C     C_R   0.733173 0.363245 0.936243 -0.078243
C89   C     C_R   0.092207 0.253691 0.624874 -0.072821
C90   C     C_R   0.992915 0.726611 0.345317 -0.070746
C91   C     C_R   0.528664 0.014736 0.410248 -0.000443
C92   C     C_R   0.455585 0.003641 0.590575 0.013196
C93   C     C_R   0.052112 0.396703 0.516719 0.007459
C94   C     C_R   0.025264 0.584085 0.456877 0.007271
C95   C     C_R   0.407474 0.528181 0.019104 -0.000704
C96   C     C_R   0.593246 0.471846 0.979056 0.015570
C97   C     C_R   0.579792 0.014002 0.459977 0.011532
C98   C     C_R   0.410784 0.986121 0.545723 0.007817
C99   C     C_R   0.452940 0.578417 0.028706 0.010637
C100  C     C_R   0.547591 0.421656 0.969519 0.012701
C101  C     C_R   0.061179 0.442099 0.566662 0.012407
C102  C     C_R   0.003724 0.541106 0.414096 0.014938
Cu1   Cu    Cu3+1 0.995180 0.995180 0.424630 1.023476
Cu2   Cu    Cu3+1 0.004820 0.004820 0.575370 1.015952
Cu3   Cu    Cu3+1 0.995180 0.424630 0.995180 1.014793
Cu4   Cu    Cu3+1 0.004820 0.575370 0.004820 1.037348
Cu5   Cu    Cu3+1 0.424630 0.995180 0.995180 1.012447
Cu6   Cu    Cu3+1 0.575370 0.004820 0.004820 1.005200
O1    O     O_R   0.124540 0.978640 0.385460 -0.577429
O2    O     O_R   0.875460 0.021360 0.614540 -0.568561
O3    O     O_R   0.978640 0.385460 0.124540 -0.571447
O4    O     O_R   0.021360 0.614540 0.875460 -0.571715
O5    O     O_R   0.385460 0.124540 0.978640 -0.573848
O6    O     O_R   0.614540 0.875460 0.021360 -0.567605
O7    O     O_R   0.614540 0.021360 0.875460 -0.577154
O8    O     O_R   0.385460 0.978640 0.124540 -0.571943
O9    O     O_R   0.875460 0.614540 0.021360 -0.578704
O10   O     O_R   0.124540 0.385460 0.978640 -0.578724
O11   O     O_R   0.021360 0.875460 0.614540 -0.579335
O12   O     O_R   0.978640 0.124540 0.385460 -0.565672
O13   O     O_R   0.013780 0.867370 0.487190 -0.575381
O14   O     O_R   0.986220 0.132630 0.512810 -0.573909
O15   O     O_R   0.867370 0.487190 0.013780 -0.581045
O16   O     O_R   0.132630 0.512810 0.986220 -0.547396
O17   O     O_R   0.487190 0.013780 0.867370 -0.574710
O18   O     O_R   0.512810 0.986220 0.132630 -0.591296
O19   O     O_R   0.512810 0.132630 0.986220 -0.601582
O20   O     O_R   0.487190 0.867370 0.013780 -0.580767
O21   O     O_R   0.986220 0.512810 0.132630 -0.560498
O22   O     O_R   0.013780 0.487190 0.867370 -0.575029
O23   O     O_R   0.132630 0.986220 0.512810 -0.597021
O24   O     O_R   0.867370 0.013780 0.487190 -0.560666
C103  C     C_1   0.275157 0.916542 0.274416 0.350291
N1    N     N_1   0.245167 0.887655 0.243571 -0.277050
C104  C     C_1   0.725416 0.085025 0.721658 0.336952
N2    N     N_1   0.757285 0.115168 0.749408 -0.255504
C105  C     C_1   0.904770 0.284816 0.285421 0.320939
N3    N     N_1   0.863516 0.259493 0.263380 -0.241323
C106  C     C_1   0.086096 0.724310 0.727320 0.336199
N4    N     N_1   0.108886 0.756927 0.761154 -0.244715
C107  C     C_1   0.278124 0.281909 0.903859 0.341580
N5    N     N_1   0.249211 0.256212 0.869235 -0.260199
C108  C     C_1   0.723575 0.720065 0.093141 0.332253
N6    N     N_1   0.753900 0.747462 0.125062 -0.235993
C109  C     C_1   0.302208 0.974042 0.819044 0.254239
N7    N     N_1   0.274115 0.967029 0.893992 -0.238807
C110  C     C_1   0.686228 0.057624 0.182104 0.275845
N8    N     N_1   0.717772 0.067742 0.106981 -0.253089
C111  C     C_1   0.990207 0.820968 0.305507 0.223471
N9    N     N_1   0.988913 0.896070 0.272677 -0.245121
C112  C     C_1   0.087321 0.161345 0.666207 0.236921
N10   N     N_1   0.081710 0.088300 0.700070 -0.257622
C113  C     C_1   0.822852 0.319399 0.945629 0.239422
N11   N     N_1   0.893690 0.283081 0.954523 -0.261889
C114  C     C_1   0.180328 0.682202 0.042817 0.298905
N12   N     N_1   0.111382 0.718435 0.029091 -0.251123
C115  C     C_1   0.224482 0.914535 0.741161 0.256962
N13   N     N_1   0.164549 0.886851 0.787860 -0.217143
C116  C     C_1   0.787114 0.053076 0.285507 0.267634
N14   N     N_1   0.854217 0.070836 0.250797 -0.208875
C117  C     C_1   0.739637 0.226977 0.909049 0.255811
N15   N     N_1   0.781670 0.157555 0.897396 -0.220658
C118  C     C_1   0.260441 0.774944 0.084749 0.235797
N16   N     N_1   0.218186 0.844636 0.095588 -0.220778
C119  C     C_1   0.901715 0.744153 0.252451 0.238713
N17   N     N_1   0.858336 0.790560 0.204412 -0.232634
C120  C     C_1   0.121170 0.246054 0.758599 0.239744
N18   N     N_1   0.139192 0.201360 0.824158 -0.231118
N19   N     N_3   0.401006 0.119257 0.750834 -0.563042
H1    H     H_    0.356872 0.097180 0.810778 0.264859
H2    H     H_    0.363605 0.168391 0.708193 0.222915
N20   N     N_3   0.495021 0.123793 0.193229 -0.581883
H3    H     H_    0.432481 0.144806 0.181991 0.211614
H4    H     H_    0.542748 0.109745 0.136679 0.265985
N21   N     N_3   0.134999 0.751703 0.402271 -0.574131
H5    H     H_    0.111085 0.814082 0.360708 0.268544
H6    H     H_    0.182684 0.711389 0.362523 0.216679
N22   N     N_3   0.137822 0.179060 0.471348 -0.589248
H7    H     H_    0.132073 0.124709 0.527251 0.262406
H8    H     H_    0.199596 0.189743 0.456861 0.212331
N23   N     N_3   0.806076 0.521782 0.878465 -0.578899
H9    H     H_    0.794695 0.527043 0.820033 0.219055
H10   H     H_    0.858448 0.466156 0.890671 0.281147
N24   N     N_3   0.192802 0.483345 0.121401 -0.530237
H11   H     H_    0.181446 0.421412 0.134971 0.207657
H12   H     H_    0.207500 0.477698 0.178239 0.204141
N25   N     N_3   0.254160 0.858129 0.589532 -0.584682
H13   H     H_    0.191391 0.880009 0.629614 0.268859
H14   H     H_    0.292687 0.804030 0.628178 0.223663
N26   N     N_3   0.798769 0.911724 0.473377 -0.553946
H15   H     H_    0.843378 0.924118 0.411199 0.245898
H16   H     H_    0.777697 0.857045 0.481165 0.210454
N27   N     N_3   0.587872 0.257333 0.850564 -0.589291
H17   H     H_    0.627477 0.193321 0.873727 0.268602
H18   H     H_    0.626646 0.294588 0.795619 0.224087
N28   N     N_3   0.410713 0.743475 0.147370 -0.588160
H19   H     H_    0.371464 0.706380 0.201933 0.220584
H20   H     H_    0.371151 0.807215 0.123462 0.271943
N29   N     N_3   0.034389 0.584090 0.193001 -0.504582
H21   H     H_    0.083625 0.605234 0.196704 0.215538
H22   H     H_    0.992446 0.639608 0.159456 0.256832
N30   N     N_3   0.984839 0.415693 0.788167 -0.571185
H23   H     H_    0.016215 0.361338 0.832530 0.263744
H24   H     H_    0.940841 0.396177 0.773655 0.209125

loop_
_geom_bond_atom_site_label_1
_geom_bond_atom_site_label_2
_ccdc_geom_bond_type
C68   C80   A    
Cu4   O21   S    
C83   C87   A    
C9    C45   A    
C119  N17   T    
C18   C96   A    
N19   H1    S    
C6    C58   A    
Cu3   Cu4   S    
C11   C47   A    
C118  N16   T    
C79   C85   A    
C12   C48   A    
C117  N15   T    
C75   C95   A    
C104  N2    T    
N21   H6    S    
Cu4   O4    S    
N23   H9    S    
C78   C90   A    
C77   C89   A    
N26   H15   S    
C67   C97   A    
N30   H24   S    
C30   O2    A    
Cu6   O7    S    
C29   O1    A    
C23   O7    A    
Cu5   O20   S    
C25   O5    A    
C12   C33   A    
C79   C116  S    
N24   H12   S    
C19   C47   S    
C58   C71   A    
Cu2   O14   S    
C28   C40   S    
C95   C99   A    
C74   C92   A    
C108  N6    T    
C49   N19   S    
C96   C100  A    
C1    C31   A    
C23   C43   S    
N24   H11   S    
Cu3   O15   S    
C2    C32   A    
Cu6   O6    S    
C13   C98   A    
Cu5   O5    S    
C21   O9    A    
C16   C34   A    
C115  N13   T    
Cu6   O19   S    
C110  N8    T    
C59   N29   S    
N27   H18   S    
Cu2   O23   S    
C10   C46   A    
C9    C36   A    
C80   C86   A    
Cu5   Cu6   S    
C10   C35   A    
C17   C95   A    
C55   N25   S    
C58   N28   S    
Cu1   O24   S    
C76   C88   A    
C71   C83   A    
C1    C37   A    
C23   O17   A    
Cu2   O11   S    
C81   C89   A    
Cu3   O3    S    
C19   O11   A    
N29   H21   S    
C57   C72   A    
C13   C91   A    
C24   O18   A    
N19   H2    S    
C90   C111  S    
C10   C54   A    
C12   C52   A    
N20   H4    S    
N22   H7    S    
C21   C45   S    
N23   H10   S    
C63   C105  S    
C56   N26   S    
C114  N12   T    
N30   H23   S    
C61   C103  S    
C84   C88   A    
C67   C79   A    
C7    C49   A    
C46   C65   A    
N28   H20   S    
C50   C73   A    
C25   C41   S    
C120  N18   T    
C3    C39   A    
C55   C68   A    
C48   C63   A    
C41   C65   A    
C66   C108  S    
C71   C99   A    
C91   C97   A    
C64   C106  S    
C57   N27   S    
C29   C37   S    
C45   C66   A    
C52   N22   S    
C62   C104  S    
C21   O15   A    
Cu5   O17   S    
C8    C44   A    
C26   O6    A    
C4    C40   A    
C53   N23   S    
C65   C107  S    
C2    C38   A    
C37   C61   A    
C116  N14   T    
C112  N10   T    
C73   C85   A    
C4    C60   A    
C70   C102  A    
C81   C120  S    
C26   O20   A    
C74   C86   A    
C51   N21   S    
C73   C91   A    
C72   C84   A    
C83   C118  S    
C69   C81   A    
C60   N30   S    
C22   C46   S    
C14   C92   A    
C24   O8    A    
C7    C43   A    
Cu4   O9    S    
C103  N1    T    
C27   O21   A    
C54   N24   S    
Cu3   O10   S    
C53   C76   A    
C9    C53   A    
C18   C99   A    
C93   C101  A    
C52   C77   A    
Cu1   O13   S    
C86   C109  S    
C8    C50   A    
C109  N7    T    
C20   O12   A    
N20   H3    S    
C26   C42   S    
C14   C97   A    
N29   H22   S    
C72   C100  A    
C75   C87   A    
C22   O10   A    
C5    C41   A    
C19   O13   A    
N26   H16   S    
C7    C32   A    
C20   C48   S    
C8    C31   A    
C20   O14   A    
C13   C31   A    
C11   C34   A    
C15   C102  A    
C85   C110  S    
C14   C32   A    
N28   H19   S    
C15   C33   A    
C40   C64   A    
C15   C93   A    
N22   H8    S    
C106  N4    T    
C47   C64   A    
C22   O16   A    
Cu3   O22   S    
C69   C101  A    
C44   C61   A    
C56   C67   A    
C39   C63   A    
C105  N3    T    
C16   C94   A    
C82   C90   A    
C5    C57   A    
Cu1   O1    S    
C88   C113  S    
C1    C55   A    
C51   C78   A    
N25   H13   S    
N21   H5    S    
C2    C56   A    
C107  N5    T    
C76   C96   A    
Cu2   O2    S    
C28   O22   A    
C80   C115  S    
C29   O23   A    
C27   C39   S    
C60   C69   A    
C78   C94   A    
C24   C44   S    
C5    C35   A    
C77   C93   A    
Cu1   O12   S    
C6    C36   A    
C87   C114  S    
C4    C34   A    
C25   O19   A    
C70   C82   A    
C17   C100  A    
C68   C98   A    
Cu5   O8    S    
N25   H14   S    
C11   C51   A    
C92   C98   A    
C59   C70   A    
C27   O3    A    
C54   C75   A    
C30   O24   A    
C16   C101  A    
C89   C112  S    
C94   C102  A    
N27   H17   S    
C6    C42   A    
Cu4   O16   S    
Cu1   Cu2   S    
C42   C66   A    
C3    C33   A    
C49   C74   A    
C50   N20   S    
C17   C35   A    
C30   C38   S    
Cu6   O18   S    
C113  N11   T    
C111  N9    T    
C18   C36   A    
C28   O4    A    
C84   C117  S    
C43   C62   A    
C38   C62   A    
C82   C119  S    
C3    C59   A    
