data_mof_unit_36539.cif
_audit_creation_date              2012-12-11T14:33:46-0500
_audit_creation_method            fapswitch 2.2
_symmetry_space_group_name_H-M    P1
_symmetry_Int_Tables_number       1
_space_group_crystal_system       triclinic
_cell_length_a                    14.063832
_cell_length_b                    14.14194
_cell_length_c                    27.298118
_cell_angle_alpha                 89.952223
_cell_angle_beta                  90.215993
_cell_angle_gamma                 120.022779
_cell_volume                      4700.81175143

loop_
_atom_site_label
_atom_site_type_symbol
_atom_type_description
_atom_site_fract_x
_atom_site_fract_y
_atom_site_fract_z
_atom_type_partial_charge
C1    C     C_R   0.234190 0.787260 0.568358 0.546552
C2    C     C_1   0.690239 0.858773 0.863209 -0.042181
C3    C     C_1   0.124986 0.869108 0.854846 -0.040135
C4    C     C_1   0.159575 0.304621 0.862315 -0.033306
C5    C     C_1   0.632444 0.821222 0.658810 -0.036745
C6    C     C_1   0.179902 0.815650 0.656328 -0.042975
C7    C     C_1   0.182169 0.365333 0.658170 -0.032125
C8    C     C_1   0.604204 0.799653 0.616431 0.014451
C9    C     C_1   0.200728 0.805353 0.614812 0.010529
C10   C     C_1   0.193053 0.394562 0.615911 0.010070
C11   C     C_R   0.066324 0.152837 0.095910 0.563906
C12   C     C_R   0.212393 0.446530 0.568746 0.542231
C13   C     C_R   0.780182 0.885274 0.088881 0.537938
C14   C     C_R   0.115370 0.895277 0.088911 0.552934
C15   C     C_R   0.107295 0.220898 0.951251 0.570507
C16   C     C_R   0.779022 0.886631 0.951261 0.557433
C17   C     C_R   0.093734 0.925420 0.942859 0.572300
C18   C     C_R   0.579806 0.867412 0.355877 -0.170460
C19   C     C_R   0.120386 0.715794 0.358284 -0.160927
C20   C     C_R   0.275675 0.405833 0.355296 -0.166224
C21   C     C_R   0.612133 0.886938 0.307499 -0.013868
C22   C     C_R   0.102909 0.728981 0.309582 -0.019067
C23   C     C_R   0.553043 0.765728 0.568921 0.542754
C24   C     C_R   0.256098 0.359616 0.309025 0.002668
C25   C     C_R   0.662061 0.909395 0.207791 0.016857
C26   C     C_R   0.081018 0.754654 0.209481 0.015700
C27   C     C_R   0.217165 0.281373 0.212896 0.011603
C28   C     C_R   0.232528 0.787352 0.432080 0.571708
C29   C     C_R   0.211991 0.445403 0.431774 0.573777
C30   C     C_R   0.553553 0.766583 0.431737 0.577044
C31   C     C_R   0.592444 0.944544 0.226346 -0.131102
C32   C     C_R   0.032156 0.649925 0.229690 -0.133547
C33   C     C_R   0.324635 0.351510 0.228917 -0.146569
C34   C     C_3   0.656243 0.740436 0.791547 -0.259135
C35   C     C_R   0.567980 0.933852 0.276066 -0.128028
C36   C     C_R   0.043384 0.637099 0.279531 -0.126669
C37   C     C_R   0.343946 0.390970 0.276639 -0.130421
C38   C     C_R   0.683477 0.915291 0.157637 -0.153221
C39   C     C_R   0.073816 0.768668 0.159194 -0.149917
C40   C     C_R   0.197246 0.246625 0.164332 -0.135374
C41   C     C_R   0.751179 0.877332 0.140000 0.001964
C42   C     C_R   0.126768 0.873992 0.139810 0.001049
C43   C     C_R   0.089221 0.181689 0.147526 -0.002563
C44   C     C_R   0.688761 0.779292 0.369826 0.251693
C45   C     C_3   0.253398 0.939833 0.785252 -0.240468
C46   C     C_R   0.229251 0.913185 0.369705 0.255854
C47   C     C_R   0.081032 0.299294 0.374856 0.256079
C48   C     C_R   0.729773 0.806377 0.321583 0.053434
C49   C     C_R   0.208037 0.928671 0.320744 0.058051
C50   C     C_R   0.057965 0.254665 0.326798 0.056046
C51   C     C_R   0.685264 0.854415 0.289837 -0.021671
C52   C     C_R   0.149078 0.835191 0.290276 -0.026156
C53   C     C_R   0.147258 0.285987 0.294051 -0.009950
C54   C     C_R   0.811232 0.784683 0.303734 0.243828
C55   C     C_R   0.247329 0.034130 0.300843 0.245951
C56   C     C_3   0.078475 0.348675 0.790957 -0.250078
C57   C     C_R   0.949043 0.186051 0.309454 0.247686
C58   C     C_R   0.836111 0.797727 0.253674 -0.133663
C59   C     C_R   0.239309 0.044867 0.250340 -0.136804
C60   C     C_R   0.931829 0.148736 0.260732 -0.126801
C61   C     C_R   0.783542 0.834589 0.221965 -0.029131
C62   C     C_R   0.187431 0.952837 0.220337 -0.027645
C63   C     C_R   0.019902 0.179485 0.228889 -0.013952
C64   C     C_3   0.554909 0.850538 0.737293 0.469146
C65   C     C_3   0.145185 0.722312 0.738679 0.451940
C66   C     C_3   0.287252 0.437757 0.737093 0.431265
C67   C     C_3   0.654687 0.736731 0.734730 0.087966
C68   C     C_R   0.710821 0.866762 0.239950 0.041863
C69   C     C_R   0.138470 0.847528 0.240123 0.043411
C70   C     C_R   0.128083 0.247724 0.245509 0.054252
C71   C     C_R   0.803043 0.839858 0.172245 -0.124935
C72   C     C_R   0.183022 0.965283 0.170522 -0.125633
C73   C     C_R   0.001083 0.147146 0.179847 -0.135731
C74   C     C_R   0.612912 0.808873 0.386128 0.026183
C75   C     C_R   0.188810 0.806725 0.387292 0.026477
C76   C     C_R   0.188743 0.379893 0.387272 0.024464
C77   C     C_3   0.758896 0.938477 0.726305 -0.181883
C78   C     C_3   0.263354 0.931756 0.729133 0.107571
C79   C     C_3   0.060162 0.835530 0.715718 -0.187609
C80   C     C_3   0.164237 0.235905 0.725063 -0.191350
C81   C     C_3   0.769966 0.949195 0.783617 0.437194
C82   C     C_3   0.046378 0.851618 0.771208 0.433831
C83   C     C_3   0.156017 0.220535 0.782155 0.437053
C84   C     C_1   0.723994 0.869483 0.904788 0.003676
C85   C     C_1   0.110749 0.891990 0.895666 0.017091
C86   C     C_1   0.141261 0.272901 0.904196 0.001698
C87   C     C_3   0.648864 0.835898 0.712706 0.005974
C88   C     C_3   0.163105 0.825517 0.708707 0.059852
C89   C     C_3   0.075033 0.348948 0.733886 0.095173
C90   C     C_3   0.177374 0.348065 0.711987 0.029435
C91   C     C_3   0.564326 0.851230 0.794549 -0.083165
C92   C     C_3   0.133346 0.739168 0.794504 -0.092328
C93   C     C_3   0.280582 0.423328 0.794044 -0.098851
C94   C     C_3   0.669777 0.850543 0.809666 -0.021885
C95   C     C_3   0.138853 0.849786 0.802876 -0.005787
C96   C     C_3   0.169270 0.324642 0.808782 -0.003622
Cr1   Cr    Cr6+3 0.164410 0.584450 0.499910 1.074458
Cr2   Cr    Cr6+3 0.415550 0.579960 0.499910 1.065251
Cr3   Cr    Cr6+3 0.420040 0.835590 0.499910 1.059551
Cr4   Cr    Cr6+3 0.155170 0.075460 0.019960 1.020243
Cr5   Cr    Cr6+3 0.924540 0.079710 0.019960 1.026008
Cr6   Cr    Cr6+3 0.920290 0.844830 0.019960 1.025217
H1    H     H_    0.564974 0.924095 0.810338 0.175333
H2    H     H_    0.579248 0.671802 0.806849 0.149104
H3    H     H_    0.318380 0.930808 0.804522 0.171254
H4    H     H_    0.094811 0.428476 0.806153 0.152166
H5    H     H_    0.437230 0.774400 0.688953 0.337265
H6    H     H_    0.235880 0.684086 0.698546 0.337596
H7    H     H_    0.322507 0.557861 0.691240 0.330844
H8    H     H_    0.722835 0.727114 0.805714 0.145140
H9    H     H_    0.268497 0.022537 0.794935 0.142539
H10   H     H_    0.996550 0.287280 0.805351 0.148157
H11   H     H_    0.647186 0.947827 0.132473 0.107476
H12   H     H_    0.054508 0.671671 0.808934 0.173026
H13   H     H_    0.028262 0.698808 0.135320 0.111108
H14   H     H_    0.265629 0.273479 0.139285 0.126820
H15   H     H_    0.520374 0.889327 0.368643 0.143771
H16   H     H_    0.088626 0.633578 0.372217 0.155276
H17   H     H_    0.358774 0.467019 0.365479 0.138745
H18   H     H_    0.555623 0.978535 0.202349 0.115355
H19   H     H_    0.987120 0.578155 0.206868 0.117901
H20   H     H_    0.393501 0.377562 0.204254 0.112930
H21   H     H_    0.511976 0.959324 0.289719 0.116897
H22   H     H_    0.007208 0.555298 0.294457 0.133517
H23   H     H_    0.348714 0.411885 0.807882 0.178273
H24   H     H_    0.427561 0.447355 0.288053 0.119235
H25   H     H_    0.860247 0.815787 0.158568 0.137698
H26   H     H_    0.220936 0.047483 0.155823 0.131576
H27   H     H_    0.917829 0.097246 0.166392 0.119962
H28   H     H_    0.895793 0.777934 0.239351 0.111973
H29   H     H_    0.274208 0.125404 0.234361 0.106840
H30   H     H_    0.848892 0.098592 0.247123 0.113780
H31   H     H_    0.916520 0.736578 0.316392 0.330877
H32   H     H_    0.318875 0.191683 0.310522 0.327818
H33   H     H_    0.791087 0.114550 0.321045 0.329196
H34   H     H_    0.491425 0.778981 0.810561 0.130629
H35   H     H_    0.560041 0.952883 0.687106 0.328275
H36   H     H_    0.053898 0.616211 0.688081 0.338148
H37   H     H_    0.386329 0.441992 0.685220 0.340815
H38   H     H_    0.705113 0.654704 0.382383 0.355516
H39   H     H_    0.365792 0.042836 0.383332 0.352733
H40   H     H_    0.962942 0.185672 0.411268 0.367535
H41   H     H_    0.828564 0.933327 0.709910 0.097024
H42   H     H_    0.066467 0.904320 0.693319 0.079952
H43   H     H_    0.090466 0.169475 0.706403 0.083831
H44   H     H_    0.763682 0.012777 0.709886 0.181564
H45   H     H_    0.199402 0.736507 0.816034 0.128863
H46   H     H_    0.986284 0.761517 0.701284 0.191894
H47   H     H_    0.234753 0.229639 0.710582 0.182877
H48   H     H_    0.804165 0.065963 0.831127 0.354968
H49   H     H_    0.928291 0.781471 0.819583 0.342147
H50   H     H_    0.220148 0.164614 0.830085 0.356972
H51   H     H_    0.863612 0.886405 0.784832 0.358063
H52   H     H_    0.114781 0.008608 0.759617 0.339650
H53   H     H_    0.995985 0.137509 0.776774 0.345092
H54   H     H_    0.502200 0.625496 0.731982 0.405087
H55   H     H_    0.421027 0.012051 0.721823 0.353849
H56   H     H_    0.291172 0.498371 0.812364 0.126162
H57   H     H_    0.120266 0.502463 0.731506 0.401737
H58   H     H_    0.732986 0.742512 0.722635 0.186506
H59   H     H_    0.263648 0.003249 0.711470 0.107421
H60   H     H_    0.000083 0.272769 0.721941 0.168299
O1    O     O_R   0.137150 0.468200 0.553200 -0.482692
O2    O     O_R   0.140110 0.470540 0.446010 -0.458639
O3    O     O_R   0.529460 0.669570 0.446010 -0.472554
O4    O     O_R   0.330430 0.859890 0.446010 -0.476627
O5    O     O_R   0.176710 0.690910 0.450560 -0.517315
O6    O     O_R   0.309090 0.485800 0.450560 -0.516957
O7    O     O_R   0.514200 0.823290 0.450560 -0.517603
O8    O     O_3   0.333333 0.666667 0.499990 -0.308390
O9    O     O_R   0.176750 0.985260 0.074180 -0.526648
O10   O     O_R   0.014740 0.191490 0.074180 -0.496394
O11   O     O_R   0.808510 0.823250 0.074180 -0.515966
O12   O     O_R   0.531800 0.668950 0.553200 -0.481031
O13   O     O_R   0.146100 0.172630 0.068980 -0.502342
O14   O     O_R   0.827370 0.973470 0.068980 -0.520872
O15   O     O_R   0.026530 0.853900 0.068980 -0.495654
O16   O     O_3   0.000000 1.000000 0.020040 -0.270201
O17   O     O_R   0.148270 0.170520 0.969620 -0.505939
O18   O     O_R   0.829480 0.977750 0.969620 -0.493215
O19   O     O_R   0.022250 0.851730 0.969620 -0.488818
O20   O     O_3   0.450385 0.765196 0.723900 -0.618989
O21   O     O_3   0.235225 0.705971 0.732998 -0.599247
O22   O     O_3   0.306007 0.543169 0.726634 -0.676781
O23   O     O_R   0.331050 0.862850 0.553200 -0.488628
O24   O     O_3   0.866996 0.753194 0.335444 -0.665736
O25   O     O_3   0.292347 0.125163 0.330816 -0.668238
O26   O     O_3   0.860275 0.161543 0.339160 -0.673746
O27   O     O_3   0.565242 0.951412 0.723329 -0.658498
O28   O     O_3   0.047669 0.628201 0.723443 -0.675501
O29   O     O_3   0.377007 0.427443 0.720936 -0.666944
O30   O     O_3   0.716756 0.720047 0.400831 -0.616357
O31   O     O_3   0.294167 0.999772 0.400091 -0.610360
O32   O     O_3   0.001175 0.266549 0.410268 -0.622606
O33   O     O_3   0.775871 0.048294 0.797021 -0.671126
O34   O     O_R   0.179100 0.982980 0.967000 -0.505645
O35   O     O_3   0.942450 0.766214 0.785743 -0.691067
O36   O     O_3   0.239960 0.200010 0.797399 -0.693527
O37   O     O_3   0.866368 0.951906 0.798727 -0.625376
O38   O     O_3   0.051018 0.951942 0.777979 -0.627843
O39   O     O_3   0.053713 0.131375 0.794962 -0.608376
O40   O     O_3   0.570629 0.636477 0.717083 -0.649098
O41   O     O_3   0.361990 0.934815 0.717845 -0.624613
O42   O     O_3   0.063074 0.435140 0.715724 -0.654317
O43   O     O_R   0.017020 0.196120 0.967000 -0.496072
O44   O     O_R   0.803880 0.820900 0.967000 -0.510329
O45   O     O_R   0.173970 0.688730 0.549930 -0.500049
O46   O     O_R   0.311270 0.485240 0.549930 -0.500954
O47   O     O_R   0.514760 0.826030 0.549930 -0.502353

loop_
_geom_bond_atom_site_label_1
_geom_bond_atom_site_label_2
_ccdc_geom_bond_type
C25   C31   A    
C13   O14   A    
C26   C32   A    
C15   O17   A    
C65   C92   S    
C18   C21   A    
C55   C59   A    
H49   O35   S    
C47   O32   S    
C2    C84   T    
C21   C51   A    
C83   O39   S    
Cr4   O16   S    
C60   H30   S    
C6    C9    T    
C13   C41   S    
C64   O27   S    
C66   C90   S    
C29   C76   S    
C27   C33   A    
Cr6   O11   S    
C13   O11   A    
C46   C49   A    
C59   H29   S    
C72   H26   S    
C60   C63   A    
C17   C85   S    
C12   O46   A    
C29   O6    A    
C36   H22   S    
C47   C76   A    
H37   O29   S    
Cr3   O47   S    
C30   C74   S    
C26   C39   A    
C4    C86   T    
C16   O18   A    
C16   C84   S    
C8    C23   S    
C6    C88   S    
C20   C76   A    
Cr5   O10   S    
C7    C10   T    
C79   C88   S    
C57   O26   S    
Cr5   O16   S    
C28   O5    A    
C4    C96   S    
C43   C73   A    
C40   C43   A    
C91   H34   S    
C20   C24   A    
C19   H16   S    
Cr1   O1    S    
Cr2   O12   S    
C11   C43   S    
C45   C78   S    
C52   C69   A    
C55   O25   S    
C39   C42   A    
C64   C87   S    
C28   O4    A    
C41   C71   A    
Cr3   O4    S    
C64   O20   S    
C61   C71   A    
C58   C61   A    
H54   O40   S    
C11   O10   A    
C18   C74   A    
C92   H45   S    
Cr6   O19   S    
C29   O2    A    
Cr2   O46   S    
H36   O28   S    
C25   C68   A    
C80   C83   S    
C53   C70   A    
C10   C12   S    
C46   C75   A    
C45   H3    S    
C47   C50   A    
Cr4   O34   S    
C80   H47   S    
C31   H18   S    
C73   H27   S    
C48   C51   A    
C50   C53   A    
H5    O20   S    
H50   O36   S    
Cr2   O3    S    
C2    C94   S    
C19   C22   A    
C1    C9    S    
C78   O41   S    
C38   C41   A    
C23   O12   A    
C38   H11   S    
C57   C60   A    
C63   C73   A    
C24   C53   A    
Cr1   O5    S    
C7    C90   S    
C92   C95   S    
C33   C37   A    
Cr1   O8    S    
C62   C69   A    
C67   C87   S    
C5    C87   S    
C48   C54   A    
C77   H41   S    
C30   O7    A    
C82   O38   S    
C25   C38   A    
C81   O33   S    
H52   O38   S    
H51   O37   S    
Cr4   O9    S    
C79   H42   S    
C63   C70   A    
C77   C81   S    
C27   C40   A    
C49   C52   A    
C66   O29   S    
Cr4   O13   S    
C42   C72   A    
C24   C37   A    
H40   O32   S    
C62   C72   A    
H39   O31   S    
Cr1   O45   S    
C83   O36   S    
C44   C74   A    
Cr6   O44   S    
C18   H15   S    
C56   H4    S    
C67   H58   S    
C27   C70   A    
Cr5   O43   S    
H31   O24   S    
C82   O35   S    
C15   C86   S    
H35   O27   S    
H55   O41   S    
H7    O22   S    
C56   C89   S    
C93   C96   S    
C39   H13   S    
C66   C93   S    
C33   H20   S    
C34   H8    S    
C31   C35   A    
C3    C85   T    
C34   H2    S    
H38   O30   S    
C45   C95   S    
C32   C36   A    
C89   H60   S    
Cr3   O23   S    
C22   C36   A    
C65   C88   S    
C22   C52   A    
C37   H24   S    
C65   O21   S    
C78   C88   S    
C56   C96   S    
C66   O22   S    
C80   H43   S    
C59   C62   A    
C82   C95   S    
H6    O21   S    
C50   C57   A    
C11   O13   A    
H32   O25   S    
C34   C94   S    
C30   O3    A    
C91   H1    S    
C14   O9    A    
Cr5   O14   S    
C34   C67   S    
C81   O37   S    
C79   C82   S    
C46   O31   S    
C45   H9    S    
C79   H46   S    
Cr3   O7    S    
C1    O23   A    
C23   O47   A    
C16   O44   A    
C71   H25   S    
C14   C42   S    
Cr1   O2    S    
Cr3   O8    S    
C35   H21   S    
C21   C35   A    
Cr5   O18   S    
C49   C55   A    
C44   O30   S    
C91   C94   S    
C81   C94   S    
Cr4   O17   S    
C61   C68   A    
H57   O42   S    
C40   H14   S    
C58   H28   S    
Cr6   O16   S    
C83   C96   S    
C15   O43   A    
C19   C75   A    
C51   C68   A    
C80   C90   S    
C93   H56   S    
C1    O45   A    
C93   H23   S    
H48   O33   S    
C14   O15   A    
Cr2   O8    S    
C17   O19   A    
C89   O42   S    
C54   C58   A    
C65   O28   S    
C77   C87   S    
C78   H59   S    
C54   O24   S    
C67   O40   S    
Cr6   O15   S    
C5    C8    T    
C32   H19   S    
C17   O34   A    
C3    C95   S    
C26   C69   A    
C64   C91   S    
C89   C90   S    
H53   O39   S    
C28   C75   S    
C92   H12   S    
C77   H44   S    
C56   H10   S    
C20   H17   S    
Cr2   O6    S    
C44   C48   A    
C12   O1    A    
H33   O26   S    
