data_mof_unit_36864.cif
_audit_creation_date              2012-12-11T15:34:50-0500
_audit_creation_method            fapswitch 2.2
_symmetry_space_group_name_H-M    P1
_symmetry_Int_Tables_number       1
_space_group_crystal_system       triclinic
_cell_length_a                    30.561011
_cell_length_b                    7.246278
_cell_length_c                    25.944219
_cell_angle_alpha                 90.000368
_cell_angle_beta                  112.074692
_cell_angle_gamma                 89.998421
_cell_volume                      5324.26912479

loop_
_atom_site_label
_atom_site_type_symbol
_atom_type_description
_atom_site_fract_x
_atom_site_fract_y
_atom_site_fract_z
_atom_type_partial_charge
O1    O     O_R   0.295360 0.592990 0.320420 -0.533391
O2    O     O_R   0.704640 0.407010 0.679580 -0.533451
O3    O     O_R   0.204640 0.092990 0.179580 -0.533390
O4    O     O_R   0.795360 0.907010 0.820420 -0.533451
O5    O     O_R   0.294060 0.265620 0.213230 -0.540505
O6    O     O_R   0.705940 0.734380 0.786770 -0.540411
O7    O     O_R   0.205940 0.765620 0.286770 -0.540506
O8    O     O_R   0.794060 0.234380 0.713230 -0.540409
C1    C     C_R   0.304228 0.432375 0.199589 0.703155
C2    C     C_R   0.695888 0.567574 0.800588 0.703423
C3    C     C_R   0.195771 0.932378 0.300410 0.703148
C4    C     C_R   0.804112 0.067570 0.699413 0.703417
O9    O     O_R   0.300850 0.263360 0.322080 -0.533411
O10   O     O_R   0.699150 0.736640 0.677920 -0.533220
O11   O     O_R   0.199150 0.763360 0.177920 -0.533408
O12   O     O_R   0.800850 0.236640 0.822080 -0.533217
O13   O     O_R   0.211480 0.091820 0.289210 -0.538848
O14   O     O_R   0.788520 0.908180 0.710790 -0.539332
O15   O     O_R   0.288520 0.591820 0.210790 -0.538841
O16   O     O_R   0.711480 0.408180 0.789210 -0.539325
C5    C     C_R   0.313279 0.431433 0.343248 0.697477
C6    C     C_R   0.686728 0.568568 0.656745 0.697685
C7    C     C_R   0.186722 0.931436 0.156752 0.697476
C8    C     C_R   0.813271 0.068566 0.843255 0.697683
O17   O     O_3   0.220670 0.426670 0.239090 -0.374473
O18   O     O_3   0.779330 0.573330 0.760910 -0.374517
O19   O     O_3   0.279330 0.926670 0.260910 -0.374469
O20   O     O_3   0.720670 0.073330 0.739090 -0.374515
V1    V     V_3+5 0.255440 0.152290 0.252020 1.434597
V2    V     V_3+5 0.744560 0.847710 0.747980 1.434291
V3    V     V_3+5 0.244560 0.652290 0.247980 1.434597
V4    V     V_3+5 0.755440 0.347710 0.752020 1.434295
C9    C     C_R   0.850104 0.064083 0.899739 -0.054325
C10   C     C_R   0.149876 0.935916 0.100278 -0.054251
C11   C     C_R   0.649895 0.564095 0.600261 -0.054334
C12   C     C_R   0.350125 0.435904 0.399722 -0.054261
C13   C     C_R   0.872662 0.115324 0.998544 -0.025704
C14   C     C_R   0.127294 0.884640 0.001475 -0.026067
C15   C     C_R   0.627332 0.615432 0.501459 -0.025708
C16   C     C_R   0.372712 0.384537 0.498522 -0.026063
C17   C     C_R   0.838661 0.118901 0.944583 -0.195720
C18   C     C_R   0.161304 0.881051 0.055428 -0.195544
C19   C     C_R   0.661334 0.618977 0.555419 -0.195709
C20   C     C_R   0.338701 0.380978 0.444570 -0.195537
C21   C     C_R   0.896932 0.017149 0.908591 -0.195590
C22   C     C_R   0.103053 0.982879 0.091445 -0.195767
C23   C     C_R   0.603070 0.517127 0.591407 -0.195596
C24   C     C_R   0.396946 0.482904 0.408557 -0.195776
C25   C     C_R   0.933744 0.034486 0.961994 0.073755
C26   C     C_R   0.066230 0.965571 0.038048 0.073849
C27   C     C_R   0.566255 0.534496 0.538006 0.073755
C28   C     C_R   0.433770 0.465566 0.461951 0.073848
C29   C     C_R   0.920036 0.067258 0.007771 0.075541
C30   C     C_R   0.079929 0.932777 0.992263 0.075374
C31   C     C_R   0.579961 0.567334 0.492231 0.075542
C32   C     C_R   0.420075 0.432706 0.507736 0.075377
C33   C     C_R   0.983216 0.011746 0.971921 0.010250
C34   C     C_R   0.016759 0.988361 0.028130 0.010379
C35   C     C_R   0.516784 0.511729 0.528080 0.010250
C36   C     C_R   0.483240 0.488384 0.471869 0.010376
C37   C     C_R   0.999018 0.984295 0.071693 -0.050381
C38   C     C_R   0.000956 0.015874 0.928360 -0.051085
C39   C     C_R   0.500980 0.484383 0.428305 -0.050378
C40   C     C_R   0.499046 0.515791 0.571642 -0.051075
C41   C     C_R   0.952890 0.038897 0.061761 -0.213671
C42   C     C_R   0.047075 0.961214 0.938278 -0.212787
C43   C     C_R   0.547105 0.539010 0.438239 -0.213673
C44   C     C_R   0.452929 0.461107 0.561722 -0.212806
H1    H     H_    0.941671 0.044812 0.096734 0.145535
H2    H     H_    0.058290 0.955332 0.903302 0.146197
H3    H     H_    0.558323 0.544977 0.403266 0.145533
H4    H     H_    0.441716 0.455175 0.596698 0.146183
H5    H     H_    0.096731 0.037993 0.126576 0.123811
H6    H     H_    0.903269 0.962050 0.873467 0.123824
H7    H     H_    0.403264 0.538061 0.373429 0.123819
H8    H     H_    0.596736 0.461984 0.626528 0.123832
H9    H     H_    0.197329 0.841320 0.062422 0.113418
H10   H     H_    0.802630 0.158591 0.937577 0.113567
H11   H     H_    0.302678 0.341217 0.437574 0.113431
H12   H     H_    0.697363 0.658695 0.562427 0.113579
C45   C     C_R   0.075294 0.844198 0.461231 0.570094
C46   C     C_R   0.918375 0.144449 0.531244 0.566416
C47   C     C_R   0.424700 0.344144 0.038762 0.570075
C48   C     C_R   0.581589 0.644526 0.968722 0.566373
N1    N     N_R   0.071191 0.972272 0.420942 -0.548381
N2    N     N_R   0.924264 0.021021 0.573280 -0.547523
N3    N     N_R   0.428793 0.472247 0.079041 -0.548377
N4    N     N_R   0.575723 0.521049 0.926705 -0.547517
C49   C     C_R   0.037357 0.107744 0.408147 0.548526
C50   C     C_R   0.957031 0.882059 0.584215 0.557204
C51   C     C_R   0.462612 0.607765 0.091820 0.548573
C52   C     C_R   0.542970 0.382044 0.915774 0.557265
C53   C     C_R   0.005059 0.117371 0.435957 -0.047137
C54   C     C_R   0.984294 0.857899 0.550753 -0.047863
C55   C     C_R   0.494912 0.617384 0.064013 -0.047166
C56   C     C_R   0.515687 0.357903 0.949217 -0.047796
C57   C     C_R   0.010251 0.987010 0.478809 -0.041029
C58   C     C_R   0.980587 0.993466 0.509839 -0.042709
C59   C     C_R   0.489728 0.487006 0.021166 -0.041026
C60   C     C_R   0.519388 0.493479 0.990131 -0.042667
C61   C     C_R   0.044690 0.847677 0.490275 -0.053477
C62   C     C_R   0.946699 0.134269 0.499318 -0.052240
C63   C     C_R   0.455299 0.347648 0.009710 -0.053503
C64   C     C_R   0.553263 0.634329 0.000644 -0.052229
C65   C     C_R   0.967510 0.248902 0.422676 0.071278
C66   C     C_R   0.015183 0.705195 0.556424 0.078913
C67   C     C_R   0.532451 0.748942 0.077288 0.071286
C68   C     C_R   0.484784 0.205228 0.943530 0.078761
C69   C     C_R   0.940422 0.258922 0.455895 -0.182377
C70   C     C_R   0.046365 0.707785 0.528270 -0.182954
C71   C     C_R   0.559530 0.759001 0.044060 -0.182246
C72   C     C_R   0.453616 0.207784 0.971705 -0.182947
O21   O     O_2   0.109193 0.713617 0.473442 -0.529579
O22   O     O_2   0.884850 0.276219 0.519952 -0.532918
O23   O     O_2   0.390817 0.213514 0.026570 -0.529573
O24   O     O_2   0.615095 0.776360 0.980000 -0.532913
O25   O     O_2   0.035499 0.232112 0.368845 -0.540074
O26   O     O_2   0.964409 0.773362 0.628823 -0.537921
O27   O     O_2   0.464450 0.732198 0.131097 -0.540060
O28   O     O_2   0.535633 0.273269 0.871193 -0.537986
H13   H     H_    0.913189 0.363606 0.446605 0.170566
H14   H     H_    0.070582 0.593190 0.534134 0.170274
H15   H     H_    0.586756 0.863708 0.053346 0.170554
H16   H     H_    0.429389 0.093226 0.965827 0.170291
C73   C     C_R   0.866390 0.883501 0.607855 -0.087309
C74   C     C_R   0.132321 0.110417 0.391562 -0.077957
C75   C     C_R   0.633631 0.383565 0.892173 -0.087280
C76   C     C_R   0.367640 0.610341 0.108391 -0.077945
H17   H     H_    0.866603 0.757779 0.585375 0.141627
H18   H     H_    0.132424 0.233283 0.415373 0.148101
H19   H     H_    0.633434 0.257873 0.914673 0.141681
H20   H     H_    0.367514 0.733161 0.084553 0.148120
C77   C     C_R   0.837542 0.894364 0.638703 -0.197027
C78   C     C_R   0.162235 0.101206 0.361934 -0.200688
C79   C     C_R   0.662481 0.394420 0.861327 -0.197040
C80   C     C_R   0.337729 0.601136 0.138024 -0.200684
H21   H     H_    0.816161 0.775723 0.639228 0.133887
H22   H     H_    0.184819 0.218083 0.363609 0.133805
H23   H     H_    0.683879 0.275804 0.860825 0.133879
H24   H     H_    0.315124 0.717971 0.136323 0.133796
C81   C     C_R   0.835669 0.056910 0.667567 -0.052832
C82   C     C_R   0.163529 0.942124 0.331342 -0.053557
C83   C     C_R   0.664332 0.556926 0.832435 -0.052834
C84   C     C_R   0.336466 0.442111 0.168652 -0.053560
C85   C     C_R   0.863803 0.207941 0.665053 -0.175890
C86   C     C_R   0.133841 0.793059 0.330848 -0.173164
C87   C     C_R   0.636178 0.707928 0.834921 -0.175894
C88   C     C_R   0.366179 0.293093 0.169177 -0.173151
H25   H     H_    0.863419 0.334869 0.686910 0.143474
H26   H     H_    0.133694 0.668997 0.307511 0.145074
H27   H     H_    0.636546 0.834826 0.813043 0.143492
H28   H     H_    0.366349 0.169078 0.192544 0.145092
C89   C     C_R   0.893184 0.196003 0.634656 -0.089299
C90   C     C_R   0.103415 0.803552 0.359858 -0.094300
C91   C     C_R   0.606794 0.695995 0.865315 -0.089286
C92   C     C_R   0.396600 0.303581 0.140161 -0.094296
H29   H     H_    0.914881 0.313185 0.633761 0.137591
H30   H     H_    0.080421 0.688157 0.358268 0.146996
H31   H     H_    0.585079 0.813150 0.866184 0.137614
H32   H     H_    0.419614 0.188225 0.141775 0.147011
C93   C     C_R   0.894597 0.033774 0.605552 0.369291
C94   C     C_R   0.102488 0.962052 0.390682 0.366568
C95   C     C_R   0.605401 0.533804 0.894444 0.369284
C96   C     C_R   0.397499 0.462026 0.109302 0.366566
C97   C     C_1   0.857763 0.162640 0.043606 0.299579
N5    N     N_1   0.845810 0.200569 0.079635 -0.325589
C98   C     C_1   0.142176 0.837266 0.956403 0.299806
N6    N     N_1   0.154116 0.799291 0.920367 -0.323910
C99   C     C_1   0.642227 0.662817 0.456400 0.299585
N7    N     N_1   0.654178 0.700801 0.420373 -0.325583
C100  C     C_1   0.357833 0.337097 0.543591 0.299795
N8    N     N_1   0.345896 0.299067 0.579625 -0.323953
C101  C     C_1   0.024136 0.902541 0.125672 0.304612
N9    N     N_1   0.043891 0.836591 0.168878 -0.355272
C102  C     C_1   0.975847 0.097800 0.874405 0.305763
N10   N     N_1   0.956098 0.163893 0.831220 -0.351839
C103  C     C_1   0.475863 0.402674 0.374319 0.304608
N11   N     N_1   0.456109 0.336761 0.331107 -0.355300
C104  C     C_1   0.524154 0.597673 0.625604 0.305740
N12   N     N_1   0.543903 0.663730 0.668794 -0.351880
C105  C     C_3   0.951994 0.372996 0.371818 -0.298460
C106  C     C_3   0.977872 0.558563 0.384588 -0.291200
C107  C     C_3   0.966073 0.674496 0.332008 -0.719291
H33   H     H_    0.977731 0.602556 0.301567 0.249376
H34   H     H_    0.927470 0.700520 0.312868 0.231422
H35   H     H_    0.984563 0.809082 0.342501 0.216915
H36   H     H_    0.967048 0.635472 0.414924 0.190489
H37   H     H_    0.016639 0.536936 0.403375 0.237039
H38   H     H_    0.955514 0.302492 0.335654 0.218608
H39   H     H_    0.913442 0.400801 0.357822 0.157406
C108  C     C_3   0.012245 0.525857 0.585155 -0.318454
C109  C     C_3   0.050284 0.514194 0.643847 -0.279732
C110  C     C_3   0.045385 0.335887 0.672573 -0.704464
H40   H     H_    0.010595 0.331505 0.676920 0.238868
H41   H     H_    0.048600 0.214120 0.648188 0.224610
H42   H     H_    0.073674 0.328901 0.714660 0.228692
H43   H     H_    0.085813 0.517614 0.641375 0.192193
H44   H     H_    0.047527 0.633658 0.669265 0.240490
H45   H     H_    0.976436 0.503790 0.585476 0.216659
H46   H     H_    0.017267 0.408301 0.560335 0.160411
C111  C     C_3   0.547974 0.872993 0.128156 -0.298510
C112  C     C_3   0.522116 0.058608 0.115394 -0.291144
C113  C     C_3   0.533918 0.174522 0.167979 -0.719339
H47   H     H_    0.522228 0.102636 0.198401 0.249358
H48   H     H_    0.572526 0.200422 0.187143 0.231436
H49   H     H_    0.515458 0.309173 0.157484 0.216890
H50   H     H_    0.532954 0.135504 0.085067 0.190486
H51   H     H_    0.483348 0.037040 0.096599 0.237080
H52   H     H_    0.544440 0.802487 0.164312 0.218596
H53   H     H_    0.586530 0.900719 0.142161 0.157411
C114  C     C_3   0.487638 0.026027 0.914685 -0.318316
C115  C     C_3   0.449637 0.015058 0.855952 -0.279552
C116  C     C_3   0.454478 0.837022 0.827067 -0.704421
H54   H     H_    0.489336 0.832323 0.822894 0.238876
H55   H     H_    0.451048 0.715015 0.851235 0.224576
H56   H     H_    0.426293 0.830816 0.784898 0.228682
H57   H     H_    0.414091 0.018597 0.858373 0.192134
H58   H     H_    0.452478 0.134762 0.830664 0.240451
H59   H     H_    0.523454 0.003705 0.914411 0.216661
H60   H     H_    0.482507 0.908325 0.939385 0.160321

loop_
_geom_bond_atom_site_label_1
_geom_bond_atom_site_label_2
_ccdc_geom_bond_type
O17   V3    S    
C59   C63   A    
C113  H47   S    
C25   C29   A    
O1    C5    A    
C97   N5    T    
N3    C51   A    
O19   V1    S    
C9    C21   A    
C99   N7    T    
C82   C86   A    
O3    C7    A    
C10   C18   A    
O1    V3    S    
C77   H21   S    
C80   H24   S    
C11   C23   A    
C11   C19   A    
C57   C58   A    
C25   C33   A    
C33   C38   A    
C5    C12   S    
C45   C61   A    
C101  N9    T    
C79   H23   S    
C6    C11   S    
C113  H48   S    
C35   C40   A    
C26   C30   A    
C47   C63   A    
C36   C39   A    
C50   O26   S    
O9    V1    S    
C108  H45   S    
C23   H8    S    
C14   C18   A    
C74   C94   A    
C107  H34   S    
C66   C70   A    
O4    C8    A    
C55   C59   A    
C44   H4    S    
C115  H57   S    
C54   C58   A    
C52   C56   A    
O13   V1    S    
C4    C81   S    
O2    V4    S    
C111  C112  S    
C32   C44   A    
O3    V1    S    
C106  C107  S    
C28   C36   A    
C53   C65   A    
C86   H26   S    
C105  H38   S    
C1    O15   A    
C60   C64   A    
C15   C31   A    
C114  C115  S    
C74   H18   S    
C2    O16   A    
C16   C32   A    
C86   C90   A    
O2    C6    A    
C10   C22   A    
C109  H44   S    
C87   C91   A    
C16   C20   A    
C43   H3    S    
C110  H40   S    
C81   C85   A    
C106  H36   S    
C13   C29   A    
C7    C10   S    
C34   C37   A    
O11   C7    A    
N3    C96   S    
C56   C68   A    
O15   V3    S    
C35   C36   A    
O12   C8    A    
C13   C17   A    
C49   C53   A    
N1    C94   S    
C24   H7    S    
C66   C108  S    
O10   V2    S    
C76   H20   S    
C111  H52   S    
C1    C84   S    
C50   C54   A    
O5    V1    S    
C116  H55   S    
C76   C96   A    
C14   C98   S    
C113  H49   S    
C39   C43   A    
O7    V3    S    
C112  C113  S    
C38   C42   A    
C38   C102  S    
C71   H15   S    
C108  C109  S    
C26   C34   A    
C47   O23   S    
C92   H32   S    
C37   C101  S    
C108  H46   S    
C46   O22   S    
N2    C50   A    
C107  H35   S    
C17   H10   S    
C40   C104  S    
N1    C49   A    
O18   V4    S    
C23   C27   A    
C110  H41   S    
C19   H12   S    
C105  C106  S    
C91   H31   S    
O4    V2    S    
C68   C72   A    
C89   C93   A    
C21   H6    S    
O8    V4    S    
O7    C3    A    
C107  H33   S    
O5    C1    A    
C114  H60   S    
C73   H17   S    
C78   C82   A    
C105  H39   S    
C53   C57   A    
C31   C43   A    
C102  N10   T    
C14   C30   A    
C116  H54   S    
O8    C4    A    
C110  H42   S    
N4    C52   A    
C21   C25   A    
C46   C62   A    
O9    C5    A    
N2    C93   S    
C13   C97   S    
C109  H43   S    
O11   V3    S    
C61   C70   A    
C100  N8    T    
C92   C96   A    
C55   C67   A    
O14   V2    S    
O6    V2    S    
C49   O25   S    
C83   C87   A    
C112  H50   S    
C48   C64   A    
C80   C84   A    
C51   O27   S    
C12   C20   A    
C27   C35   A    
C45   O21   S    
C40   C44   A    
C111  H53   S    
C98   N6    T    
C68   C114  S    
C29   C41   A    
O16   V4    S    
C116  H56   S    
C73   C77   A    
C85   C89   A    
C65   C69   A    
C3    O13   A    
C75   C95   A    
C67   C71   A    
C57   C61   A    
C90   C94   A    
C20   H11   S    
C73   C93   A    
C88   H28   S    
C75   C79   A    
C47   N3    A    
C78   H22   S    
C64   C71   A    
C15   C19   A    
C72   H16   S    
C30   C42   A    
O12   V4    S    
N4    C95   S    
C114  H59   S    
C22   C26   A    
C77   C81   A    
C8    C9    S    
C39   C103  S    
C59   C60   A    
C91   C95   A    
C109  C110  S    
O10   C6    A    
C76   C80   A    
C52   O28   S    
C9    C17   A    
C15   C99   S    
C58   C62   A    
C70   H14   S    
C46   N2    A    
C69   H13   S    
C33   C34   A    
C42   H2    S    
C48   N4    A    
C115  H58   S    
C41   H1    S    
C87   H27   S    
C56   C60   A    
O20   V2    S    
C79   C83   A    
C12   C24   A    
C27   C31   A    
C2    C83   S    
C22   H5    S    
C67   C111  S    
C89   H29   S    
C3    C82   S    
C75   H19   S    
C54   C66   A    
O6    C2    A    
C51   C55   A    
C104  N12   T    
C37   C41   A    
C24   C28   A    
C115  C116  S    
C74   C78   A    
C18   H9    S    
C48   O24   S    
C103  N11   T    
C4    O14   A    
C90   H30   S    
C85   H25   S    
C63   C72   A    
C62   C69   A    
C112  H51   S    
C88   C92   A    
C65   C105  S    
C106  H37   S    
C16   C100  S    
C45   N1    A    
C28   C32   A    
C84   C88   A    
