data_mof_unit_5985.cif
_audit_creation_date              2012-12-11T14:06:48-0500
_audit_creation_method            fapswitch 2.2
_symmetry_space_group_name_H-M    P1
_symmetry_Int_Tables_number       1
_space_group_crystal_system       triclinic
_cell_length_a                    6.926573
_cell_length_b                    17.287354
_cell_length_c                    24.096253
_cell_angle_alpha                 104.501113
_cell_angle_beta                  90.276084
_cell_angle_gamma                 89.972621
_cell_volume                      2793.38437735

loop_
_atom_site_label
_atom_site_type_symbol
_atom_type_description
_atom_site_fract_x
_atom_site_fract_y
_atom_site_fract_z
_atom_type_partial_charge
O1    O     O_R   0.494290 0.391990 0.999150 -0.534999
O2    O     O_R   0.827170 0.534410 0.082350 -0.540817
O3    O     O_R   0.994360 0.608010 0.000850 -0.535035
C1    C     C_R   0.658438 0.550156 0.106095 0.717216
O4    O     O_R   0.824210 0.388010 0.004470 -0.546279
O5    O     O_R   0.991370 0.460560 0.922410 -0.540662
C2    C     C_R   0.654543 0.354886 0.001501 0.774211
O6    O     O_R   0.497270 0.539440 0.077590 -0.541469
O7    O     O_3   0.659770 0.523970 0.973170 -0.372236
V1    V     V_3+5 0.935840 0.495550 0.004980 1.416408
O8    O     O_R   0.320910 0.465590 0.917650 -0.543610
C3    C     C_R   0.151699 0.450056 0.893878 0.706684
O9    O     O_R   0.323870 0.611990 0.995530 -0.546515
C4    C     C_R   0.154393 0.645125 0.998533 0.775570
V2    V     V_3+5 0.435470 0.504450 0.995020 1.413400
O10   O     O_3   0.161670 0.476030 0.026830 -0.370692
C5    C     C_2   0.142776 0.730281 0.998124 -0.339948
H1    H     H_    0.277186 0.761131 0.994759 0.149865
C6    C     C_2   0.972787 0.769776 0.002047 -0.336499
H2    H     H_    0.838378 0.738926 0.005416 0.150130
C7    C     C_R   0.013169 0.253778 0.626833 0.576883
N1    N     N_R   0.106044 0.325271 0.648412 -0.558863
C8    C     C_R   0.186386 0.366457 0.612341 0.576125
C9    C     C_R   0.174794 0.336195 0.552377 -0.023228
C10   C     C_R   0.078487 0.263277 0.529769 -0.016141
C11   C     C_R   0.996927 0.221550 0.567183 -0.026084
C12   C     C_R   0.255945 0.377275 0.514573 -0.149210
C13   C     C_R   0.241213 0.346478 0.455224 -0.145755
C14   C     C_R   0.144587 0.273918 0.432174 -0.030023
C15   C     C_R   0.063214 0.232119 0.469610 -0.014963
C16   C     C_R   0.966227 0.159314 0.447020 -0.023928
C17   C     C_R   0.886142 0.117993 0.484799 -0.151013
C18   C     C_R   0.901350 0.148712 0.544129 -0.140454
C19   C     C_R   0.126005 0.242163 0.372531 0.573663
N2    N     N_R   0.029289 0.171686 0.351180 -0.556245
C20   C     C_R   0.951252 0.129884 0.387086 0.569223
O11   O     O_2   0.937978 0.213526 0.662940 -0.515137
O12   O     O_2   0.275283 0.436982 0.634315 -0.516370
H3    H     H_    0.330851 0.433471 0.530691 0.162420
H4    H     H_    0.305204 0.379903 0.427494 0.177305
O13   O     O_2   0.202964 0.281619 0.336194 -0.509611
O14   O     O_2   0.859073 0.060190 0.364886 -0.517997
H5    H     H_    0.837481 0.115236 0.571844 0.178138
C21   C     C_R   0.157088 0.096088 0.258372 -0.107007
H6    H     H_    0.286342 0.083550 0.280032 0.147626
C22   C     C_R   0.140452 0.066766 0.198990 -0.268227
H7    H     H_    0.257419 0.031299 0.176001 0.154486
C23   C     C_R   0.974829 0.082150 0.169508 -0.098595
C24   C     C_R   0.824351 0.128444 0.201082 0.174407
C25   C     C_R   0.840951 0.157626 0.261221 0.170992
C26   C     C_R   0.008416 0.141310 0.289919 0.320470
C27   C     C_R   0.949619 0.377589 0.742493 -0.080595
C28   C     C_R   0.960560 0.407813 0.802034 -0.195730
H8    H     H_    0.827631 0.422216 0.825840 0.130895
C29   C     C_R   0.140600 0.419222 0.830372 -0.058308
C30   C     C_R   0.309333 0.399796 0.797392 -0.195130
H9    H     H_    0.450319 0.407462 0.817621 0.128665
C31   C     C_R   0.298028 0.369264 0.737825 -0.076297
H10   H     H_    0.429490 0.353896 0.713418 0.128325
C32   C     C_R   0.118079 0.357724 0.709852 0.373273
C33   C     C_R   0.599305 0.872401 0.615828 0.574569
N3    N     N_R   0.510059 0.827720 0.648068 -0.559536
C34   C     C_R   0.439747 0.752829 0.622802 0.578622
C35   C     C_R   0.458628 0.720139 0.563250 -0.026707
C36   C     C_R   0.550825 0.765232 0.529818 -0.016677
C37   C     C_R   0.621723 0.842058 0.556175 -0.024481
C38   C     C_R   0.389034 0.643346 0.536462 -0.137832
C39   C     C_R   0.410352 0.611922 0.477390 -0.152097
C40   C     C_R   0.501567 0.656519 0.443547 -0.022431
C41   C     C_R   0.572192 0.733430 0.469895 -0.014626
C42   C     C_R   0.663957 0.778644 0.436441 -0.028366
C43   C     C_R   0.734248 0.855280 0.463251 -0.141291
C44   C     C_R   0.713393 0.886585 0.522345 -0.148561
C45   C     C_R   0.522993 0.626412 0.383847 0.562430
N4    N     N_R   0.610023 0.671594 0.351659 -0.560475
C46   C     C_R   0.681522 0.746186 0.376846 0.573911
O15   O     O_2   0.665351 0.946226 0.641289 -0.516384
O16   O     O_2   0.354091 0.709548 0.655226 -0.512801
H11   H     H_    0.317897 0.607179 0.561047 0.178965
H12   H     H_    0.354680 0.552618 0.458345 0.161487
O17   O     O_2   0.456453 0.552760 0.358152 -0.520226
O18   O     O_2   0.767853 0.789120 0.344303 -0.509085
H13   H     H_    0.805309 0.891449 0.438652 0.177781
H14   H     H_    0.769355 0.945836 0.541393 0.161612
C47   C     C_R   0.463039 0.647992 0.254649 0.219373
C48   C     C_R   0.476213 0.617641 0.195090 -0.157969
H15   H     H_    0.352617 0.623526 0.168718 0.146766
C49   C     C_R   0.647188 0.581443 0.169563 -0.122249
C50   C     C_R   0.805383 0.575905 0.205242 -0.182772
C51   C     C_R   0.791819 0.604890 0.264917 -0.090496
H16   H     H_    0.913824 0.598948 0.291729 0.137993
C52   C     C_R   0.621515 0.641163 0.290129 0.333244
C53   C     C_R   0.314148 0.874525 0.736174 -0.076580
C54   C     C_R   0.300860 0.904369 0.795856 -0.194662
H17   H     H_    0.159293 0.915562 0.815035 0.128346
C55   C     C_R   0.468586 0.919225 0.830223 -0.057589
C56   C     C_R   0.649489 0.903583 0.803149 -0.193908
H18   H     H_    0.781952 0.914013 0.827939 0.130683
C57   C     C_R   0.662394 0.873913 0.743653 -0.083202
H19   H     H_    0.803132 0.861954 0.724005 0.122420
C58   C     C_R   0.495151 0.859022 0.709568 0.374636
C59   C     C_2   0.642848 0.269723 0.001964 -0.337216
H20   H     H_    0.777347 0.238822 0.005354 0.150759
C60   C     C_2   0.472650 0.230277 0.998041 -0.340438
H21   H     H_    0.338145 0.261181 0.994665 0.149760
O19   O     O_R   0.618210 0.960470 0.922400 -0.542823
O20   O     O_R   0.291310 0.111960 0.995450 -0.546950
O21   O     O_R   0.124210 0.039530 0.077580 -0.544276
C61   C     C_R   0.460965 0.145103 0.998464 0.789112
O22   O     O_R   0.288310 0.965490 0.917650 -0.543889
O23   O     O_R   0.121180 0.892010 0.999220 -0.537361
C62   C     C_R   0.457096 0.949933 0.893831 0.700406
O24   O     O_R   0.621230 0.107990 0.000760 -0.531809
O25   O     O_3   0.455770 0.976060 0.026840 -0.368181
V3    V     V_3+5 0.179680 0.004440 0.995020 1.418182
O26   O     O_R   0.791670 0.888040 0.004570 -0.548232
C63   C     C_R   0.961157 0.854915 0.001593 0.766807
O27   O     O_R   0.794680 0.034510 0.082370 -0.519029
C64   C     C_R   0.963654 0.050856 0.106017 0.753048
V4    V     V_3+5 0.680070 0.995560 0.005010 1.441171
O28   O     O_3   0.953840 0.023940 0.973160 -0.375788
N5    N     N_3   0.687664 0.204717 0.292450 -0.643736
H22   H     H_    0.635578 0.175868 0.322637 0.251195
H23   H     H_    0.744182 0.260039 0.314412 0.256917
H24   H     H_    0.809605 0.369564 0.721662 0.125273
N6    N     N_3   0.288337 0.686619 0.278265 -0.652127
H25   H     H_    0.234297 0.656718 0.307556 0.244110
H26   H     H_    0.322041 0.745045 0.300733 0.256477
H27   H     H_    0.938950 0.548349 0.187120 0.148189
H28   H     H_    0.183476 0.863622 0.710560 0.126543
H29   H     H_    0.811027 0.061849 0.468672 0.161314
N7    N     N_3   0.657549 0.148048 0.171873 -0.645222
H30   H     H_    0.648188 0.210256 0.180141 0.251550
H31   H     H_    0.535294 0.127401 0.188959 0.251724

loop_
_geom_bond_atom_site_label_1
_geom_bond_atom_site_label_2
_ccdc_geom_bond_type
C39   H12   S    
C29   C30   A    
C53   C54   A    
V3    O28   S    
C20   O14   S    
N2    C20   A    
C25   N5    S    
C9    C12   A    
C1    O6    A    
C56   H18   S    
O19   C62   A    
C28   H8    S    
C30   H9    S    
C55   C62   S    
N6    H25   S    
O21   V3    S    
C7    N1    A    
C13   C14   A    
N1    C32   S    
C15   C16   A    
C59   C60   D    
C48   C49   A    
C13   H4    S    
C31   C32   A    
C36   C41   A    
C50   H27   S    
O26   C63   A    
C5    H1    S    
C19   N2    A    
O27   C64   A    
C27   C32   A    
O8    V2    S    
C33   C37   A    
C16   C17   A    
C12   H3    S    
C39   C40   A    
C2    C59   S    
C8    C9    A    
C41   C42   A    
O1    V2    S    
O7    V1    S    
C44   H14   S    
C33   N3    A    
C61   O24   A    
N3    C58   S    
O9    C4    A    
O20   C61   A    
O21   C64   A    
C47   N6    S    
C40   C41   A    
C19   O13   S    
C60   H21   S    
C56   C57   A    
C47   C52   A    
C21   C22   A    
O25   V3    S    
C23   C64   S    
O22   C62   A    
C28   C29   A    
C24   N7    S    
C22   C23   A    
C45   N4    A    
C38   C39   A    
C18   H5    S    
C35   C38   A    
C38   H11   S    
C9    C10   A    
C46   O18   S    
O4    C2    A    
C48   H15   S    
N7    H30   S    
C10   C11   A    
C47   C48   A    
C37   C44   A    
C14   C19   A    
O26   V4    S    
O2    C1    A    
N4    C46   A    
C14   C15   A    
O24   V4    S    
C11   C18   A    
C51   C52   A    
C57   H19   S    
C27   H24   S    
C55   C56   A    
N3    C34   A    
C25   C26   A    
V4    O28   S    
C7    O11   S    
C40   C45   A    
C54   C55   A    
O20   V3    S    
O3    C4    A    
N4    C52   S    
C21   C26   A    
C23   C24   A    
C57   C58   A    
C36   C37   A    
C54   H17   S    
C33   O15   S    
O9    V2    S    
N2    C26   S    
C45   O17   S    
C53   C58   A    
C53   H28   S    
O2    V1    S    
C42   C46   A    
C27   C28   A    
C10   C15   A    
C22   H7    S    
N6    H26   S    
O19   V4    S    
O1    C2    A    
N1    C8    A    
C21   H6    S    
C43   C44   A    
O5    V1    S    
O8    C3    A    
C1    C49   S    
O6    V2    S    
C8    O12   S    
O23   C63   A    
C35   C36   A    
C6    H2    S    
C31   H10   S    
O4    V1    S    
O3    V1    S    
V1    O10   S    
C17   C18   A    
O5    C3    A    
C51   H16   S    
C60   C61   S    
C7    C11   A    
C5    C6    D    
C30   C31   A    
O7    V2    S    
C59   H20   S    
O27   V4    S    
C43   H13   S    
C34   C35   A    
C3    C29   S    
C42   C43   A    
C49   C50   A    
C6    C63   S    
N7    H31   S    
C24   C25   A    
C12   C13   A    
C16   C20   A    
O23   V3    S    
N5    H22   S    
C50   C51   A    
N5    H23   S    
O22   V3    S    
C17   H29   S    
O25   V4    S    
V2    O10   S    
C34   O16   S    
C4    C5    S    
