data_mof_unit_24758.cif
_audit_creation_date              2012-12-10T18:18:21-0500
_audit_creation_method            fapswitch 2.2
_symmetry_space_group_name_H-M    P1
_symmetry_Int_Tables_number       1
_space_group_crystal_system       triclinic
_cell_length_a                    14.006879
_cell_length_b                    15.002504
_cell_length_c                    15.607616
_cell_angle_alpha                 89.988407
_cell_angle_beta                  67.005855
_cell_angle_gamma                 89.873687
_cell_volume                      3019.15528845

loop_
_atom_site_label
_atom_site_type_symbol
_atom_type_description
_atom_site_fract_x
_atom_site_fract_y
_atom_site_fract_z
_atom_type_partial_charge
C1    C     C_R   0.500034 0.673483 0.499742 0.890242
C2    C     C_R   0.499966 0.326517 0.500258 0.890242
C3    C     C_R   0.377310 0.496729 0.106075 -0.252343
C4    C     C_R   0.622690 0.503277 0.893925 -0.252343
C5    C     C_R   0.300602 0.502263 0.069557 0.207160
C6    C     C_R   0.699398 0.497743 0.930443 0.207161
C7    C     C_R   0.406597 0.185434 0.520289 -0.253940
C8    C     C_R   0.593403 0.814566 0.479711 -0.253939
C9    C     C_R   0.499624 0.230732 0.500971 -0.072179
C10   C     C_R   0.500376 0.769268 0.499030 -0.072179
C11   C     C_R   0.592227 0.184859 0.481956 -0.234459
C12   C     C_R   0.407772 0.815141 0.518045 -0.234459
C13   C     C_R   0.592929 0.092759 0.481297 0.085910
C14   C     C_R   0.407071 0.907241 0.518705 0.085909
C15   C     C_R   0.499318 0.046327 0.500779 0.026593
C16   C     C_R   0.500681 0.953673 0.499223 0.026592
C17   C     C_R   0.404652 0.092798 0.521299 0.049543
C18   C     C_R   0.595347 0.907202 0.478702 0.049544
C19   C     C_R   0.686404 0.047152 0.460464 -0.263005
C20   C     C_R   0.313595 0.952848 0.539537 -0.263004
C21   C     C_R   0.689144 0.953886 0.459133 0.218209
C22   C     C_R   0.310855 0.046113 0.540869 0.218211
C23   C     C_R   0.434790 0.498471 0.676404 0.889317
C24   C     C_R   0.565209 0.501529 0.323595 0.889317
C25   C     C_R   0.186488 0.428709 0.535548 -0.042504
C26   C     C_R   0.813512 0.571291 0.464452 -0.042504
C27   C     C_R   0.217375 0.571476 0.464477 -0.061548
C28   C     C_R   0.782625 0.428524 0.535523 -0.061548
C29   C     C_R   0.116302 0.574438 0.464782 -0.011732
C30   C     C_R   0.883697 0.425562 0.535218 -0.011731
C31   C     C_R   0.050519 0.500379 0.500167 0.033729
C32   C     C_R   0.949480 0.499621 0.499833 0.033730
C33   C     C_R   0.085893 0.426933 0.535840 -0.005198
C34   C     C_R   0.914107 0.573067 0.464160 -0.005198
C35   C     C_R   0.079703 0.648432 0.429926 0.221531
C36   C     C_R   0.920296 0.351568 0.570075 0.221528
C37   C     C_R   0.979423 0.646656 0.429251 -0.290690
C38   C     C_R   0.020576 0.353345 0.570750 -0.290688
C39   C     C_R   0.392752 0.496245 0.778443 -0.105715
C40   C     C_R   0.607248 0.503756 0.221557 -0.105715
C41   C     C_R   0.257316 0.512149 0.932254 -0.272165
C42   C     C_R   0.742684 0.487853 0.067746 -0.272165
C43   C     C_R   0.287362 0.509791 0.835528 0.213481
C44   C     C_R   0.712638 0.490210 0.164472 0.213481
C45   C     C_R   0.464373 0.484000 0.818990 -0.291871
C46   C     C_R   0.535627 0.516003 0.181010 -0.291871
C47   C     C_R   0.437935 0.496272 0.913941 0.077798
C48   C     C_R   0.562065 0.503733 0.086059 0.077799
C49   C     C_R   0.331341 0.504182 0.972463 0.064144
C50   C     C_R   0.668659 0.495822 0.027536 0.064142
C51   C     C_R   0.515406 0.499159 0.951334 0.027307
C52   C     C_R   0.484594 0.500846 0.048666 0.027308
H1    H     H_    0.214448 0.373134 0.563529 0.128384
H2    H     H_    0.785551 0.626866 0.436472 0.128383
H3    H     H_    0.270657 0.626052 0.435892 0.169521
H4    H     H_    0.729343 0.373948 0.564108 0.169520
H5    H     H_    0.952312 0.703412 0.401958 0.146555
H6    H     H_    0.047687 0.296588 0.598044 0.146555
H7    H     H_    0.458379 0.536588 0.225330 0.170441
H8    H     H_    0.541622 0.463416 0.774671 0.170441
H9    H     H_    0.175822 0.521170 0.975258 0.150452
H10   H     H_    0.824178 0.478833 0.024741 0.150450
H11   H     H_    0.351293 0.485767 0.179716 0.164766
H12   H     H_    0.648706 0.514240 0.820284 0.164766
H13   H     H_    0.335986 0.222993 0.534376 0.163371
H14   H     H_    0.664014 0.777007 0.465624 0.163371
H15   H     H_    0.664130 0.220852 0.466447 0.156054
H16   H     H_    0.335869 0.779148 0.533554 0.156054
H17   H     H_    0.757092 0.084932 0.443737 0.161280
H18   H     H_    0.242907 0.915068 0.556265 0.161280
N1    N     N_R   0.249980 0.499930 0.499960 -0.103065
N2    N     N_R   0.750020 0.500070 0.500040 -0.103066
O1    O     O_R   0.419720 0.632140 0.499980 -0.631316
O2    O     O_R   0.580280 0.367860 0.500020 -0.631316
O3    O     O_R   0.580270 0.632160 0.499970 -0.631183
O4    O     O_R   0.419730 0.367840 0.500030 -0.631183
O5    O     O_R   0.373870 0.499980 0.632250 -0.581525
O6    O     O_R   0.626130 0.500020 0.367750 -0.581525
O7    O     O_R   0.534420 0.500000 0.632240 -0.621729
O8    O     O_R   0.465580 0.500000 0.367760 -0.621729
Zn1   Zn    Zn3+2 0.392800 0.499980 0.500010 0.947006
Zn2   Zn    Zn3+2 0.607200 0.500020 0.499990 0.947006
N3    N     N_2   0.192546 0.500455 0.128819 -0.313865
H19   H     H_    0.151281 0.448750 0.116333 0.221212
C53   C     C_3   0.158618 0.526438 0.225525 -0.786272
H20   H     H_    0.073669 0.538413 0.254370 0.242480
H21   H     H_    0.197387 0.589119 0.231964 0.251818
H22   H     H_    0.174922 0.472413 0.266613 0.239502
N4    N     N_2   0.807454 0.499550 0.871181 -0.313863
H23   H     H_    0.848720 0.551253 0.883669 0.221210
C54   C     C_3   0.841382 0.473573 0.774473 -0.786268
H24   H     H_    0.926331 0.461597 0.745627 0.242480
H25   H     H_    0.825077 0.527600 0.733388 0.239502
H26   H     H_    0.802613 0.410892 0.768030 0.251817
N5    N     N_2   0.143714 0.724247 0.393798 -0.318366
H27   H     H_    0.132659 0.753976 0.338745 0.228100
C55   C     C_3   0.140916 0.788558 0.463765 -0.832507
H28   H     H_    0.062162 0.818271 0.496871 0.244822
H29   H     H_    0.197382 0.842552 0.430608 0.244214
H30   H     H_    0.162151 0.756709 0.518137 0.243526
N6    N     N_2   0.856285 0.275753 0.606203 -0.318366
H31   H     H_    0.867340 0.246025 0.661256 0.228100
C56   C     C_3   0.859084 0.211442 0.536236 -0.832507
H32   H     H_    0.937838 0.181730 0.503131 0.244823
H33   H     H_    0.837849 0.243290 0.481864 0.243527
H34   H     H_    0.802618 0.157448 0.569393 0.244213
N7    N     N_2   0.788658 0.479000 0.203019 -0.285494
H35   H     H_    0.844081 0.431779 0.168656 0.217075
C57   C     C_3   0.835075 0.561485 0.215439 -0.762493
H36   H     H_    0.880498 0.592321 0.146775 0.223802
H37   H     H_    0.887982 0.547663 0.251443 0.232617
H38   H     H_    0.774481 0.609064 0.258633 0.244284
N8    N     N_2   0.211342 0.520999 0.796981 -0.285494
H39   H     H_    0.155918 0.568219 0.831343 0.217075
C58   C     C_3   0.164926 0.438513 0.784562 -0.762493
H40   H     H_    0.119504 0.407677 0.853226 0.223802
H41   H     H_    0.225520 0.390935 0.741368 0.244284
H42   H     H_    0.112017 0.452333 0.748559 0.232617
N9    N     N_2   0.784639 0.906110 0.436163 -0.307616
H43   H     H_    0.804350 0.865574 0.378403 0.213220
C59   C     C_3   0.871770 0.948712 0.447265 -0.805020
H44   H     H_    0.931201 0.897631 0.442201 0.239361
H45   H     H_    0.846668 0.980984 0.516714 0.252904
H46   H     H_    0.907536 0.998592 0.391298 0.236066
N10   N     N_2   0.215360 0.093890 0.563839 -0.307616
H47   H     H_    0.195651 0.134428 0.621598 0.213221
C60   C     C_3   0.128227 0.051287 0.552743 -0.805026
H48   H     H_    0.068795 0.102367 0.557809 0.239362
H49   H     H_    0.092464 0.001408 0.608711 0.236068
H50   H     H_    0.153325 0.019013 0.483295 0.252905

loop_
_geom_bond_atom_site_label_1
_geom_bond_atom_site_label_2
_ccdc_geom_bond_type
C45   H8    S    
C8    H14   S    
N6    H31   S    
C46   H7    S    
C27   C29   A    
C34   C37   A    
C26   N2    A    
N5    H27   S    
C41   H9    S    
C20   H18   S    
C55   H28   S    
C28   H4    S    
C27   N1    A    
C47   C49   A    
C53   H20   S    
C40   C46   A    
C12   H16   S    
C19   C21   A    
C25   H1    S    
C57   H37   S    
C5    N3    S    
C27   H3    S    
C44   N7    S    
C54   H25   S    
C58   H40   S    
C18   C21   A    
C15   C17   A    
O1    Zn1   S    
C59   H46   S    
C38   H6    S    
C24   O8    A    
N3    H19   S    
C7    C17   A    
N7    H35   S    
C31   C33   A    
C25   N1    A    
N4    C54   S    
C42   H10   S    
C40   C44   A    
C2    O2    A    
C39   C45   A    
C45   C47   A    
N6    C56   S    
C26   C34   A    
N7    C57   S    
C5    C49   A    
C28   N2    A    
C42   C44   A    
O2    Zn2   S    
C26   H2    S    
C41   C49   A    
C55   H29   S    
C11   H15   S    
N9    C59   S    
C46   C48   A    
C13   C19   A    
C53   H21   S    
C51   C52   A    
C1    O3    A    
C14   C20   A    
C4    C6    A    
C57   H38   S    
C54   H24   S    
C22   N10   S    
C39   C43   A    
C4    C51   A    
C58   H41   S    
C6    C50   A    
C36   N6    S    
C32   C34   A    
C60   H49   S    
C7    H13   S    
O6    Zn2   S    
C31   C32   A    
O5    Zn1   S    
C3    C52   A    
C58   H42   S    
C56   H33   S    
C16   C18   A    
C23   O5    A    
C9    C11   A    
C59   H44   S    
C10   C12   A    
C42   C50   A    
C24   O6    A    
N3    C53   S    
C12   C14   A    
C3    H11   S    
C13   C15   A    
N10   H47   S    
C14   C16   A    
C19   H17   S    
C60   H48   S    
C55   H30   S    
C2    O4    A    
N8    H39   S    
C1    C10   S    
C53   H22   S    
C7    C9    A    
C4    H12   S    
C21   N9    S    
C35   C37   A    
C41   C43   A    
C33   C38   A    
C20   C22   A    
O8    Zn1   S    
C3    C5    A    
O4    Zn1   S    
O7    Zn2   S    
C47   C51   A    
N9    H43   S    
N5    C55   S    
O3    Zn2   S    
C37   H5    S    
C35   N5    S    
C6    N4    S    
C29   C35   A    
C17   C22   A    
N1    Zn1   S    
C30   C36   A    
C1    O1    A    
C36   C38   A    
C60   H50   S    
C28   C30   A    
C29   C31   A    
C57   H36   S    
C43   N8    S    
C54   H26   S    
C30   C32   A    
C11   C13   A    
C23   C39   S    
C48   C50   A    
C24   C40   S    
C56   H34   S    
C8    C18   A    
C59   H45   S    
C48   C52   A    
C8    C10   A    
C56   H32   S    
N10   C60   S    
C23   O7    A    
N4    H23   S    
C2    C9    S    
N2    Zn2   S    
C15   C16   A    
C25   C33   A    
N8    C58   S    
