data_mof_unit_36525.cif
_audit_creation_date              2012-10-26T18:59:58-0400
_audit_creation_method            fapswitch 2.2
_symmetry_space_group_name_H-M    P1
_symmetry_Int_Tables_number       1
_space_group_crystal_system       triclinic
_cell_length_a                    9.541087
_cell_length_b                    10.826753
_cell_length_c                    17.12224
_cell_angle_alpha                 89.238907
_cell_angle_beta                  93.950413
_cell_angle_gamma                 90.190172
_cell_volume                      1764.34696928

loop_
_atom_site_label
_atom_site_type_symbol
_atom_type_description
_atom_site_fract_x
_atom_site_fract_y
_atom_site_fract_z
_atom_type_partial_charge
C1    C     C_R   0.499972 0.262313 0.501730 0.549781
C2    C     C_R   0.500441 0.129152 0.509865 0.008564
C3    C     C_R   0.375091 0.063662 0.519280 -0.160847
C4    C     C_R   0.517474 0.498112 0.650879 0.551548
C5    C     C_R   0.375250 0.934858 0.518889 -0.160775
C6    C     C_R   0.500746 0.870767 0.509045 0.008136
C7    C     C_R   0.626668 0.936893 0.510644 0.026525
C8    C     C_3   0.742347 0.933164 0.456256 -0.272134
C9    C     C_3   0.743039 0.073242 0.457560 -0.266081
C10   C     C_R   0.070045 0.596465 0.467242 0.157615
C11   C     C_R   0.078965 0.411463 0.539303 -0.015726
C12   C     C_R   0.658284 0.493747 0.779168 -0.152696
C13   C     C_R   0.930061 0.411488 0.539346 -0.017360
C14   C     C_R   0.922543 0.596202 0.466927 0.159589
C15   C     C_3   0.907698 0.637164 0.383301 -0.277847
C16   C     C_R   0.500206 0.737737 0.501282 0.550211
C17   C     C_3   0.066536 0.638661 0.384065 -0.278680
C18   C     C_R   0.482582 0.500185 0.349056 0.550644
C19   C     C_R   0.527021 0.496169 0.736750 0.007689
C20   C     C_R   0.403914 0.496275 0.777062 -0.159114
C21   C     C_R   0.411641 0.494285 0.858370 -0.089285
C22   C     C_R   0.543519 0.492144 0.901069 0.227642
C23   C     C_R   0.588853 0.482553 0.141790 -0.089774
C24   C     C_R   0.666032 0.491689 0.860744 -0.111021
C25   C     C_R   0.595964 0.484077 0.223103 -0.161288
C26   C     C_R   0.457997 0.493627 0.098718 0.227081
C27   C     C_R   0.473428 0.497127 0.263075 0.006402
C28   C     C_R   0.343115 0.506084 0.220113 -0.152569
C29   C     C_R   0.335829 0.504457 0.138612 -0.110335
C30   C     C_R   0.626554 0.064049 0.511282 0.019116
Cu1   Cu    Cu3+1 0.640670 0.499980 0.500000 0.937301
Cu2   Cu    Cu3+1 0.359330 0.500020 0.500000 0.934751
H1    H     H_    0.697632 0.474184 0.254462 0.118375
H2    H     H_    0.107407 0.568174 0.345290 0.145869
H3    H     H_    0.111386 0.732897 0.377882 0.124633
H4    H     H_    0.767942 0.489967 0.892797 0.115187
H5    H     H_    0.754884 0.493409 0.749456 0.130740
H6    H     H_    0.301219 0.497931 0.745876 0.130766
H7    H     H_    0.709528 0.116599 0.400060 0.143109
H8    H     H_    0.685719 0.472599 0.113081 0.133317
H9    H     H_    0.246808 0.514536 0.249131 0.117096
H10   H     H_    0.314343 0.494473 0.887376 0.134138
H11   H     H_    0.234534 0.512219 0.106265 0.114574
H12   H     H_    0.276399 0.886307 0.522457 0.134199
H13   H     H_    0.276182 0.111315 0.523017 0.127940
H14   H     H_    0.839840 0.891474 0.484366 0.136572
H15   H     H_    0.706869 0.895623 0.398060 0.131749
H16   H     H_    0.840399 0.112409 0.487046 0.131249
H17   H     H_    0.138252 0.338520 0.569924 0.111443
H18   H     H_    0.877835 0.338596 0.570033 0.115067
H19   H     H_    0.859292 0.565545 0.344305 0.145349
H20   H     H_    0.860710 0.730323 0.375453 0.117892
N1    N     N_2   0.557833 0.490764 0.984065 -0.252464
N2    N     N_2   0.444146 0.494291 0.015755 -0.252873
N3    N     N_R   0.147870 0.500930 0.499500 -0.230368
N4    N     N_R   0.851960 0.500890 0.499500 -0.231066
O1    O     O_R   0.618810 0.319640 0.500000 -0.505920
O2    O     O_R   0.381230 0.319680 0.499990 -0.511975
O3    O     O_R   0.631790 0.498830 0.613930 -0.504272
O4    O     O_R   0.394210 0.498870 0.613920 -0.505493
O5    O     O_R   0.618770 0.680320 0.500010 -0.494938
O6    O     O_R   0.381190 0.680360 0.500000 -0.505942
O7    O     O_R   0.605790 0.501130 0.386080 -0.507261
O8    O     O_R   0.368210 0.501170 0.386070 -0.503756

loop_
_geom_bond_atom_site_label_1
_geom_bond_atom_site_label_2
_ccdc_geom_bond_type
C14   N4    A    
C1    O2    A    
N1    N2    D    
C6    C7    A    
C11   H17   S    
C15   H19   S    
Cu1   N4    S    
C25   C27   A    
C20   H6    S    
Cu1   O5    S    
Cu2   N3    S    
Cu1   Cu2   S    
Cu2   O2    S    
C2    C30   A    
C13   N4    A    
C4    O4    A    
C2    C3    A    
C8    H15   S    
Cu2   O6    S    
C7    C8    S    
C7    C30   A    
C15   H20   S    
C29   H11   S    
C10   N3    A    
C11   C13   A    
C18   O8    A    
C17   H2    S    
C24   H4    S    
C16   O6    A    
C9    C30   S    
C9    H16   S    
C26   N2    S    
C12   C19   A    
C28   C29   A    
C5    H12   S    
C22   N1    S    
C8    H14   S    
C23   C25   A    
C5    C6    A    
C22   C24   A    
C18   O7    A    
C16   O5    A    
Cu2   O4    S    
C10   C17   S    
C6    C16   S    
C23   H8    S    
C4    O3    A    
Cu1   O7    S    
C28   H9    S    
C9    H7    S    
C13   H18   S    
C11   N3    A    
C20   C21   A    
Cu2   O8    S    
C26   C29   A    
C1    C2    S    
C10   C14   A    
C23   C26   A    
Cu1   O3    S    
C12   H5    S    
C15   C17   S    
C12   C24   A    
C14   C15   S    
C18   C27   S    
C21   H10   S    
C17   H3    S    
C3    C5    A    
C21   C22   A    
C4    C19   S    
C3    H13   S    
Cu1   O1    S    
C19   C20   A    
C25   H1    S    
C8    C9    S    
C27   C28   A    
C1    O1    A    
