data_mof_unit_49182.cif
_audit_creation_date              2012-12-10T21:00:47-0500
_audit_creation_method            fapswitch 2.2
_symmetry_space_group_name_H-M    P1
_symmetry_Int_Tables_number       1
_space_group_crystal_system       triclinic
_cell_length_a                    18.057462
_cell_length_b                    18.121397
_cell_length_c                    18.316945
_cell_angle_alpha                 119.579403
_cell_angle_beta                  90.066673
_cell_angle_gamma                 119.967381
_cell_volume                      4264.64620594

loop_
_atom_site_label
_atom_site_type_symbol
_atom_type_description
_atom_site_fract_x
_atom_site_fract_y
_atom_site_fract_z
_atom_type_partial_charge
C1    C     C_R   0.108053 0.219922 0.609918 0.490349
C2    C     C_3   0.450700 0.897609 0.947543 0.061740
C3    C     C_3   0.005851 0.196239 0.356093 -0.455859
C4    C     C_3   0.523338 0.343060 0.768308 -0.280171
C5    C     C_3   0.421177 0.282857 0.727862 -0.438237
C6    C     C_3   0.476652 0.653949 0.232793 -0.282099
C7    C     C_3   0.578898 0.713414 0.272163 -0.432621
C8    C     C_3   0.042884 0.796972 0.896981 -0.283558
C9    C     C_3   0.117388 0.841285 0.861133 -0.432169
C10   C     C_3   0.963547 0.206006 0.105388 -0.283938
C11   C     C_3   0.887329 0.159661 0.138767 -0.434269
C12   C     C_3   0.879813 0.359919 0.748006 -0.262295
C13   C     C_3   0.445129 0.031842 0.016628 -0.111509
C14   C     C_3   0.922027 0.315215 0.681760 -0.282011
C15   C     C_3   0.885531 0.205262 0.652891 -0.451594
C16   C     C_3   0.120097 0.640402 0.250023 -0.261296
C17   C     C_3   0.074630 0.684359 0.311962 -0.283083
C18   C     C_3   0.096580 0.783366 0.323761 -0.453035
C19   C     C_3   0.397259 0.303439 0.330217 -0.256588
C20   C     C_3   0.298656 0.234523 0.321036 -0.452791
C21   C     C_3   0.602113 0.696611 0.669631 -0.258461
C22   C     C_3   0.700814 0.765678 0.679262 -0.448913
C23   C     C_3   0.551142 0.653550 0.464881 -0.268313
C24   C     C_3   0.554846 0.968157 0.983326 -0.111459
C25   C     C_3   0.510033 0.714424 0.504526 -0.453415
C26   C     C_3   0.448551 0.346362 0.534995 -0.268047
C27   C     C_3   0.489616 0.285457 0.495278 -0.453224
C28   C     C_3   0.425076 0.484830 0.461534 -0.113363
C29   C     C_3   0.574726 0.515175 0.538392 -0.113001
C30   C     C_3   0.451126 0.406966 0.421764 0.027627
C31   C     C_3   0.548657 0.593030 0.578135 0.027770
C32   C     C_3   0.549326 0.496769 0.447542 0.038169
C33   C     C_3   0.450495 0.503228 0.552367 0.038653
C34   C     C_3   0.524026 0.574588 0.487406 0.020575
C35   C     C_R   0.893768 0.779847 0.389652 0.487567
C36   C     C_3   0.475762 0.425393 0.512501 0.020682
C37   C     C_R   0.185639 0.193403 0.829502 -0.084870
C38   C     C_R   0.814043 0.821455 0.176228 -0.090472
C39   C     C_R   0.393049 0.781322 0.888379 0.498002
C40   C     C_R   0.606947 0.218677 0.111605 0.497857
C41   C     C_R   0.166603 0.159086 0.740243 -0.059119
C42   C     C_R   0.839091 0.861139 0.266557 -0.084013
C43   C     C_R   0.076489 0.095651 0.684647 0.064595
C44   C     C_R   0.925684 0.897938 0.310965 0.070873
C45   C     C_R   0.006165 0.068332 0.720083 -0.116089
C46   C     C_3   0.969748 0.417822 0.415961 -0.114045
C47   C     C_R   0.984800 0.889163 0.263053 -0.103267
C48   C     C_R   0.025101 0.101843 0.808893 -0.110292
C49   C     C_R   0.959943 0.849923 0.173076 -0.102572
C50   C     C_R   0.114865 0.163899 0.864084 0.042686
C51   C     C_R   0.875013 0.817384 0.129296 0.049909
C52   C     C_R   0.015824 0.946062 0.528458 -0.032678
C53   C     C_R   0.998184 0.054317 0.465619 -0.035247
C54   C     C_R   0.958452 0.892491 0.442129 0.000313
C55   C     C_R   0.049558 0.106951 0.554793 0.001435
C56   C     C_R   0.957312 0.947564 0.408180 -0.030891
C57   C     C_3   0.030395 0.582092 0.583822 -0.108534
C58   C     C_R   0.052348 0.051616 0.587775 -0.029386
C59   C     C_R   0.622868 0.478825 0.741013 -0.114118
C60   C     C_R   0.376120 0.515812 0.257320 -0.113112
C61   C     C_R   0.572441 0.452853 0.793148 0.039330
C62   C     C_R   0.426974 0.543332 0.206052 0.040251
C63   C     C_R   0.109720 0.499339 0.888584 0.500366
C64   C     C_R   0.890160 0.500453 0.111230 0.500329
C65   C     C_R   0.570856 0.530872 0.868381 0.066928
C66   C     C_R   0.427733 0.465847 0.129450 0.067226
C67   C     C_R   0.618387 0.631479 0.888368 -0.069242
C68   C     C_3   0.448546 0.966756 0.923279 -0.124841
C69   C     C_R   0.378506 0.364016 0.106869 -0.070623
C70   C     C_R   0.667188 0.655313 0.835302 -0.130610
C71   C     C_R   0.329552 0.338742 0.159280 -0.129579
C72   C     C_R   0.669660 0.579252 0.761928 -0.129865
C73   C     C_R   0.328133 0.414399 0.234207 -0.129747
C74   C     C_R   0.581969 0.514139 0.991806 -0.159037
C75   C     C_R   0.417934 0.485569 0.007839 -0.165028
C76   C     C_R   0.550036 0.499377 0.055903 0.019451
C77   C     C_R   0.449812 0.500153 0.943657 0.018598
C78   C     C_R   0.467100 0.484655 0.064534 -0.034258
C79   C     C_3   0.551426 0.033238 0.076674 -0.124714
C80   C     C_R   0.532433 0.514177 0.934587 -0.033377
C81   C     C_R   0.004244 0.685001 0.858604 0.034864
C82   C     C_R   0.999856 0.317165 0.142797 0.035318
C83   C     C_R   0.018756 0.656613 0.912964 -0.080926
C84   C     C_R   0.984363 0.343973 0.087410 -0.081718
C85   C     C_R   0.979232 0.552126 0.879146 0.050425
C86   C     C_R   0.021367 0.447790 0.120592 0.050525
C87   C     C_R   0.392643 0.502023 0.608291 0.495173
C88   C     C_R   0.607317 0.498009 0.391701 0.494503
C89   C     C_R   0.925924 0.474239 0.788226 0.035095
C90   C     C_3   0.553379 0.038714 0.959770 -0.122702
C91   C     C_R   0.074523 0.526626 0.211415 0.034154
C92   C     C_R   0.912422 0.503647 0.734164 -0.109627
C93   C     C_R   0.088458 0.498793 0.266680 -0.109312
C94   C     C_R   0.950402 0.607696 0.769126 -0.100472
C95   C     C_R   0.052208 0.395315 0.232586 -0.099988
C96   C     C_R   0.941477 0.528510 0.998303 -0.167472
C97   C     C_R   0.057863 0.470265 0.000819 -0.165445
C98   C     C_R   0.947709 0.500814 0.055838 0.023086
C99   C     C_R   0.051861 0.498353 0.943577 0.022091
C100  C     C_R   0.006863 0.471731 0.057542 -0.037023
C101  C     C_3   0.446595 0.961284 0.040184 -0.122878
C102  C     C_R   0.992511 0.526983 0.941571 -0.038864
C103  C     C_R   0.393985 0.498623 0.887198 0.501306
C104  C     C_R   0.605974 0.501170 0.112589 0.502141
C105  C     C_R   0.109015 0.500392 0.607989 0.496666
C106  C     C_R   0.891024 0.499607 0.391980 0.497091
C107  C     C_3   0.070513 0.506629 0.472020 -0.125058
C108  C     C_3   0.929613 0.493233 0.527775 -0.120029
C109  C     C_3   0.048570 0.587724 0.503607 -0.130312
C110  C     C_3   0.951562 0.412134 0.496140 -0.136872
C111  C     C_3   0.948688 0.498955 0.448434 0.074638
C112  C     C_3   0.549278 0.102388 0.052413 0.061905
C113  C     C_3   0.051428 0.500948 0.551380 0.069600
C114  C     C_3   0.134661 0.197864 0.959282 -0.285413
C115  C     C_3   0.158325 0.307000 0.021208 -0.419743
C116  C     C_3   0.851800 0.783139 0.034189 -0.283435
C117  C     C_3   0.838865 0.679751 0.971277 -0.419468
C118  C     C_3   0.042546 0.894453 0.558336 -0.233952
C119  C     C_3   0.144301 0.940134 0.577227 -0.312495
C120  C     C_3   0.178158 0.926376 0.642907 -0.461388
C121  C     C_3   0.973768 0.106834 0.434761 -0.221235
C122  C     C_3   0.028452 0.137252 0.378084 -0.267340
H1    H     H_    0.087398 0.659319 0.505111 0.088943
H2    H     H_    0.007828 0.847345 0.138061 0.092245
H3    H     H_    0.265713 0.275773 0.335216 0.148827
H4    H     H_    0.261484 0.163693 0.251968 0.123987
H5    H     H_    0.398728 0.319368 0.278964 0.175455
H6    H     H_    0.429792 0.262076 0.317583 0.141325
H7    H     H_    0.733905 0.724699 0.665955 0.152380
H8    H     H_    0.705913 0.789363 0.633100 0.155617
H9    H     H_    0.737573 0.836790 0.748204 0.122850
H10   H     H_    0.569465 0.737784 0.681821 0.141371
H11   H     H_    0.600318 0.680801 0.720967 0.174899
H12   H     H_    0.435387 0.661016 0.484354 0.141240
H13   H     H_    0.708769 0.598487 0.721757 0.100592
H14   H     H_    0.539088 0.765249 0.578024 0.148134
H15   H     H_    0.525482 0.764010 0.480076 0.130592
H16   H     H_    0.625910 0.707700 0.488337 0.142197
H17   H     H_    0.527291 0.610945 0.391567 0.156517
H18   H     H_    0.460902 0.235096 0.421757 0.147983
H19   H     H_    0.564310 0.338868 0.515828 0.141517
H20   H     H_    0.473762 0.235421 0.519313 0.130077
H21   H     H_    0.472283 0.388784 0.608319 0.157620
H22   H     H_    0.373776 0.292228 0.511464 0.140025
H23   H     H_    0.288964 0.394134 0.273944 0.099807
H24   H     H_    0.626208 0.421206 0.683949 0.098960
H25   H     H_    0.373316 0.572978 0.315395 0.098905
H26   H     H_    0.619744 0.692451 0.946891 0.106572
H27   H     H_    0.376320 0.303461 0.047141 0.105746
H28   H     H_    0.129426 0.512164 0.450408 0.097695
H29   H     H_    0.870706 0.487668 0.549417 0.097718
H30   H     H_    0.704746 0.733571 0.852252 0.094916
H31   H     H_    0.912715 0.340073 0.493953 0.086928
H32   H     H_    0.291229 0.259821 0.140796 0.094951
H33   H     H_    0.645154 0.523592 0.985170 0.124620
H34   H     H_    0.354842 0.476417 0.014670 0.122679
H35   H     H_    0.936881 0.627975 0.726635 0.098896
H36   H     H_    0.066127 0.376155 0.275909 0.096733
H37   H     H_    0.059454 0.715784 0.982541 0.092817
H38   H     H_    0.944494 0.284103 0.017714 0.096889
H39   H     H_    0.870649 0.445338 0.664935 0.094853
H40   H     H_    0.129422 0.557938 0.336079 0.095698
H41   H     H_    0.894749 0.548779 0.995756 0.129368
H42   H     H_    0.255412 0.242260 0.871475 0.104903
H43   H     H_    0.104727 0.450178 0.003462 0.129405
H44   H     H_    0.943157 0.350027 0.346419 0.116907
H45   H     H_    0.057091 0.649922 0.653379 0.116099
H46   H     H_    0.597782 0.071535 0.927054 0.103471
H47   H     H_    0.402188 0.928462 0.072897 0.103121
H48   H     H_    0.405787 0.938475 0.859581 0.101611
H49   H     H_    0.594178 0.061519 0.140373 0.101397
H50   H     H_    0.400145 0.058620 0.030665 0.113385
H51   H     H_    0.599826 0.941373 0.969283 0.113147
H52   H     H_    0.363312 0.473418 0.432368 0.104904
H53   H     H_    0.747716 0.795428 0.143347 0.094349
H54   H     H_    0.636521 0.526560 0.567413 0.105281
H55   H     H_    0.221938 0.363622 0.019652 0.154747
H56   H     H_    0.103126 0.310590 0.000514 0.152133
H57   H     H_    0.167402 0.328345 0.090322 0.150697
H58   H     H_    0.074816 0.144069 0.967625 0.125645
H59   H     H_    0.191355 0.195303 0.978256 0.132597
H60   H     H_    0.900270 0.685121 0.990824 0.145287
H61   H     H_    0.780632 0.617669 0.972932 0.155715
H62   H     H_    0.826202 0.658948 0.902352 0.152265
H63   H     H_    0.789124 0.775643 0.014285 0.135365
H64   H     H_    0.221920 0.182853 0.714808 0.091276
H65   H     H_    0.907078 0.843064 0.027653 0.125968
H66   H     H_    0.171948 0.970654 0.708369 0.156898
H67   H     H_    0.138407 0.843097 0.617515 0.146816
H68   H     H_    0.250490 0.955890 0.652149 0.136118
H69   H     H_    0.156342 0.900288 0.514385 0.149387
H70   H     H_    0.185860 0.023388 0.603484 0.161043
H71   H     H_    0.022659 0.901963 0.617730 0.157144
H72   H     H_    0.008530 0.810645 0.508084 0.171494
H73   H     H_    0.933050 0.146560 0.316653 0.136036
H74   H     H_    0.020860 0.267572 0.417793 0.186682
H75   H     H_    0.791937 0.864992 0.302231 0.084409
H76   H     H_    0.046945 0.218598 0.316443 0.130158
H77   H     H_    0.102259 0.185717 0.412840 0.197666
H78   H     H_    0.012618 0.067700 0.314333 0.158332
H79   H     H_    0.900504 0.054832 0.396451 0.116558
H80   H     H_    0.980494 0.175739 0.492050 0.152651
H81   H     H_    0.393141 0.317782 0.777025 0.155946
H82   H     H_    0.405016 0.281862 0.668758 0.142341
H83   H     H_    0.387968 0.201596 0.706792 0.124841
H84   H     H_    0.546870 0.300454 0.718798 0.126855
H85   H     H_    0.538713 0.343599 0.827314 0.141319
H86   H     H_    0.936322 0.019438 0.678246 0.101320
H87   H     H_    0.611972 0.795637 0.296256 0.122094
H88   H     H_    0.595501 0.711218 0.329098 0.143823
H89   H     H_    0.606891 0.680613 0.221536 0.161679
H90   H     H_    0.453750 0.696252 0.283527 0.126731
H91   H     H_    0.460885 0.654973 0.174851 0.141596
H92   H     H_    0.170921 0.831251 0.873548 0.171037
H93   H     H_    0.089027 0.802296 0.788769 0.138365
H94   H     H_    0.148394 0.925370 0.895115 0.125109
H95   H     H_    0.987936 0.803376 0.880683 0.133130
H96   H     H_    0.071702 0.844938 0.970680 0.127739
H97   H     H_    0.051476 0.916386 0.296373 0.091996
H98   H     H_    0.913254 0.200202 0.211693 0.137950
H99   H     H_    0.832330 0.165896 0.122309 0.169848
H100  H     H_    0.859046 0.076477 0.106506 0.125619
H101  H     H_    0.937097 0.157837 0.031522 0.128929
H102  H     H_    0.019224 0.202019 0.124537 0.131666
H103  H     H_    0.902816 0.205348 0.711184 0.160397
H104  H     H_    0.810884 0.153644 0.620690 0.141202
H105  H     H_    0.916327 0.174208 0.604729 0.132725
H106  H     H_    0.906489 0.313660 0.622097 0.139994
H107  H     H_    0.996740 0.364461 0.712366 0.179410
H108  H     H_    0.969642 0.078978 0.834512 0.093441
H109  H     H_    0.883109 0.346040 0.800147 0.148473
H110  H     H_    0.806736 0.317312 0.713381 0.123253
H111  H     H_    0.170781 0.843572 0.353497 0.136910
H112  H     H_    0.071470 0.767170 0.258643 0.161417
H113  H     H_    0.062742 0.813306 0.368118 0.142628
H114  H     H_    0.000002 0.627226 0.284720 0.181843
H115  H     H_    0.098288 0.701361 0.377896 0.137153
H116  H     H_    0.192602 0.684653 0.287722 0.120550
H117  H     H_    0.119836 0.652757 0.196442 0.148773
H118  H     H_    0.293816 0.210312 0.366770 0.152472
O1    O     O_3   0.251620 0.500000 0.748430 -0.430973
O2    O     O_R   0.570330 0.268390 0.136490 -0.550280
O3    O     O_R   0.134680 0.268390 0.572240 -0.556677
O4    O     O_R   0.865320 0.731610 0.427760 -0.557750
O5    O     O_R   0.306670 0.731630 0.863510 -0.544044
O6    O     O_R   0.693330 0.268370 0.136490 -0.543707
O7    O     O_R   0.135450 0.439270 0.865360 -0.550591
O8    O     O_R   0.864550 0.560730 0.134640 -0.551514
O9    O     O_R   0.429670 0.560710 0.692610 -0.552575
O10   O     O_R   0.570330 0.439290 0.307390 -0.552846
O11   O     O_R   0.308540 0.439240 0.865360 -0.555383
O12   O     O_3   0.748380 0.500000 0.251570 -0.433304
O13   O     O_R   0.691460 0.560760 0.134640 -0.548248
O14   O     O_R   0.133580 0.439310 0.571150 -0.561350
O15   O     O_R   0.866420 0.560690 0.428850 -0.555208
O16   O     O_R   0.430770 0.560690 0.864590 -0.540852
O17   O     O_R   0.569230 0.439310 0.135410 -0.540718
O18   O     O_R   0.133580 0.560760 0.692610 -0.541230
O19   O     O_R   0.866420 0.439240 0.307390 -0.543887
O20   O     O_R   0.134680 0.560740 0.864590 -0.535818
O21   O     O_R   0.865320 0.439260 0.135410 -0.536840
O22   O     O_R   0.306670 0.439270 0.571150 -0.549901
O23   O     O_R   0.693330 0.560730 0.428850 -0.545759
O24   O     O_R   0.135450 0.268370 0.694460 -0.537823
O25   O     O_R   0.864550 0.731630 0.305540 -0.532871
O26   O     O_R   0.429670 0.731610 0.863510 -0.550277
Zn1   Zn    Zn3+2 0.207400 0.586780 0.791530 0.925059
Zn2   Zn    Zn3+2 0.792600 0.413220 0.208470 0.922798
Zn3   Zn    Zn3+2 0.208510 0.413230 0.792630 0.915635
Zn4   Zn    Zn3+2 0.791490 0.586770 0.207370 0.920193
Zn5   Zn    Zn3+2 0.383150 0.586740 0.791530 0.916662
Zn6   Zn    Zn3+2 0.616850 0.413260 0.208470 0.917641
Zn7   Zn    Zn3+2 0.207400 0.413250 0.618010 0.890464
Zn8   Zn    Zn3+2 0.792600 0.586750 0.381990 0.899432

loop_
_geom_bond_atom_site_label_1
_geom_bond_atom_site_label_2
_ccdc_geom_bond_type
C92   H39   S    
C76   C104  S    
C5    H83   S    
C105  O18   A    
C37   C50   A    
C96   C102  A    
C22   H9    S    
C95   H36   S    
C41   C43   A    
O9    Zn5   S    
C23   H16   S    
C19   C20   S    
C90   C112  S    
C106  O15   A    
O12   Zn4   S    
C11   H99   S    
C5    H82   S    
C114  C115  S    
C84   H38   S    
C39   O26   A    
C40   C112  S    
C9    H93   S    
C20   H4    S    
C21   C31   S    
C29   C36   S    
C26   C27   S    
O24   Zn3   S    
C74   C76   A    
C79   C112  S    
C15   H103  S    
C37   C41   A    
C93   H40   S    
C23   H17   S    
C76   C78   A    
C121  H80   S    
C38   C42   A    
C13   C112  S    
C2    C68   S    
C86   C91   A    
C109  C111  S    
O7    Zn3   S    
O6    Zn2   S    
C53   C56   A    
C66   C69   A    
C6    H90   S    
O18   Zn1   S    
C79   H49   S    
C108  H29   S    
C60   C73   A    
O16   Zn5   S    
C27   H20   S    
C116  C117  S    
C60   C62   A    
O1    Zn7   S    
C25   H14   S    
C118  H71   S    
C122  H78   S    
C118  C119  S    
C107  C113  S    
C14   H107  S    
C63   C99   S    
O19   Zn2   S    
C1    O3    A    
C43   C58   S    
C97   C99   A    
C39   O5    A    
C107  H28   S    
C68   H48   S    
C2    C39   S    
O12   Zn2   S    
C13   H50   S    
C57   C109  S    
C19   H6    S    
C71   H32   S    
C16   H117  S    
C108  C110  S    
C16   C17   S    
C65   C67   A    
C96   C98   A    
C73   H23   S    
C105  C113  S    
C68   C90   S    
C31   C33   S    
C101  H47   S    
C8    H95   S    
C60   H25   S    
O10   Zn6   S    
C122  H77   S    
C119  H69   S    
C86   C100  S    
C3    C122  S    
O3    Zn7   S    
C3    H74   S    
C44   C47   A    
C10   H102  S    
C59   C72   A    
C48   H108  S    
C17   H114  S    
C64   C98   S    
C16   H116  S    
C35   O4    A    
C93   C95   A    
C65   C80   S    
C74   C80   A    
C21   C22   S    
C22   H8    S    
C35   C54   S    
O4    Zn8   S    
C103  O16   A    
C107  C109  S    
O11   Zn3   S    
O5    Zn1   S    
C42   C44   A    
C105  O14   A    
C26   H22   S    
C24   H51   S    
C120  H66   S    
C11   H100  S    
C21   H11   S    
C7    H87   S    
O14   Zn7   S    
C52   C54   A    
C12   H110  S    
C106  C111  S    
C53   C55   A    
C9    H94   S    
C66   C78   S    
C116  H65   S    
C54   C56   A    
C59   C61   A    
C69   C71   A    
C62   C66   A    
C15   H104  S    
C92   C94   A    
C8    C81   S    
C96   H41   S    
C12   C89   S    
C75   H34   S    
C70   H30   S    
C119  H70   S    
O21   Zn2   S    
C47   C49   A    
C71   C73   A    
C85   C89   A    
C18   H113  S    
O12   Zn6   S    
C72   H13   S    
C57   C113  S    
C38   C51   A    
O15   Zn8   S    
C2    C101  S    
C49   C51   A    
C20   H118  S    
C49   H2    S    
C47   H97   S    
C4    C61   S    
C10   C82   S    
C3    H73   S    
C104  O13   A    
O1    Zn5   S    
C15   H105  S    
C89   C92   A    
C32   C34   S    
C25   H15   S    
O25   Zn4   S    
C21   H10   S    
C14   H106  S    
C120  H68   S    
C91   C93   A    
C1    O24   A    
C43   C45   A    
C81   C83   A    
C44   C56   S    
C24   C79   S    
C40   O6    A    
C64   O8    A    
C82   C84   A    
O13   Zn4   S    
O23   Zn8   S    
C46   C111  S    
C46   C107  S    
C57   C108  S    
O1    Zn1   S    
C17   C18   S    
C8    C9    S    
C31   C34   S    
C83   H37   S    
O17   Zn6   S    
C17   H115  S    
C18   H112  S    
C35   O25   A    
O20   Zn1   S    
C25   H12   S    
C75   C77   A    
C87   O22   A    
C94   H35   S    
C121  C122  S    
C115  H55   S    
C52   C58   A    
C10   H101  S    
C37   H42   S    
C26   C36   S    
C83   C85   A    
C12   C14   S    
C28   C33   S    
C45   H86   S    
C114  H58   S    
C46   C110  S    
C22   H7    S    
C2    C24   S    
C106  O19   A    
C77   C103  S    
C29   H54   S    
C13   C101  S    
C26   H21   S    
C52   C118  S    
C97   C100  A    
C7    H88   S    
C12   H109  S    
C88   O10   A    
C77   C80   A    
C117  H62   S    
C87   O9    A    
O22   Zn7   S    
C33   C36   S    
C45   C48   A    
C23   C34   S    
C82   C95   A    
C46   H44   S    
C90   H46   S    
C64   O21   A    
C4    H85   S    
C42   H75   S    
C109  H1    S    
C51   C116  S    
C84   C86   A    
C4    C5    S    
C24   C90   S    
C5    H81   S    
C7    H89   S    
C119  C120  S    
C117  H61   S    
C4    H84   S    
C6    C7    S    
C57   H45   S    
C9    H92   S    
C29   C32   S    
C114  H59   S    
C63   O7    A    
C116  H63   S    
C98   C100  A    
C27   H18   S    
C108  C111  S    
C30   C36   S    
O26   Zn5   S    
C67   C70   A    
C69   H27   S    
C6    C62   S    
C28   C30   S    
C33   C87   S    
C103  O11   A    
C20   H3    S    
C29   C31   S    
C110  H31   S    
C53   C121  S    
C63   O20   A    
C30   C32   S    
C81   C94   A    
C121  H79   S    
C28   H52   S    
C38   H53   S    
C6    H91   S    
C18   H111  S    
C3    H76   S    
C97   H43   S    
C11   H98   S    
C48   C50   A    
C27   H19   S    
O1    Zn3   S    
C41   H64   S    
C104  O17   A    
C23   C25   S    
C1    C55   S    
C118  H72   S    
C75   C78   A    
C40   O2    A    
C115  H56   S    
C8    H96   S    
C10   C11   S    
C28   C34   S    
C59   H24   S    
C61   C65   A    
C99   C102  A    
O8    Zn4   S    
C88   O23   A    
C16   C91   S    
C55   C58   A    
C110  C113  S    
C67   H26   S    
C14   C15   S    
C79   C101  S    
C70   C72   A    
C19   H5    S    
C50   C114  S    
C120  H67   S    
C19   C30   S    
O12   Zn8   S    
C74   H33   S    
C115  H57   S    
C85   C102  S    
C117  H60   S    
O2    Zn6   S    
C13   C68   S    
C32   C88   S    
