data_mof_unit_23981.cif
_audit_creation_date              2012-12-11T15:30:34-0500
_audit_creation_method            fapswitch 2.2
_symmetry_space_group_name_H-M    P1
_symmetry_Int_Tables_number       1
_space_group_crystal_system       triclinic
_cell_length_a                    6.94873
_cell_length_b                    20.453075
_cell_length_c                    24.472684
_cell_angle_alpha                 89.611597
_cell_angle_beta                  90.429868
_cell_angle_gamma                 89.436244
_cell_volume                      3477.78079756

loop_
_atom_site_label
_atom_site_type_symbol
_atom_type_description
_atom_site_fract_x
_atom_site_fract_y
_atom_site_fract_z
_atom_type_partial_charge
O1    O     O_R   0.507310 0.423620 0.460450 -0.537012
O2    O     O_R   0.170760 0.556060 0.437190 -0.537101
O3    O     O_R   0.004040 0.576380 0.539550 -0.536754
C1    C     C_R   0.338840 0.576093 0.421187 0.728333
O4    O     O_R   0.177350 0.422870 0.454070 -0.539837
O5    O     O_R   0.010680 0.442240 0.556560 -0.534769
C2    C     C_R   0.346727 0.399417 0.442887 0.724836
O6    O     O_R   0.500670 0.557760 0.443440 -0.535637
O7    O     O_3   0.340380 0.506510 0.533610 -0.367151
V1    V     V_3+5 0.064130 0.498790 0.493770 1.415996
O8    O     O_R   0.681170 0.443940 0.562810 -0.538487
C3    C     C_R   0.850840 0.423830 0.578643 0.728850
O9    O     O_R   0.674570 0.577130 0.545930 -0.537801
C4    C     C_R   0.842583 0.601129 0.556455 0.694692
V2    V     V_3+5 0.564560 0.501210 0.506230 1.418876
O10   O     O_3   0.838170 0.493490 0.466390 -0.367524
C5    C     C_R   0.972319 0.839830 0.909148 -0.042550
C6    C     C_R   0.846168 0.662055 0.588225 -0.042000
C7    C     C_R   0.971982 0.721768 0.906495 -0.168307
C8    C     C_R   0.967406 0.779500 0.936024 -0.216489
C9    C     C_R   0.975645 0.842446 0.851099 0.101727
C10   C     C_R   0.946849 0.783389 0.820530 0.075142
C11   C     C_R   0.963634 0.723091 0.849300 0.110790
C12   C     C_R   0.900738 0.780977 0.763163 0.061639
C13   C     C_R   0.916049 0.720469 0.734055 0.058651
C14   C     C_R   0.956645 0.663011 0.764321 -0.188639
C15   C     C_R   0.971721 0.664181 0.820924 -0.192880
C16   C     C_R   0.819352 0.835275 0.735502 -0.199388
C17   C     C_R   0.778158 0.833587 0.679974 -0.209352
C18   C     C_R   0.808730 0.776750 0.649995 0.144415
C19   C     C_R   0.877612 0.718930 0.676314 0.086682
C20   C     C_R   0.761807 0.776727 0.594139 -0.165478
C21   C     C_R   0.778024 0.719716 0.563786 -0.169137
C22   C     C_R   0.898838 0.661742 0.643847 -0.219028
H1    H     H_    0.990857 0.618261 0.842788 0.118593
H2    H     H_    0.951909 0.616083 0.660580 0.095445
H3    H     H_    0.734990 0.720344 0.521130 0.103998
H4    H     H_    0.717261 0.876940 0.660532 0.122286
H5    H     H_    0.978806 0.675675 0.928582 0.116844
H6    H     H_    0.968750 0.777106 0.980279 0.112098
H7    H     H_    0.965248 0.615460 0.745823 0.119514
H8    H     H_    0.776590 0.878932 0.756883 0.149608
H9    H     H_    0.707484 0.820682 0.574135 0.110812
C23   C     C_3   0.772042 0.258874 0.802684 -0.332398
C24   C     C_3   0.120812 0.241176 0.779526 -0.344886
C25   C     C_3   0.099929 0.290199 0.730885 -0.390224
H10   H     H_    0.793373 0.358768 0.770639 0.135348
H11   H     H_    0.808757 0.284639 0.841231 0.138913
H12   H     H_    0.235260 0.204524 0.770267 0.139705
H13   H     H_    0.167304 0.267850 0.816769 0.146465
H14   H     H_    0.139099 0.340039 0.744861 0.151316
H15   H     H_    0.203195 0.276581 0.698253 0.138831
C26   C     C_1   0.863034 0.378029 0.624115 -0.196209
C27   C     C_3   0.927742 0.206119 0.790429 0.263733
C28   C     C_3   0.755128 0.309505 0.755127 -0.322541
C29   C     C_3   0.891195 0.290703 0.707547 0.287091
C30   C     C_3   0.845966 0.219410 0.688386 0.049567
C31   C     C_3   0.867334 0.170267 0.737460 -0.322741
C32   C     C_1   0.875026 0.339068 0.661748 -0.089203
C33   C     C_1   0.947210 0.159146 0.837026 -0.091778
C34   C     C_1   0.960700 0.121045 0.875237 -0.193439
H16   H     H_    0.730569 0.143793 0.744852 0.150150
H17   H     H_    0.977460 0.132436 0.727362 0.119473
H18   H     H_    0.630240 0.235167 0.808821 0.138750
H19   H     H_    0.603409 0.313063 0.740631 0.145341
H20   H     H_    0.954431 0.205623 0.657090 0.124791
C35   C     C_3   0.599414 0.699808 0.264997 0.047562
C36   C     C_3   0.238960 0.695844 0.244885 -0.324367
C37   C     C_3   0.268782 0.744351 0.196430 -0.331587
H21   H     H_    0.657402 0.724135 0.177873 0.150450
H22   H     H_    0.092847 0.703729 0.262132 0.137821
H23   H     H_    0.243260 0.644721 0.229860 0.144092
H24   H     H_    0.298498 0.716303 0.158560 0.139194
H25   H     H_    0.133691 0.772895 0.189152 0.139167
C38   C     C_1   0.475636 0.878067 0.124534 -0.195292
C39   C     C_3   0.393064 0.706083 0.290276 0.285689
C40   C     C_3   0.623024 0.749693 0.216683 -0.325844
C41   C     C_3   0.437628 0.791547 0.208305 0.262061
C42   C     C_3   0.394525 0.827336 0.262617 -0.339099
C43   C     C_3   0.369440 0.777588 0.310462 -0.387785
C44   C     C_1   0.460747 0.839370 0.162335 -0.091905
C45   C     C_1   0.365791 0.659346 0.336916 -0.087700
C46   C     C_1   0.349118 0.621315 0.375103 -0.195995
H26   H     H_    0.477498 0.787662 0.343053 0.137057
H27   H     H_    0.224715 0.784555 0.328858 0.149795
H28   H     H_    0.513908 0.861230 0.272556 0.140376
H29   H     H_    0.705880 0.712597 0.297386 0.119911
H30   H     H_    0.746752 0.782207 0.225605 0.114278
H31   H     H_    0.261086 0.857470 0.257989 0.146020
C47   C     C_R   0.472372 0.161793 0.088747 -0.041936
C48   C     C_R   0.357488 0.339340 0.409690 -0.087961
C49   C     C_R   0.546933 0.276731 0.094999 -0.165107
C50   C     C_R   0.533601 0.219826 0.064439 -0.169384
C51   C     C_R   0.423811 0.161023 0.144480 -0.217982
C52   C     C_R   0.442081 0.218147 0.177141 0.085683
C53   C     C_R   0.503942 0.276321 0.150927 0.143793
C54   C     C_R   0.407654 0.219318 0.234973 0.061013
C55   C     C_R   0.419958 0.279578 0.264308 0.074073
C56   C     C_R   0.494192 0.334353 0.236685 -0.197712
C57   C     C_R   0.531448 0.333121 0.181073 -0.211969
C58   C     C_R   0.373884 0.161772 0.265074 -0.196382
C59   C     C_R   0.365027 0.162437 0.321729 -0.186964
C60   C     C_R   0.372192 0.221180 0.351036 0.090800
C61   C     C_R   0.378518 0.281563 0.321831 0.039217
C62   C     C_R   0.373528 0.220640 0.409025 0.179100
C63   C     C_R   0.375978 0.279795 0.437262 -0.212068
C64   C     C_R   0.344782 0.340707 0.351866 0.095152
H32   H     H_    0.586861 0.376813 0.161695 0.122937
H33   H     H_    0.383065 0.279597 0.481555 0.115120
H34   H     H_    0.351672 0.115757 0.342319 0.134826
H35   H     H_    0.595873 0.320979 0.075078 0.109908
H36   H     H_    0.573354 0.220851 0.021712 0.103865
H37   H     H_    0.534063 0.378115 0.258181 0.150349
H38   H     H_    0.366586 0.114361 0.246336 0.119872
O11   O     O_R   0.323590 0.942280 0.056590 -0.534865
O12   O     O_R   0.647030 0.077140 0.045940 -0.537815
O13   O     O_R   0.813570 0.057750 0.943430 -0.535166
C65   C     C_R   0.478059 0.101066 0.056627 0.694526
O14   O     O_R   0.653510 0.943950 0.062820 -0.537809
O15   O     O_R   0.820100 0.923600 0.960440 -0.537131
C66   C     C_R   0.485465 0.923806 0.078762 0.725932
O16   O     O_R   0.317060 0.076430 0.039590 -0.536462
O17   O     O_3   0.483830 0.993520 0.966410 -0.367278
V3    V     V_3+5 0.760140 0.001200 0.006230 1.418757
O18   O     O_R   0.149560 0.922820 0.954030 -0.540262
C67   C     C_R   0.981096 0.899319 0.942973 0.713569
O19   O     O_R   0.143080 0.056020 0.937150 -0.538258
C68   C     C_R   0.973350 0.075964 0.921205 0.730079
V4    V     V_3+5 0.259690 0.998730 0.993720 1.415667
O20   O     O_3   0.986120 0.006480 0.033580 -0.366924
C69   C     C_3   0.647282 0.212826 0.660678 -0.829376
H39   H     H_    0.529284 0.221848 0.690040 0.214852
H40   H     H_    0.631671 0.247328 0.625695 0.217713
H41   H     H_    0.631308 0.162500 0.644587 0.209588
C70   C     C_3   0.651491 0.629942 0.246735 -0.822682
H42   H     H_    0.802795 0.628416 0.232416 0.206141
H43   H     H_    0.639660 0.594766 0.281248 0.218741
H44   H     H_    0.557325 0.613907 0.212660 0.218036
C71   C     C_3   0.266774 0.402614 0.325010 -0.809162
H45   H     H_    0.378036 0.441220 0.325238 0.191497
H46   H     H_    0.213179 0.394205 0.282901 0.219044
H47   H     H_    0.139376 0.420854 0.347593 0.215526
H48   H     H_    0.376122 0.115086 0.161127 0.095347
C72   C     C_3   0.377400 0.157800 0.441798 -0.807827
H49   H     H_    0.383531 0.166910 0.486478 0.208183
H50   H     H_    0.245189 0.129456 0.433293 0.206089
H51   H     H_    0.506332 0.128276 0.430941 0.207706
C73   C     C_3   0.040288 0.905602 0.824525 -0.828800
H52   H     H_    0.092467 0.898238 0.782310 0.220298
H53   H     H_    0.922139 0.942532 0.825188 0.194316
H54   H     H_    0.165861 0.925537 0.846955 0.215507

loop_
_geom_bond_atom_site_label_1
_geom_bond_atom_site_label_2
_ccdc_geom_bond_type
C31   H16   S    
C70   H44   S    
C40   C41   S    
C28   C29   S    
C13   C19   A    
C58   C59   A    
O11   C66   A    
C4    C6    S    
C35   C70   S    
C52   C53   A    
C35   C40   S    
C73   H54   S    
C30   H20   S    
C1    O6    A    
C69   H41   S    
C62   C72   S    
C54   C55   A    
C26   C32   T    
C70   H42   S    
C27   C33   S    
C24   C25   S    
C23   H18   S    
C14   C15   A    
C43   H27   S    
C51   H48   S    
C47   C65   S    
C16   C17   A    
O13   V3    S    
C73   H53   S    
O5    C3    A    
C18   C19   A    
C8    H6    S    
C71   H47   S    
O15   C67   A    
C5    C67   S    
V2    O10   S    
C41   C44   S    
C25   H15   S    
C49   C53   A    
C5    C8    A    
C29   C30   S    
C65   O16   A    
O8    V2    S    
C7    C8    A    
C40   H30   S    
C36   C37   S    
C17   H4    S    
C37   H24   S    
O1    V2    S    
C11   C15   A    
O7    V1    S    
O16   V4    S    
C3    C26   S    
C23   C27   S    
C43   H26   S    
C38   C66   S    
O9    C4    A    
O17   V4    S    
H21   C40   S    
C58   H38   S    
C48   C63   A    
C37   C41   S    
C51   C52   A    
C72   H51   S    
C28   H19   S    
C47   C51   A    
O14   C66   A    
C71   H45   S    
C57   H32   S    
C9    C73   S    
C48   C64   A    
O17   V3    S    
C12   C13   A    
C72   H50   S    
C39   C45   S    
O4    C2    A    
C41   C42   S    
C38   C44   T    
C15   H1    S    
C13   C14   A    
O14   V3    S    
C25   H14   S    
C21   H3    S    
C33   C34   T    
O13   C68   A    
O2    C1    A    
O19   V4    S    
O5    V1    S    
C17   C18   A    
O18   V4    S    
C56   C57   A    
C24   H12   S    
C36   H23   S    
C2    C48   S    
C19   C22   A    
V3    O20   S    
C37   H25   S    
C60   C62   A    
C73   H52   S    
C6    C22   A    
O3    C4    A    
C7    H5    S    
C24   C27   S    
C45   C46   T    
O6    V2    S    
O9    V2    S    
O18   C67   A    
C10   C12   A    
C59   H34   S    
C39   C43   S    
C69   H39   S    
O2    V1    S    
C7    C11   A    
C47   C50   A    
H10   C28   S    
V4    O20   S    
C27   C31   S    
C31   H17   S    
C70   H43   S    
O12   V3    S    
O1    C2    A    
C30   C69   S    
C12   C16   A    
C72   H49   S    
C69   H40   S    
C56   H37   S    
O8    C3    A    
C52   C54   A    
C49   H35   S    
O19   C68   A    
O11   V4    S    
C36   C39   S    
C62   C63   A    
C35   H29   S    
C29   C32   S    
C20   C21   A    
O7    V2    S    
O4    V1    S    
O3    V1    S    
V1    O10   S    
C18   C20   A    
C71   H46   S    
C23   C28   S    
C30   C31   S    
C1    C46   S    
C24   H13   S    
C36   H22   S    
C55   C61   A    
C53   C57   A    
C16   H8    S    
C49   C50   A    
C20   H9    S    
O12   C65   A    
C34   C68   S    
C22   H2    S    
C42   H28   S    
C64   C71   S    
C59   C60   A    
C6    C21   A    
C5    C9    A    
C42   H31   S    
C50   H36   S    
C42   C43   S    
O15   V3    S    
C55   C56   A    
C25   C29   S    
C60   C61   A    
C10   C11   A    
C35   C39   S    
C9    C10   A    
C61   C64   A    
C54   C58   A    
C23   H11   S    
C14   H7    S    
C63   H33   S    
