data_mof_unit_22865.cif
_audit_creation_date              2013-03-05T15:45:10-0500
_audit_creation_method            fapswitch 2.2
_symmetry_space_group_name_H-M    P1
_symmetry_Int_Tables_number       1
_space_group_crystal_system       triclinic
_cell_length_a                    24.625763
_cell_length_b                    17.058492
_cell_length_c                    15.612177
_cell_angle_alpha                 89.474654
_cell_angle_beta                  50.581547
_cell_angle_gamma                 89.138443
_cell_volume                      5065.933643

loop_
_atom_site_label
_atom_site_type_symbol
_atom_site_description
_atom_site_fract_x
_atom_site_fract_y
_atom_site_fract_z
_atom_type_partial_charge
C1    C     C_R   0.353422 0.145937 0.750870 -0.117266
C2    C     C_R   0.667693 0.896937 0.194725 -0.080683
C3    C     C_R   0.646342 0.145000 0.248759 -0.089963
C4    C     C_R   0.333014 0.894372 0.803493 -0.081794
C5    C     C_R   0.853374 0.645898 0.750962 -0.117305
C6    C     C_R   0.167685 0.396913 0.194740 -0.081880
C7    C     C_R   0.146361 0.644983 0.248703 -0.088740
C8    C     C_R   0.832972 0.394699 0.803729 -0.078104
H1    H     H_    0.307795 0.163982 0.761460 0.187355
H2    H     H_    0.720455 0.907597 0.162932 0.200511
H3    H     H_    0.692170 0.161308 0.238397 0.162076
H4    H     H_    0.279961 0.900660 0.833642 0.190051
H5    H     H_    0.807739 0.663935 0.761566 0.187481
H6    H     H_    0.220447 0.407623 0.162923 0.200527
H7    H     H_    0.192220 0.661272 0.238261 0.163353
H8    H     H_    0.779899 0.401399 0.834118 0.189521
N1    N     N_R   0.388930 0.078160 0.705470 -0.066752
N2    N     N_R   0.611070 0.921840 0.294530 -0.084752
N3    N     N_R   0.611070 0.078160 0.294530 -0.070987
N4    N     N_R   0.388930 0.921840 0.705470 -0.083169
N5    N     N_R   0.888930 0.578160 0.705470 -0.067003
N6    N     N_R   0.111070 0.421840 0.294530 -0.085075
N7    N     N_R   0.111070 0.578160 0.294530 -0.071343
N8    N     N_R   0.888930 0.421840 0.705470 -0.083355
C9    C     C_R   0.614427 0.106109 0.590514 -0.038311
C10   C     C_R   0.416393 0.852816 0.407668 -0.095653
C11   C     C_R   0.382868 0.098268 0.409662 -0.043744
C12   C     C_R   0.587449 0.853082 0.590567 -0.052318
C13   C     C_R   0.114031 0.606965 0.590758 -0.043376
C14   C     C_R   0.915749 0.352970 0.407884 -0.112330
C15   C     C_R   0.882880 0.598267 0.409645 -0.043048
C16   C     C_R   0.087427 0.353057 0.590552 -0.050347
H9    H     H_    0.597155 0.102971 0.673437 0.205281
H10   H     H_    0.443616 0.836415 0.322684 0.184132
H11   H     H_    0.403933 0.091733 0.325489 0.227926
H12   H     H_    0.557930 0.836643 0.675670 0.189212
H13   H     H_    0.096841 0.603801 0.673625 0.207088
H14   H     H_    0.942687 0.336547 0.322991 0.183891
H15   H     H_    0.903953 0.591712 0.325473 0.227894
H16   H     H_    0.057889 0.336594 0.675649 0.188971
N9    N     N_R   0.580500 0.077840 0.556650 -0.084874
N10   N     N_R   0.419500 0.922160 0.443350 -0.069604
N11   N     N_R   0.419500 0.077840 0.443350 -0.093304
N12   N     N_R   0.580500 0.922160 0.556650 -0.073936
N13   N     N_R   0.080500 0.577840 0.556650 -0.085539
N14   N     N_R   0.919500 0.422160 0.443350 -0.067031
N15   N     N_R   0.919500 0.577840 0.443350 -0.093339
N16   N     N_R   0.080500 0.422160 0.556650 -0.073608
C17   C     C_R   0.688012 0.104783 0.407120 0.356306
C18   C     C_R   0.340202 0.853822 0.591131 0.313601
C19   C     C_R   0.310054 0.100099 0.591458 0.321474
C20   C     C_R   0.665769 0.856546 0.405913 0.302145
C21   C     C_R   0.187784 0.605431 0.407327 0.360103
C22   C     C_R   0.840115 0.353997 0.591448 0.327243
C23   C     C_R   0.810059 0.600106 0.591438 0.320280
C24   C     C_R   0.165744 0.356524 0.405909 0.301609
N17   N     N_R   0.626210 0.077590 0.443410 -0.102863
N18   N     N_R   0.373790 0.922410 0.556590 -0.101746
N19   N     N_R   0.373790 0.077590 0.556590 -0.104946
N20   N     N_R   0.626210 0.922410 0.443410 -0.098389
N21   N     N_R   0.126210 0.577590 0.443410 -0.103233
N22   N     N_R   0.873790 0.422410 0.556590 -0.103352
N23   N     N_R   0.873790 0.577590 0.556590 -0.105136
N24   N     N_R   0.126210 0.422410 0.443410 -0.098230
C25   C     C_R   0.558637 0.143566 0.243040 0.324384
C26   C     C_R   0.422551 0.894787 0.804286 0.321279
C27   C     C_R   0.440663 0.142959 0.757239 0.345045
C28   C     C_R   0.577607 0.896364 0.195423 0.289385
C29   C     C_R   0.058635 0.643557 0.243031 0.324118
C30   C     C_R   0.922557 0.394903 0.804340 0.321271
C31   C     C_R   0.940558 0.642889 0.757462 0.342751
C32   C     C_R   0.077564 0.396212 0.195518 0.287638
N25   N     N_R   0.554800 0.077270 0.294580 -0.102981
N26   N     N_R   0.445200 0.922730 0.705420 -0.104939
N27   N     N_R   0.445200 0.077270 0.705420 -0.103151
N28   N     N_R   0.554800 0.922730 0.294580 -0.100894
N29   N     N_R   0.054800 0.577270 0.294580 -0.102843
N30   N     N_R   0.945200 0.422730 0.705420 -0.104801
N31   N     N_R   0.945200 0.577270 0.705420 -0.103024
N32   N     N_R   0.054800 0.422730 0.294580 -0.100746
C33   C     C_R   0.385118 0.188394 0.783302 -0.048911
C34   C     C_R   0.648534 0.878378 0.131100 -0.042018
C35   C     C_R   0.614151 0.188194 0.216294 -0.038880
C36   C     C_R   0.352221 0.875297 0.867261 -0.031768
C37   C     C_R   0.885011 0.688311 0.783520 -0.048887
C38   C     C_R   0.148506 0.378261 0.131164 -0.042872
C39   C     C_R   0.114156 0.688176 0.216259 -0.038767
C40   C     C_R   0.852185 0.375601 0.867470 -0.031866
C41   C     C_R   0.680965 0.124753 0.498193 -0.063547
C42   C     C_R   0.366463 0.808796 0.498814 0.021834
C43   C     C_R   0.312510 0.110114 0.500436 -0.062582
C44   C     C_R   0.638935 0.808285 0.498068 -0.042158
C45   C     C_R   0.180282 0.626407 0.498557 -0.062617
C46   C     C_R   0.865819 0.309113 0.499399 0.020992
C47   C     C_R   0.812525 0.610120 0.500405 -0.062252
C48   C     C_R   0.138910 0.308252 0.498054 -0.042699
Ni1   Ni    Ni4+2 0.382710 1.000000 0.629850 0.299952
Ni2   Ni    Ni4+2 0.617290 0.000000 0.370150 0.299338
Ni3   Ni    Ni4+2 0.882710 0.500000 0.629850 0.299481
Ni4   Ni    Ni4+2 0.117290 0.500000 0.370150 0.299251
Ni5   Ni    Ni4+2 0.513020 1.000000 0.629850 0.310180
Ni6   Ni    Ni4+2 0.486980 0.000000 0.370150 0.310439
Ni7   Ni    Ni4+2 0.013020 0.500000 0.629850 0.310229
Ni8   Ni    Ni4+2 0.986980 0.500000 0.370150 0.310633
C49   C     C_R   0.184903 0.137804 0.596289 -0.165709
C50   C     C_R   0.721541 0.693973 0.399848 -0.200738
C51   C     C_R   0.784239 0.132353 0.485460 -0.178446
C52   C     C_R   0.270458 0.795848 0.498894 -0.216759
C53   C     C_R   0.684923 0.637788 0.596239 -0.167573
C54   C     C_R   0.221508 0.193909 0.399873 -0.200762
C55   C     C_R   0.280112 0.632568 0.494875 -0.187605
C56   C     C_R   0.766222 0.294777 0.508848 -0.210744
H17   H     H_    0.165406 0.106407 0.670770 0.230711
H18   H     H_    0.729897 0.705404 0.324645 0.221920
H19   H     H_    0.789587 0.069106 0.476938 0.203221
H20   H     H_    0.267101 0.859432 0.500690 0.194766
H21   H     H_    0.665426 0.606369 0.670706 0.230844
H22   H     H_    0.229849 0.205293 0.324676 0.221851
H23   H     H_    0.282608 0.569049 0.492781 0.201787
H24   H     H_    0.760157 0.358097 0.516661 0.193541
C57   C     C_R   0.639819 0.690128 0.598483 0.337572
C58   C     C_R   0.266100 0.140981 0.397723 0.337761
C59   C     C_R   0.328712 0.675484 0.492660 0.389459
C60   C     C_R   0.719187 0.251841 0.509591 0.390004
C61   C     C_R   0.139795 0.190120 0.598507 0.337130
C62   C     C_R   0.766139 0.641044 0.397670 0.337018
C63   C     C_R   0.831773 0.175834 0.485270 0.377062
C64   C     C_R   0.222668 0.753495 0.500849 0.396109
C65   C     C_R   0.665471 0.729662 0.499432 -0.052958
C66   C     C_R   0.253757 0.125550 0.497788 -0.058375
C67   C     C_R   0.322682 0.757779 0.494844 -0.068072
C68   C     C_R   0.728882 0.170237 0.497867 -0.060218
C69   C     C_R   0.165444 0.229627 0.499438 -0.052908
C70   C     C_R   0.753782 0.625559 0.497738 -0.059091
C71   C     C_R   0.821521 0.257654 0.497281 -0.065618
C72   C     C_R   0.228368 0.671439 0.498351 -0.054760
C73   C     C_2   0.640352 0.261103 0.151960 -0.051477
C74   C     C_2   0.304426 0.849092 0.983283 -0.047926
C75   C     C_2   0.358770 0.261462 0.847193 -0.040392
C76   C     C_2   0.696153 0.854010 0.014315 -0.063975
C77   C     C_2   0.140352 0.761069 0.151900 -0.051577
C78   C     C_2   0.804382 0.349447 0.983533 -0.047595
C79   C     C_2   0.858623 0.761344 0.847483 -0.040803
C80   C     C_2   0.196136 0.353942 0.014349 -0.063878
C81   C     C_2   0.691076 0.301562 0.139377 -0.090889
C82   C     C_2   0.234591 0.853049 0.043665 -0.109604
C83   C     C_2   0.309042 0.304536 0.858024 -0.108802
C84   C     C_2   0.765892 0.856837 0.953184 -0.092088
C85   C     C_2   0.191064 0.801539 0.139322 -0.087989
C86   C     C_2   0.734543 0.353180 0.043821 -0.109129
C87   C     C_2   0.809027 0.804526 0.858082 -0.111994
C88   C     C_2   0.265880 0.356765 0.953228 -0.090527
N33   N     N_R   0.753314 0.090640 0.298170 0.235849
O1    O     O_R   0.810230 0.126175 0.264442 -0.328573
O2    O     O_R   0.756498 0.040783 0.232522 -0.375763
N34   N     N_R   0.273232 0.841276 0.697181 0.219460
O3    O     O_R   0.224300 0.894756 0.739385 -0.321519
O4    O     O_R   0.256432 0.771206 0.739731 -0.354697
N35   N     N_R   0.248304 0.098891 0.705562 0.215800
O5    O     O_R   0.211324 0.163119 0.750713 -0.386508
O6    O     O_R   0.241508 0.044043 0.769983 -0.359724
N36   N     N_R   0.738815 0.858282 0.310477 0.239890
O7    O     O_R   0.781572 0.899219 0.313792 -0.292074
O8    O     O_R   0.763701 0.817920 0.221919 -0.398282
N37   N     N_R   0.253333 0.591163 0.298724 0.236202
O9    O     O_R   0.310354 0.625759 0.266206 -0.329362
O10   O     O_R   0.256792 0.541423 0.232707 -0.375560
N38   N     N_R   0.773504 0.341396 0.698043 0.218031
O11   O     O_R   0.724252 0.394502 0.740457 -0.325266
O12   O     O_R   0.757199 0.271401 0.740851 -0.348584
N39   N     N_R   0.748300 0.598919 0.705534 0.215723
O13   O     O_R   0.711330 0.663155 0.750661 -0.386874
O14   O     O_R   0.741467 0.544060 0.769971 -0.360258
N40   N     N_R   0.238769 0.358204 0.310389 0.239788
O15   O     O_R   0.281557 0.399318 0.313439 -0.291996
O16   O     O_R   0.263586 0.317754 0.221927 -0.398925
N41   N     N_R   0.519679 0.159351 0.205617 0.217730
O17   O     O_R   0.492920 0.228907 0.218978 -0.344770
O18   O     O_R   0.523834 0.110541 0.138175 -0.276452
N42   N     N_R   0.458240 0.909017 0.847962 0.245543
O19   O     O_R   0.438167 0.875620 0.938986 -0.293891
O20   O     O_R   0.512522 0.954556 0.795138 -0.360386
N43   N     N_R   0.477220 0.156203 0.798879 0.215673
O21   O     O_R   0.502133 0.225256 0.789856 -0.334547
O22   O     O_R   0.473453 0.104832 0.864400 -0.277563
N44   N     N_R   0.541010 0.912067 0.153068 0.242353
O23   O     O_R   0.560338 0.878752 0.062814 -0.312040
O24   O     O_R   0.486245 0.958366 0.206927 -0.338970
N45   N     N_R   0.019675 0.659336 0.205612 0.217686
O25   O     O_R   0.992904 0.728887 0.218990 -0.343592
O26   O     O_R   0.023850 0.610536 0.138142 -0.276129
N46   N     N_R   0.958334 0.409118 0.847874 0.245533
O27   O     O_R   0.938240 0.375844 0.938979 -0.293866
O28   O     O_R   0.012714 0.454518 0.794851 -0.359883
N47   N     N_R   0.976836 0.655958 0.799614 0.215927
O29   O     O_R   0.001645 0.724989 0.791047 -0.338768
O30   O     O_R   0.972964 0.604392 0.865033 -0.276374
N48   N     N_R   0.040915 0.411711 0.153219 0.242570
O31   O     O_R   0.059888 0.377774 0.063536 -0.312140
O32   O     O_R   0.986371 0.458333 0.206697 -0.337558
N49   N     N_R   0.568069 0.697398 0.697860 0.234549
O33   O     O_R   0.517703 0.698187 0.691845 -0.364181
O34   O     O_R   0.552210 0.690717 0.794546 -0.283459
N50   N     N_R   0.318582 0.099194 0.297224 0.242074
O35   O     O_R   0.326496 0.023908 0.300692 -0.329175
O36   O     O_R   0.349949 0.132917 0.201461 -0.259223
N51   N     N_R   0.382093 0.635269 0.489225 0.259688
O37   O     O_R   0.376799 0.560606 0.510843 -0.322281
O38   O     O_R   0.437981 0.671292 0.459250 -0.355299
N52   N     N_R   0.662281 0.291804 0.522745 0.255195
O39   O     O_R   0.634319 0.354748 0.583530 -0.298230
O40   O     O_R   0.644373 0.272103 0.463464 -0.398745
N53   N     N_R   0.068040 0.197380 0.697872 0.234439
O41   O     O_R   0.017682 0.198139 0.691840 -0.361935
O42   O     O_R   0.052172 0.190725 0.794568 -0.283331
N54   N     N_R   0.818658 0.599328 0.297123 0.241849
O43   O     O_R   0.826579 0.524031 0.300481 -0.329759
O44   O     O_R   0.850054 0.633134 0.201404 -0.258937
N55   N     N_R   0.888608 0.136624 0.473331 0.253433
O45   O     O_R   0.920717 0.169964 0.504533 -0.345145
O46   O     O_R   0.906239 0.064969 0.436322 -0.319295
N56   N     N_R   0.168576 0.794529 0.507203 0.254856
O47   O     O_R   0.142736 0.860269 0.561647 -0.303958
O48   O     O_R   0.151410 0.772470 0.447725 -0.403076
H25   H     H_    0.210562 0.882714 0.013221 0.167294
H26   H     H_    0.708974 0.286268 0.185545 0.166607
H27   H     H_    0.789968 0.884793 0.983664 0.170440
H28   H     H_    0.291409 0.290701 0.811481 0.164878
H29   H     H_    0.710488 0.382722 0.013348 0.166756
H30   H     H_    0.208940 0.786276 0.185530 0.169411
H31   H     H_    0.289951 0.384670 0.983744 0.170166
H32   H     H_    0.791472 0.790748 0.811414 0.164517
H33   H     H_    0.326416 0.816780 0.015344 0.197340
H34   H     H_    0.624019 0.276565 0.103568 0.196540
H35   H     H_    0.674243 0.822850 0.982373 0.198932
H36   H     H_    0.374472 0.275390 0.896451 0.201284
H37   H     H_    0.826385 0.317245 0.015649 0.197333
H38   H     H_    0.124044 0.776490 0.103461 0.196654
H39   H     H_    0.174237 0.322862 0.982338 0.198937
H40   H     H_    0.874226 0.775211 0.896892 0.201623

loop_
_geom_bond_atom_site_label_1
_geom_bond_atom_site_label_2
_geom_bond_distance
_ccdc_geom_bond_type
C78   H37   1.085239 S    
N39   O13   1.302116 A    
C33   C75   1.464970 S    
C77   H38   1.086849 S    
C2    N2    1.337073 A    
N8    Ni3   1.841079 S    
N49   O34   1.301384 A    
N49   O33   1.301810 A    
C29   N29   1.351000 A    
C84   C87   1.456710 S    
C84   H27   1.084577 S    
C45   C72   1.419437 S    
C30   C40   1.387487 A    
N27   Ni5   1.838100 S    
C76   C84   1.335177 D    
C31   N31   1.349471 A    
N50   O36   1.301464 A    
C27   N27   1.349326 A    
C53   H21   1.075551 S    
C43   C66   1.492879 S    
N53   O41   1.301820 A    
C17   C41   1.364380 A    
C11   C43   1.388383 A    
N39   O14   1.299458 A    
C75   C83   1.334299 D    
N37   O9    1.300713 A    
C41   C68   1.419237 S    
C25   N41   1.426681 S    
C50   H18   1.071912 S    
C85   H30   1.085549 S    
C49   H17   1.075536 S    
N34   O3    1.299253 A    
N54   O44   1.301466 A    
C56   C60   1.373472 A    
N20   Ni2   1.841412 S    
N43   O22   1.299381 A    
N15   N23   1.365783 A    
N5    Ni3   1.859995 S    
C15   C47   1.388306 A    
C55   C72   1.397768 A    
N16   N24   1.365783 A    
C30   N30   1.349887 A    
C1    C33   1.384118 A    
C26   N26   1.349790 A    
C25   N25   1.351042 A    
C60   C68   1.402671 A    
C55   H23   1.083966 S    
N33   O1    1.300644 A    
C30   N46   1.437660 S    
C58   N50   1.434508 S    
N45   O26   1.299642 A    
N40   O15   1.300360 A    
C52   C67   1.397153 A    
C34   C76   1.468402 S    
N10   N18   1.365779 A    
C20   N20   1.344978 A    
C19   C43   1.392474 A    
C31   C37   1.379923 A    
C20   N36   1.433061 S    
C61   N53   1.435265 S    
N34   O4    1.300947 A    
C18   C42   1.380986 A    
C7    C39   1.383530 A    
N4    Ni1   1.841079 S    
N35   O5    1.302115 A    
C18   N34   1.429452 S    
N41   O18   1.299644 A    
C23   N23   1.344596 A    
C76   H35   1.085139 S    
N23   Ni3   1.841412 S    
C24   N24   1.345012 A    
C3    N3    1.338549 A    
N48   O31   1.299922 A    
N15   Ni8   1.838558 S    
N12   Ni5   1.838560 S    
C4    H4    1.075029 S    
N13   Ni7   1.859397 S    
C5    H5    1.067342 S    
C81   C86   1.457034 S    
C29   C39   1.386754 A    
N11   N19   1.365783 A    
C88   H31   1.084556 S    
C5    C37   1.383985 A    
N32   Ni8   1.838104 S    
N38   O12   1.300979 A    
N7    Ni4   1.841081 S    
C53   C70   1.402648 A    
C36   C74   1.469559 S    
C8    H8    1.074861 S    
C15   N15   1.342160 A    
C16   N16   1.340146 A    
N31   Ni7   1.838100 S    
N37   O10   1.300718 A    
C17   N33   1.435116 S    
N18   Ni1   1.861131 S    
C21   N21   1.331941 A    
N10   Ni6   1.859397 S    
C62   C70   1.412145 A    
C40   C78   1.469770 S    
N3    Ni2   1.841081 S    
C10   H10   1.076864 S    
N36   O8    1.299962 A    
N53   O42   1.301380 A    
N28   Ni6   1.838104 S    
N12   N20   1.365783 A    
N6    Ni4   1.859999 S    
C63   N55   1.443559 S    
N51   O37   1.301654 A    
C18   N18   1.339758 A    
N3    N25   1.385505 A    
C1    H1    1.067332 S    
N54   O43   1.301853 A    
C23   C47   1.392490 A    
C9    N9    1.337110 A    
N55   O45   1.301432 A    
C56   H24   1.085511 S    
N14   Ni8   1.859397 S    
C7    H7    1.074233 S    
C22   N22   1.337952 A    
C11   H11   1.069413 S    
N16   Ni7   1.838560 S    
C26   N42   1.437619 S    
C12   N12   1.340072 A    
C47   C70   1.492847 S    
C52   C64   1.373839 A    
N22   Ni3   1.861131 S    
C80   H39   1.085101 S    
C24   N40   1.433058 S    
C8    C40   1.381170 A    
C26   C36   1.387663 A    
N46   O28   1.299984 A    
N43   O21   1.301035 A    
C6    H6    1.074313 S    
C82   C85   1.456927 S    
C73   C81   1.336786 D    
C31   N47   1.426948 S    
C87   H32   1.085903 S    
C4    C36   1.381374 A    
C25   C35   1.386847 A    
N24   Ni4   1.841412 S    
C10   C42   1.373605 A    
C83   H28   1.085888 S    
C3    H3    1.074231 S    
N5    N31   1.385054 A    
N35   O6    1.299483 A    
C46   C71   1.427170 S    
N4    N26   1.385510 A    
C12   C44   1.393842 A    
C38   C80   1.468507 S    
N7    N29   1.385505 A    
N56   O48   1.300851 A    
C54   H22   1.071879 S    
C86   H29   1.084317 S    
C51   H19   1.084053 S    
C48   C69   1.489088 S    
C19   N35   1.430493 S    
C27   N43   1.426932 S    
N41   O17   1.300773 A    
N26   Ni5   1.858491 S    
C42   C67   1.427461 S    
N8    N30   1.385510 A    
N25   Ni6   1.858492 S    
C16   C48   1.393882 A    
N14   N22   1.365779 A    
C27   C33   1.379967 A    
N52   O40   1.300956 A    
C3    C35   1.383491 A    
N19   Ni1   1.841412 S    
C20   C44   1.404144 A    
N21   Ni4   1.861129 S    
N33   O2    1.300704 A    
C28   N44   1.437901 S    
C64   N56   1.442101 S    
C2    H2    1.074267 S    
C35   C73   1.466353 S    
N42   O19   1.299971 A    
C10   N10   1.335806 A    
N51   O38   1.301152 A    
N36   O7    1.300371 A    
N29   Ni8   1.858492 S    
C61   C69   1.413645 A    
N45   O25   1.300774 A    
C24   C48   1.404153 A    
C55   C59   1.393855 A    
N38   O11   1.299308 A    
N2    N28   1.385049 A    
C79   C87   1.334230 D    
N42   O20   1.299975 A    
C59   C67   1.407883 A    
N30   Ni7   1.858491 S    
C50   C65   1.400058 A    
C1    N1    1.342110 A    
C79   H40   1.086779 S    
C14   N14   1.337294 A    
C57   C65   1.413629 A    
C51   C68   1.397838 A    
C29   N45   1.426679 S    
C21   N37   1.435149 S    
C32   C38   1.384097 A    
C37   C79   1.464911 S    
C49   C66   1.402641 A    
C82   H25   1.084378 S    
C39   C77   1.466267 S    
C28   N28   1.347289 A    
N2    Ni2   1.859999 S    
C81   H26   1.085532 S    
C50   C62   1.394944 A    
C23   N39   1.430463 S    
C9    C41   1.368008 A    
N1    Ni1   1.859995 S    
C6    C38   1.383879 A    
C49   C61   1.397656 A    
C51   C63   1.393563 A    
C62   N54   1.434495 S    
C28   C34   1.383958 A    
N46   O27   1.299966 A    
C52   H20   1.085806 S    
C64   C72   1.403085 A    
C83   C88   1.456780 S    
N44   O23   1.299918 A    
N11   Ni6   1.838558 S    
N6    N32   1.385049 A    
C77   C85   1.336684 D    
C32   N32   1.347195 A    
C54   C58   1.395003 A    
C13   C45   1.367053 A    
C57   N49   1.435266 S    
C32   N48   1.437719 S    
C78   C86   1.337859 D    
C17   N17   1.331848 A    
C60   N52   1.441904 S    
C74   C82   1.337754 D    
C15   H15   1.069390 S    
C7    N7    1.338551 A    
N17   Ni2   1.861129 S    
N13   N21   1.365779 A    
C8    N8    1.337201 A    
N9    Ni5   1.859397 S    
C44   C65   1.488980 S    
N55   O46   1.301857 A    
C16   H16   1.070068 S    
N56   O47   1.301590 A    
C63   C71   1.407500 A    
N40   O16   1.299965 A    
C22   C46   1.379320 A    
C2    C34   1.383819 A    
N9    N17   1.365779 A    
N47   O29   1.301067 A    
C4    N4    1.337045 A    
C22   N38   1.429584 S    
C11   N11   1.342223 A    
C59   N51   1.444132 S    
C19   N19   1.344566 A    
N50   O35   1.301862 A    
C12   H12   1.070095 S    
C14   C46   1.374751 A    
N52   O39   1.301613 A    
C5    N5    1.342073 A    
C13   H13   1.076915 S    
C75   H36   1.086791 S    
N1    N27   1.385054 A    
C74   H33   1.085269 S    
N48   O32   1.299845 A    
C53   C57   1.397641 A    
C56   C71   1.397109 A    
C14   H14   1.076949 S    
C73   H34   1.086840 S    
C54   C69   1.400086 A    
N44   O24   1.299854 A    
C58   C66   1.412120 A    
C21   C45   1.365287 A    
C13   N13   1.337098 A    
C80   C88   1.335282 D    
C9    H9    1.076982 S    
N47   O30   1.299361 A    
C6    N6    1.337027 A    
