data_mof_unit_51404.cif
_audit_creation_date              2012-12-10T17:20:35-0500
_audit_creation_method            fapswitch 2.2
_symmetry_space_group_name_H-M    P1
_symmetry_Int_Tables_number       1
_space_group_crystal_system       triclinic
_cell_length_a                    10.188263
_cell_length_b                    10.553509
_cell_length_c                    13.606988
_cell_angle_alpha                 92.202185
_cell_angle_beta                  76.060158
_cell_angle_gamma                 95.0618
_cell_volume                      1414.20075541

loop_
_atom_site_label
_atom_site_type_symbol
_atom_type_description
_atom_site_fract_x
_atom_site_fract_y
_atom_site_fract_z
_atom_type_partial_charge
C1    C     C_R   0.554247 0.734219 0.501919 0.951888
C2    C     C_2   0.059478 0.468339 0.520195 0.341361
C3    C     C_1   0.453929 0.522498 0.881342 0.011241
C4    C     C_1   0.541452 0.474868 0.119274 0.016457
C5    C     C_2   0.577201 0.868827 0.527038 -0.467313
C6    C     C_2   0.415697 0.131957 0.533473 -0.477675
C7    C     C_2   0.473963 0.933342 0.581916 0.389730
C8    C     C_2   0.493572 0.072538 0.581411 0.410477
C9    C     C_3   0.615478 0.102718 0.705950 0.039844
C10   C     C_3   0.533246 0.185953 0.788658 -0.346243
C11   C     C_3   0.536687 0.143465 0.893865 -0.968161
C12   C     C_R   0.444231 0.266125 0.511140 0.953863
C13   C     C_3   0.279531 0.907129 0.713247 0.059010
C14   C     C_3   0.313031 0.815928 0.786879 -0.342983
C15   C     C_3   0.239853 0.844965 0.896007 -0.960443
C16   C     C_3   0.999469 0.257291 0.559205 0.052611
C17   C     C_3   0.068069 0.135124 0.561879 -0.276353
C18   C     C_3   0.969697 0.025289 0.610306 -1.012250
C19   C     C_3   0.861363 0.594064 0.681176 0.071105
C20   C     C_3   0.793224 0.705652 0.741558 -0.306143
C21   C     C_3   0.800634 0.704586 0.852110 -0.968249
C22   C     C_R   0.478143 0.504803 0.687931 0.858803
C23   C     C_R   0.521656 0.495329 0.312094 0.879899
C24   C     C_1   0.533807 0.484442 0.207506 -0.167956
C25   C     C_1   0.464236 0.514572 0.792742 -0.230356
C26   C     C_2   0.542438 0.467886 0.015677 -0.192837
C27   C     C_2   0.450369 0.527208 0.985392 -0.147460
C28   C     C_2   0.917504 0.505586 0.519993 0.363173
H1    H     H_    0.127461 0.644561 0.550298 0.160975
H2    H     H_    0.426369 0.182424 0.782551 0.208076
H3    H     H_    0.498898 0.041815 0.904567 0.270645
H4    H     H_    0.470931 0.201337 0.952279 0.276615
H5    H     H_    0.641971 0.156420 0.904162 0.259761
H6    H     H_    0.168188 0.896415 0.720555 0.168819
H7    H     H_    0.303582 0.007557 0.734428 0.118325
H8    H     H_    0.280844 0.716953 0.767072 0.247720
H9    H     H_    0.424162 0.823120 0.780539 0.200249
H10   H     H_    0.267906 0.944349 0.917638 0.269941
H11   H     H_    0.268914 0.779312 0.947545 0.267858
H12   H     H_    0.891738 0.378180 0.411945 0.140292
H13   H     H_    0.128249 0.831619 0.905029 0.262369
H14   H     H_    0.908763 0.234332 0.528118 0.166124
H15   H     H_    0.966454 0.294286 0.638584 0.103997
H16   H     H_    0.117721 0.106326 0.483192 0.235453
H17   H     H_    0.145400 0.154328 0.606783 0.216913
H18   H     H_    0.883613 0.009435 0.573207 0.281393
H19   H     H_    0.931701 0.044565 0.692569 0.250082
H20   H     H_    0.023771 0.937142 0.600899 0.277022
H21   H     H_    0.964961 0.594835 0.693927 0.111853
H22   H     H_    0.803061 0.503339 0.710241 0.143582
H23   H     H_    0.374902 0.579666 0.037482 0.157395
H24   H     H_    0.844450 0.796434 0.707971 0.225566
H25   H     H_    0.685486 0.701814 0.737336 0.217809
H26   H     H_    0.755989 0.612350 0.886504 0.274150
H27   H     H_    0.743340 0.782114 0.894892 0.268187
H28   H     H_    0.907871 0.719740 0.857755 0.260428
H29   H     H_    0.618199 0.415888 0.963442 0.158453
H30   H     H_    0.335051 0.078862 0.506416 0.139520
H31   H     H_    0.678030 0.916253 0.500273 0.145846
H32   H     H_    0.723059 0.121557 0.708688 0.168752
H33   H     H_    0.589079 0.999905 0.721947 0.123226
H34   H     H_    0.577541 0.285792 0.778499 0.227189
N1    N     N_2   0.847200 0.448220 0.460120 -0.204398
N2    N     N_2   0.152800 0.551780 0.539880 -0.209251
O1    O     O_R   0.430150 0.692610 0.508030 -0.546705
O2    O     O_3   0.342843 0.874380 0.612214 -0.626373
O3    O     O_3   0.092975 0.344653 0.495785 -0.612680
O4    O     O_3   0.864278 0.608738 0.577752 -0.610933
O5    O     O_R   0.569850 0.307390 0.491970 -0.553621
O6    O     O_R   0.653100 0.659360 0.482430 -0.567047
O7    O     O_R   0.346900 0.340640 0.517570 -0.563821
O8    O     O_R   0.372470 0.518990 0.654990 -0.618314
O9    O     O_R   0.627530 0.481010 0.345010 -0.612721
O10   O     O_R   0.595430 0.485740 0.629390 -0.582896
O11   O     O_R   0.404570 0.514260 0.370610 -0.588161
O12   O     O_3   0.604803 0.137819 0.608999 -0.635201
Zn1   Zn    Zn3+2 0.351130 0.522200 0.517090 0.996815
Zn2   Zn    Zn3+2 0.648870 0.477800 0.482910 0.995682

loop_
_geom_bond_atom_site_label_1
_geom_bond_atom_site_label_2
_ccdc_geom_bond_type
C21   H28   S    
C1    O1    A    
C23   C24   S    
C15   H10   S    
C19   O4    S    
O8    Zn1   S    
C9    O12   S    
C6    C8    D    
O6    Zn2   S    
C23   O11   A    
N2    Zn1   S    
C10   H2    S    
C4    C26   S    
C1    O6    A    
C16   H15   S    
O7    Zn1   S    
C12   O5    A    
C9    H32   S    
C18   H19   S    
C3    C27   S    
C17   C18   S    
O5    Zn2   S    
C17   H16   S    
C11   H3    S    
C13   H6    S    
C20   H24   S    
C16   O3    S    
C13   C14   S    
C14   H9    S    
C14   H8    S    
O11   Zn1   S    
C19   H22   S    
C15   H11   S    
C26   C27   D    
C10   H34   S    
H12   N1    S    
C23   O9    A    
C1    C5    S    
C18   H18   S    
C22   O8    A    
C28   O4    S    
C12   O7    A    
C2    N2    D    
C11   H4    S    
C13   H7    S    
C13   O2    S    
C6    C12   S    
C21   H26   S    
C4    C24   T    
C26   H29   S    
C9    H33   S    
C19   H21   S    
H1    N2    S    
C7    C8    S    
C10   C11   S    
C5    H31   S    
C17   H17   S    
C28   N1    D    
C16   H14   S    
C8    O12   S    
C3    C25   T    
O1    Zn1   S    
C20   C21   S    
C15   H13   S    
C22   O10   A    
C5    C7    D    
C2    O3    S    
C9    C10   S    
C11   H5    S    
C21   H27   S    
C6    H30   S    
C14   C15   S    
C20   H25   S    
C2    C28   S    
O9    Zn2   S    
O10   Zn2   S    
C22   C25   S    
C19   C20   S    
C27   H23   S    
C16   C17   S    
C7    O2    S    
N1    Zn2   S    
C18   H20   S    
