data_mof_unit_29498.cif
_audit_creation_date              2012-12-10T18:31:05-0500
_audit_creation_method            fapswitch 2.2
_symmetry_space_group_name_H-M    P1
_symmetry_Int_Tables_number       1
_space_group_crystal_system       triclinic
_cell_length_a                    13.661064
_cell_length_b                    14.860967
_cell_length_c                    15.609038
_cell_angle_alpha                 97.201543
_cell_angle_beta                  93.114389
_cell_angle_gamma                 97.707372
_cell_volume                      3107.32632736

loop_
_atom_site_label
_atom_site_type_symbol
_atom_type_description
_atom_site_fract_x
_atom_site_fract_y
_atom_site_fract_z
_atom_type_partial_charge
C1    C     C_R   0.514966 0.556881 0.662049 0.862732
C2    C     C_R   0.487367 0.442935 0.338074 0.857985
C3    C     C_R   0.546166 0.550400 0.900184 0.056010
C4    C     C_R   0.522300 0.446175 0.103285 0.057563
C5    C     C_R   0.573413 0.644673 0.932125 0.071993
C6    C     C_R   0.514427 0.351387 0.072656 0.057632
C7    C     C_R   0.540268 0.483382 0.957278 -0.001340
C8    C     C_R   0.544001 0.512497 0.046915 0.011376
C9    C     C_R   0.571541 0.606718 0.077830 -0.344339
C10   C     C_R   0.532811 0.388359 0.927579 -0.309258
C11   C     C_R   0.585662 0.672612 0.021520 0.471183
C12   C     C_R   0.520263 0.323083 0.984365 0.439729
C13   C     C_R   0.366240 0.174876 0.645101 0.405342
C14   C     C_R   0.671642 0.833268 0.388753 0.406636
C15   C     C_R   0.383201 0.259759 0.615451 -0.105122
C16   C     C_R   0.633540 0.743515 0.400235 -0.130222
C17   C     C_R   0.492561 0.205412 0.515015 -0.011310
C18   C     C_R   0.510996 0.795546 0.487916 -0.014297
C19   C     C_R   0.486907 0.121073 0.547801 -0.041135
C20   C     C_R   0.551624 0.887492 0.487411 -0.050490
C21   C     C_R   0.420111 0.105364 0.612425 -0.017019
C22   C     C_R   0.631020 0.905791 0.434389 -0.003381
C23   C     C_R   0.318386 0.514537 0.496852 0.891569
C24   C     C_R   0.681559 0.485292 0.502737 0.893686
C25   C     C_R   0.542504 0.051482 0.516184 -0.044483
C26   C     C_R   0.514553 0.961116 0.536297 -0.045617
C27   C     C_R   0.454331 0.948134 0.606794 0.459088
C28   C     C_R   0.627147 0.069832 0.468326 0.445577
C29   C     C_R   0.409461 0.021491 0.644572 -0.290042
C30   C     C_R   0.670959 0.996356 0.429686 -0.274902
C31   C     C_1   0.781875 0.474026 0.501437 -0.173242
C32   C     C_1   0.217645 0.524704 0.495377 -0.197212
C33   C     C_2   0.969223 0.460247 0.498037 -0.160913
C34   C     C_2   0.029600 0.536790 0.493432 -0.158828
C35   C     C_1   0.132227 0.532609 0.494170 -0.001164
C36   C     C_1   0.866908 0.465170 0.499924 0.005929
C37   C     C_R   0.533027 0.589978 0.754247 -0.056185
C38   C     C_R   0.490504 0.408362 0.246857 -0.049706
C39   C     C_R   0.586048 0.709429 0.873655 -0.192097
C40   C     C_R   0.499063 0.286579 0.130872 -0.175789
C41   C     C_R   0.567404 0.681903 0.784993 -0.224272
C42   C     C_R   0.488716 0.315128 0.217925 -0.228788
C43   C     C_R   0.520952 0.525850 0.811938 -0.225533
C44   C     C_R   0.503845 0.472199 0.189044 -0.235101
H1    H     H_    0.002584 0.601975 0.490328 0.156625
H2    H     H_    0.996224 0.395107 0.501449 0.153815
H3    H     H_    0.497379 0.542561 0.211752 0.156047
H4    H     H_    0.488699 0.456652 0.787168 0.158688
H5    H     H_    0.479475 0.264601 0.262270 0.150086
H6    H     H_    0.578549 0.732499 0.740878 0.194341
H7    H     H_    0.609754 0.781388 0.896103 0.182829
H8    H     H_    0.495339 0.213929 0.109507 0.170610
H9    H     H_    0.587109 0.630819 0.145843 0.144115
H10   H     H_    0.539909 0.362531 0.860767 0.173558
H11   H     H_    0.366492 0.013218 0.699955 0.187916
H12   H     H_    0.737521 0.010367 0.396341 0.195465
H13   H     H_    0.445270 0.775921 0.519789 0.164368
H14   H     H_    0.533030 0.219454 0.459999 0.158381
H15   H     H_    0.668050 0.686073 0.373317 0.151612
H16   H     H_    0.347619 0.316106 0.643468 0.148719
N1    N     N_R   0.445040 0.272490 0.551770 -0.135867
N2    N     N_R   0.554960 0.727510 0.448230 -0.132083
O1    O     O_R   0.527700 0.614770 0.606110 -0.602299
O2    O     O_R   0.472300 0.385230 0.393890 -0.625250
O3    O     O_R   0.492440 0.468680 0.639380 -0.620634
O4    O     O_R   0.507560 0.531320 0.360620 -0.623369
O5    O     O_R   0.379820 0.583550 0.480950 -0.618307
O6    O     O_R   0.620180 0.416450 0.519050 -0.593570
O7    O     O_R   0.344560 0.437460 0.514220 -0.612254
O8    O     O_R   0.655440 0.562540 0.485780 -0.611593
Zn1   Zn    Zn3+2 0.523550 0.597550 0.477790 0.944760
Zn2   Zn    Zn3+2 0.476450 0.402450 0.522210 0.945474
O9    O     O_3   0.301506 0.161729 0.708933 -0.657026
C45   C     C_3   0.202264 0.148659 0.672948 0.076473
H17   H     H_    0.165309 0.081532 0.687412 0.151662
H18   H     H_    0.194247 0.145863 0.600936 0.083444
C46   C     C_3   0.146977 0.224627 0.713371 -0.350069
H19   H     H_    0.183771 0.292262 0.700116 0.206817
H20   H     H_    0.070168 0.213894 0.682821 0.181139
C47   C     C_3   0.142400 0.225415 0.810998 -0.796843
H21   H     H_    0.106649 0.157974 0.825664 0.247414
H22   H     H_    0.098251 0.278937 0.836733 0.236527
H23   H     H_    0.217919 0.241262 0.843950 0.267923
O10   O     O_3   0.755374 0.852696 0.343510 -0.661700
C48   C     C_3   0.751544 0.796511 0.262696 0.078185
H24   H     H_    0.764596 0.842289 0.212150 0.184334
H25   H     H_    0.678550 0.753755 0.242914 0.117595
C49   C     C_3   0.834516 0.736795 0.263558 -0.348723
H26   H     H_    0.907199 0.781752 0.273631 0.229402
H27   H     H_    0.827858 0.695324 0.317961 0.217902
C50   C     C_3   0.831586 0.672540 0.178882 -0.912239
H28   H     H_    0.763618 0.621372 0.171614 0.268047
H29   H     H_    0.896822 0.635324 0.179422 0.259638
H30   H     H_    0.833346 0.711845 0.122819 0.280318
O11   O     O_3   0.458507 0.871568 0.649346 -0.651934
C51   C     C_3   0.364274 0.831824 0.671059 0.046344
H31   H     H_    0.352555 0.758476 0.642633 0.163619
H32   H     H_    0.300654 0.862178 0.644392 0.119130
C52   C     C_3   0.363528 0.836076 0.769445 -0.333607
H33   H     H_    0.422089 0.798724 0.793676 0.232044
H34   H     H_    0.380146 0.908261 0.800157 0.223949
C53   C     C_3   0.263782 0.793620 0.796146 -0.967744
H35   H     H_    0.204247 0.831887 0.775161 0.267447
H36   H     H_    0.266503 0.796719 0.867707 0.266313
H37   H     H_    0.246484 0.720738 0.766783 0.269065
O12   O     O_3   0.678506 0.158379 0.476904 -0.638919
C54   C     C_3   0.708139 0.185006 0.396915 0.051083
H38   H     H_    0.676685 0.248594 0.387640 0.164802
H39   H     H_    0.680399 0.134377 0.338905 0.111442
C55   C     C_3   0.821086 0.207264 0.401156 -0.319538
H40   H     H_    0.846992 0.257648 0.459365 0.235921
H41   H     H_    0.854974 0.144250 0.407005 0.213988
C56   C     C_3   0.855796 0.247393 0.320848 -0.949994
H42   H     H_    0.831845 0.197725 0.261773 0.267708
H43   H     H_    0.937887 0.262678 0.326005 0.264558
H44   H     H_    0.824984 0.312065 0.315156 0.268929
O13   O     O_3   0.617532 0.763842 0.053572 -0.665257
C57   C     C_3   0.541441 0.803110 0.096425 0.052419
H45   H     H_    0.577331 0.863232 0.142250 0.164800
H46   H     H_    0.499362 0.756391 0.136391 0.126336
C58   C     C_3   0.470436 0.836406 0.031686 -0.357608
H47   H     H_    0.513107 0.884069 0.993239 0.227043
H48   H     H_    0.431590 0.777004 0.986563 0.217691
C59   C     C_3   0.393331 0.885778 0.077980 -0.964119
H49   H     H_    0.349681 0.839472 0.116970 0.266722
H50   H     H_    0.341950 0.907288 0.029492 0.268484
H51   H     H_    0.429940 0.947692 0.121081 0.260160
O14   O     O_3   0.513305 0.231047 0.952890 -0.644729
C60   C     C_3   0.413080 0.197040 0.926747 0.066343
H52   H     H_    0.394973 0.215360 0.861447 0.198410
H53   H     H_    0.361227 0.225157 0.972672 0.124758
C61   C     C_3   0.397545 0.092850 0.923082 -0.299340
H54   H     H_    0.442667 0.062530 0.872919 0.228185
H55   H     H_    0.422696 0.074468 0.986730 0.221885
C62   C     C_3   0.288639 0.052941 0.902502 -0.986722
H56   H     H_    0.241868 0.085120 0.950115 0.266844
H57   H     H_    0.278697 0.978236 0.905836 0.265831
H58   H     H_    0.263520 0.064031 0.836415 0.302607

loop_
_geom_bond_atom_site_label_1
_geom_bond_atom_site_label_2
_ccdc_geom_bond_type
C8    C9    A    
C7    C10   A    
C39   H7    S    
C62   H58   S    
C15   H16   S    
C23   O7    A    
C27   O11   S    
O11   C51   S    
C14   O10   S    
C4    C8    A    
O14   C60   S    
C24   O8    A    
C7    C8    A    
C39   C41   A    
C46   H19   S    
C25   C28   A    
C3    C43   A    
C26   C27   A    
C45   H18   S    
C19   C21   A    
C5    C11   A    
C3    C7    A    
C6    C12   A    
C48   C49   S    
C27   C29   A    
O12   C54   S    
C51   C52   S    
C33   C36   S    
C53   H37   S    
C34   C35   S    
O9    C45   S    
C23   O5    A    
C57   H45   S    
C58   C59   S    
C17   N1    A    
C55   H40   S    
O4    Zn1   S    
C28   O12   S    
C61   H54   S    
C45   C46   S    
C51   H32   S    
C1    O3    A    
C54   H38   S    
O8    Zn1   S    
C43   H4    S    
C18   C20   A    
C44   H3    S    
C1    C37   S    
C17   H14   S    
C60   C61   S    
C40   C42   A    
C33   H2    S    
C54   H39   S    
C16   N2    A    
C47   H23   S    
C19   C25   A    
C1    O1    A    
C2    O2    A    
C55   H41   S    
C48   H25   S    
C45   H17   S    
C32   C35   T    
C62   H56   S    
C6    C40   A    
O10   C48   S    
C47   H22   S    
C50   H28   S    
C18   N2    A    
C29   H11   S    
C3    C5    A    
C25   C26   A    
C40   H8    S    
C30   H12   S    
C57   C58   S    
C37   C43   A    
O7    Zn2   S    
C38   C44   A    
C50   H29   S    
C2    C38   S    
C18   H13   S    
C52   H33   S    
C49   C50   S    
O6    Zn2   S    
C51   H31   S    
C33   C34   D    
C15   N1    A    
C46   H20   S    
C13   C21   A    
C34   H1    S    
C53   H36   S    
C9    C11   A    
C55   C56   S    
C58   H47   S    
C10   C12   A    
C59   H51   S    
N1    Zn2   S    
C4    C6    A    
C52   H34   S    
O1    Zn1   S    
C13   C15   A    
C54   C55   S    
C14   C16   A    
C9    H9    S    
C11   O13   S    
C41   H6    S    
C59   H50   S    
C56   H42   S    
C46   C47   S    
C62   H57   S    
C49   H27   S    
C22   C30   A    
C13   O9    S    
C20   C22   A    
C47   H21   S    
C2    O4    A    
C48   H24   S    
C38   C42   A    
C12   O14   S    
O3    Zn2   S    
C4    C44   A    
C23   C32   S    
C56   H44   S    
C5    C39   A    
C60   H52   S    
C24   C31   S    
C20   C26   A    
O13   C57   S    
C50   H30   S    
C14   C22   A    
C21   C29   A    
C61   C62   S    
C28   C30   A    
C17   C19   A    
N2    Zn1   S    
O5    Zn1   S    
O2    Zn2   S    
C37   C41   A    
C53   H35   S    
C10   H10   S    
C57   H46   S    
C58   H48   S    
C24   O6    A    
C42   H5    S    
C52   C53   S    
C49   H26   S    
C61   H55   S    
C31   C36   T    
C60   H53   S    
C16   H15   S    
C59   H49   S    
C56   H43   S    
