data_mof_unit_39318.cif
_audit_creation_date              2012-12-10T19:33:12-0500
_audit_creation_method            fapswitch 2.2
_symmetry_space_group_name_H-M    P1
_symmetry_Int_Tables_number       1
_space_group_crystal_system       triclinic
_cell_length_a                    8.774284
_cell_length_b                    15.852369
_cell_length_c                    17.048667
_cell_angle_alpha                 97.590128
_cell_angle_beta                  91.027877
_cell_angle_gamma                 85.171646
_cell_volume                      2342.1791038

loop_
_atom_site_label
_atom_site_type_symbol
_atom_type_description
_atom_site_fract_x
_atom_site_fract_y
_atom_site_fract_z
_atom_type_partial_charge
C1    C     C_R   0.513694 0.487690 0.348706 0.904467
C2    C     C_R   0.492214 0.511924 0.651231 0.922076
C3    C     C_R   0.478552 0.750338 0.444486 -0.091997
C4    C     C_R   0.596218 0.239980 0.521424 -0.015833
C5    C     C_R   0.485242 0.838988 0.445142 -0.299756
C6    C     C_R   0.593219 0.150764 0.515786 -0.300205
C7    C     C_R   0.525607 0.890392 0.514842 0.231745
C8    C     C_R   0.467248 0.110214 0.480508 0.250492
C9    C     C_R   0.555551 0.850639 0.583004 0.210015
C10   C     C_R   0.345841 0.161942 0.451886 0.204949
C11   C     C_R   0.560886 0.760046 0.578067 0.520826
C12   C     C_R   0.359118 0.251054 0.453074 0.494067
C13   C     C_R   0.205758 0.520956 0.496664 0.847245
C14   C     C_R   0.794268 0.479296 0.504560 0.808581
C15   C     C_2   0.040627 0.528000 0.484693 0.177593
C16   C     C_2   0.959753 0.473081 0.517699 0.228136
C17   C     C_R   0.543405 0.478986 0.262668 -0.282280
C18   C     C_R   0.494145 0.519481 0.737514 -0.245853
C19   C     C_R   0.530667 0.553941 0.227136 -0.327678
C20   C     C_R   0.618665 0.476999 0.771415 -0.376910
C21   C     C_R   0.564695 0.553347 0.147867 0.398310
C22   C     C_R   0.635799 0.481045 0.852898 0.419028
C23   C     C_R   0.580015 0.473566 0.098069 0.115545
C24   C     C_R   0.514466 0.521362 0.902200 0.105688
C25   C     C_R   0.592719 0.397119 0.133066 0.256507
C26   C     C_R   0.381960 0.559933 0.868213 0.181646
C27   C     C_R   0.597037 0.401100 0.216597 0.284366
C28   C     C_R   0.376751 0.565432 0.785486 0.270552
Cu1   Cu    Cu3+1 0.492520 0.415770 0.496210 1.039669
Cu2   Cu    Cu3+1 0.507480 0.584230 0.503790 1.020342
H1    H     H_    0.707282 0.442974 0.733201 0.203101
H2    H     H_    0.502388 0.614942 0.262556 0.218865
H3    H     H_    0.692094 0.269503 0.550323 0.148596
H4    H     H_    0.441737 0.713715 0.390695 0.182325
H5    H     H_    0.688937 0.113987 0.539223 0.219900
H6    H     H_    0.458443 0.866954 0.391444 0.228163
N1    N     N_2   0.582375 0.466092 0.013910 -0.068744
N2    N     N_2   0.521469 0.529286 0.986013 -0.074805
N3    N     N_R   0.518730 0.710760 0.509500 -0.226788
N4    N     N_R   0.481270 0.289240 0.490500 -0.218409
N5    N     N_2   0.540419 0.980719 0.519204 -0.132451
N6    N     N_2   0.457979 0.019002 0.472325 -0.114675
O1    O     O_R   0.493000 0.421040 0.382520 -0.543515
O2    O     O_R   0.507000 0.578960 0.617480 -0.493976
O3    O     O_R   0.505640 0.563310 0.388930 -0.612640
O4    O     O_R   0.494360 0.436690 0.611070 -0.597781
O5    O     O_R   0.269980 0.445280 0.497530 -0.507188
O6    O     O_R   0.730020 0.554720 0.502470 -0.573247
O7    O     O_R   0.282610 0.587550 0.503940 -0.590264
O8    O     O_R   0.717390 0.412450 0.496060 -0.589590
O9    O     O_3   0.974331 0.570901 0.424497 -0.605404
C29   C     C_3   0.017181 0.655330 0.429967 0.061140
H7    H     H_    0.130774 0.655715 0.402214 0.171695
H8    H     H_    0.019237 0.686753 0.492494 0.158924
C30   C     C_3   0.901537 0.707296 0.384449 -0.664849
H9    H     H_    0.786329 0.707854 0.410191 0.242993
H10   H     H_    0.933555 0.774003 0.388057 0.217489
H11   H     H_    0.898339 0.678947 0.321329 0.278424
O10   O     O_3   0.028413 0.431671 0.578507 -0.579379
C31   C     C_3   0.967711 0.353623 0.585480 0.085250
H12   H     H_    0.952507 0.315665 0.526557 0.212803
H13   H     H_    0.857535 0.365841 0.617753 0.132460
C32   C     C_3   0.078330 0.301231 0.633325 -0.587883
H14   H     H_    0.095363 0.336523 0.693142 0.274274
H15   H     H_    0.031638 0.239479 0.639466 0.212802
H16   H     H_    0.190453 0.288277 0.603048 0.240458
S1    S     S_3+6 0.810617 0.433593 0.887632 0.085354
O11   O     O_2   0.785168 0.344831 0.903358 -0.230895
O12   O     O_2   0.932427 0.427829 0.825810 -0.259402
O13   O     O_3   0.871557 0.490308 0.970922 -0.425800
H17   H     H_    0.931883 0.448303 0.999651 0.381363
S2    S     S_3+6 0.594690 0.653897 0.117816 0.081115
O14   O     O_2   0.446647 0.691916 0.086980 -0.196448
O15   O     O_2   0.646490 0.713275 0.187506 -0.278821
O16   O     O_3   0.728863 0.643443 0.047228 -0.439708
H18   H     H_    0.721711 0.699104 0.026416 0.392620
S3    S     S_3+6 0.597802 0.297017 0.071113 0.124121
O17   O     O_2   0.759871 0.269858 0.046260 -0.171773
O18   O     O_2   0.537813 0.229846 0.113860 -0.199168
O19   O     O_3   0.488936 0.305688 0.989831 -0.504461
H19   H     H_    0.510580 0.250787 0.955288 0.397701
S4    S     S_3+6 0.222030 0.596703 0.931444 0.153791
O20   O     O_2   0.232838 0.689446 0.961483 -0.160549
O21   O     O_2   0.072433 0.586947 0.888481 -0.143649
O22   O     O_3   0.220632 0.542373 0.009785 -0.464658
H20   H     H_    0.214292 0.482031 0.986720 0.357096
S5    S     S_3+6 0.709495 0.319561 0.259972 0.049693
O23   O     O_2   0.768644 0.353533 0.339966 -0.313088
O24   O     O_2   0.618604 0.245126 0.267957 -0.266229
O25   O     O_3   0.861181 0.284753 0.202199 -0.470369
H21   H     H_    0.917281 0.239742 0.229129 0.387251
S6    S     S_3+6 0.221567 0.625291 0.742888 0.050567
O26   O     O_2   0.260480 0.656321 0.666991 -0.269165
O27   O     O_2   0.092561 0.568734 0.726460 -0.251067
O28   O     O_3   0.163148 0.712398 0.805667 -0.461581
H22   H     H_    0.250709 0.748375 0.809895 0.383318
S7    S     S_3+6 0.575041 0.915668 0.675610 0.060275
O29   O     O_2   0.735540 0.942413 0.683163 -0.276111
O30   O     O_2   0.465250 0.994168 0.679144 -0.218078
O31   O     O_3   0.538206 0.863077 0.751706 -0.487979
H23   H     H_    0.568095 0.900581 0.799665 0.388987
S8    S     S_3+6 0.174546 0.114979 0.419359 0.022160
O32   O     O_2   0.199828 0.067221 0.337841 -0.255922
O33   O     O_2   0.136763 0.053214 0.474483 -0.246600
O34   O     O_3   0.025570 0.188709 0.416975 -0.532919
H24   H     H_    0.938445 0.156203 0.396487 0.387992
O35   O     O_3   0.591292 0.722713 0.645621 -0.508984
C33   C     C_3   0.750471 0.714358 0.659479 0.056658
H25   H     H_    0.802279 0.776178 0.661024 0.181467
H26   H     H_    0.808944 0.667618 0.613031 0.146700
C34   C     C_3   0.778251 0.683029 0.739496 -0.526277
H27   H     H_    0.770759 0.613058 0.733744 0.223413
H28   H     H_    0.892838 0.698068 0.762014 0.283797
H29   H     H_    0.692805 0.714969 0.783321 0.255713
O36   O     O_3   0.242244 0.301190 0.422340 -0.534430
C35   C     C_3   0.253177 0.292771 0.338988 0.122787
H30   H     H_    0.206248 0.233008 0.311378 0.209394
H31   H     H_    0.372207 0.292517 0.319042 0.190311
C36   C     C_3   0.161359 0.367640 0.308499 -0.679027
H32   H     H_    0.042777 0.372649 0.330389 0.297950
H33   H     H_    0.212088 0.428354 0.329455 0.213161
H34   H     H_    0.159959 0.358368 0.242790 0.228994

loop_
_geom_bond_atom_site_label_1
_geom_bond_atom_site_label_2
_ccdc_geom_bond_type
S5    O23   D    
C32   H15   S    
C2    C18   S    
N5    N6    D    
Cu2   O3    S    
O28   H22   S    
C30   H9    S    
S7    O29   D    
O22   H20   S    
C33   H25   S    
N1    N2    D    
Cu1   O5    S    
C31   C32   S    
C25   S3    S    
Cu2   O6    S    
C19   C21   A    
C8    N6    S    
C36   H34   S    
C15   C16   D    
C5    H6    S    
C35   H30   S    
S8    O34   S    
C31   H13   S    
S6    O26   D    
C1    O1    A    
C4    N4    A    
C2    O2    A    
C24   N2    S    
O35   C33   S    
O13   H17   S    
C15   O9    S    
C18   C20   A    
C29   C30   S    
S3    O17   D    
C12   O36   S    
S3    O18   D    
C32   H16   S    
C3    N3    A    
O10   C31   S    
C26   S4    S    
Cu1   O1    S    
Cu2   O2    S    
S2    O16   S    
C19   H2    S    
S7    O30   D    
C29   H8    S    
Cu1   O8    S    
C36   H33   S    
C21   S2    S    
O9    C29   S    
C17   C27   A    
C10   S8    S    
C18   C28   A    
C4    C6    A    
C5    C7    A    
O19   H19   S    
C6    C8    A    
C3    H4    S    
C23   N1    S    
S6    O28   S    
C2    O4    A    
S1    O11   D    
C31   H12   S    
S1    O12   D    
C16   O10   S    
C12   N4    A    
C11   N3    A    
O16   H18   S    
Cu1   Cu2   S    
S6    O27   D    
C34   H28   S    
C30   H10   S    
S8    O33   D    
C9    C11   A    
C10   C12   A    
C35   H31   S    
C13   O7    A    
S2    O15   D    
Cu2   O7    S    
C20   C22   A    
S4    O21   D    
C13   C15   S    
C11   O35   S    
C14   C16   S    
S5    O25   S    
S7    O31   S    
C29   H7    S    
C13   O5    A    
O34   H24   S    
S3    O19   S    
C7    C9    A    
C4    H3    S    
C9    S7    S    
C34   H27   S    
C26   C28   A    
C24   C26   A    
S2    O14   D    
C3    C5    A    
C14   O6    A    
C36   H32   S    
C35   C36   S    
C25   C27   A    
S4    O22   S    
C6    H5    S    
C1    C17   S    
C33   C34   S    
Cu1   O4    S    
S1    O13   S    
C21   C23   A    
C27   S5    S    
C1    O3    A    
O25   H21   S    
C14   O8    A    
Cu1   N4    S    
O31   H23   S    
C17   C19   A    
C33   H26   S    
Cu2   N3    S    
C34   H29   S    
C22   C24   A    
C7    N5    S    
S8    O32   D    
C22   S1    S    
C32   H14   S    
C28   S6    S    
C23   C25   A    
C8    C10   A    
S4    O20   D    
C30   H11   S    
S5    O24   D    
O36   C35   S    
C20   H1    S    
