data_mof_unit_37056.cif
_audit_creation_date              2012-12-10T18:01:15-0500
_audit_creation_method            fapswitch 2.2
_symmetry_space_group_name_H-M    P1
_symmetry_Int_Tables_number       1
_space_group_crystal_system       triclinic
_cell_length_a                    9.52814
_cell_length_b                    10.817332
_cell_length_c                    17.383315
_cell_angle_alpha                 90.39961
_cell_angle_beta                  86.364079
_cell_angle_gamma                 90.185096
_cell_volume                      1788.02500233

loop_
_atom_site_label
_atom_site_type_symbol
_atom_type_description
_atom_site_fract_x
_atom_site_fract_y
_atom_site_fract_z
_atom_type_partial_charge
C1    C     C_R   0.500166 0.737866 0.499771 0.776684
C2    C     C_R   0.499833 0.262134 0.500223 0.776757
C3    C     C_R   0.624956 0.936304 0.480754 -0.188557
C4    C     C_R   0.375030 0.063698 0.519216 -0.188651
C5    C     C_R   0.625009 0.064204 0.481311 -0.186737
C6    C     C_R   0.374981 0.935797 0.518666 -0.186697
C7    C     C_R   0.499930 0.128275 0.500362 -0.021224
C8    C     C_R   0.500064 0.871726 0.499622 -0.021135
C9    C     C_R   0.919497 0.569262 0.553087 0.551832
C10   C     C_R   0.080510 0.430729 0.446914 0.551923
C11   C     C_R   0.069147 0.566853 0.553427 -0.247570
C12   C     C_R   0.930853 0.433141 0.446575 -0.247674
C13   C     C_R   0.482112 0.499109 0.649819 0.793974
C14   C     C_R   0.517888 0.500889 0.350181 0.794016
C15   C     C_R   0.473598 0.493857 0.733904 -0.033972
C16   C     C_R   0.526402 0.506135 0.266095 -0.033951
C17   C     C_R   0.597368 0.484320 0.772987 -0.189862
C18   C     C_R   0.402633 0.515666 0.227013 -0.189945
C19   C     C_R   0.590603 0.476860 0.852691 -0.159233
C20   C     C_R   0.409399 0.523117 0.147309 -0.159245
C21   C     C_R   0.459856 0.480696 0.894620 0.194282
C22   C     C_R   0.540145 0.519279 0.105379 0.194293
C23   C     C_R   0.335990 0.487787 0.855709 -0.169867
C24   C     C_R   0.664010 0.512192 0.144290 -0.169870
C25   C     C_R   0.342646 0.494915 0.775683 -0.201187
C26   C     C_R   0.657353 0.505072 0.224316 -0.201204
C27   C     C_2   0.449677 0.476384 0.978950 -0.229302
C28   C     C_2   0.550325 0.523587 0.021049 -0.229301
Cu1   Cu    Cu3+1 0.359340 0.499980 0.500000 0.975805
Cu2   Cu    Cu3+1 0.640660 0.500020 0.500000 0.975761
H1    H     H_    0.699666 0.481412 0.742074 0.179019
H2    H     H_    0.300335 0.518576 0.257926 0.179004
H3    H     H_    0.754366 0.498686 0.253310 0.152010
H4    H     H_    0.245633 0.501304 0.746690 0.152029
H5    H     H_    0.644652 0.564244 0.993357 0.144088
H6    H     H_    0.355350 0.435727 0.006642 0.144084
H7    H     H_    0.234307 0.489569 0.887363 0.121696
H8    H     H_    0.765693 0.510407 0.112637 0.121690
H9    H     H_    0.312275 0.533689 0.119016 0.123932
H10   H     H_    0.687727 0.466285 0.880983 0.123932
H11   H     H_    0.722089 0.888162 0.464955 0.142325
H12   H     H_    0.277887 0.111842 0.534995 0.142432
H13   H     H_    0.722389 0.112720 0.466098 0.139284
H14   H     H_    0.277600 0.887281 0.533877 0.139290
H15   H     H_    0.122486 0.617252 0.596867 0.150499
H16   H     H_    0.877501 0.382748 0.403138 0.150453
N1    N     N_R   0.147930 0.499970 0.499980 -0.205330
N2    N     N_R   0.852070 0.500030 0.500020 -0.205324
O1    O     O_R   0.381260 0.680340 0.500000 -0.591704
O2    O     O_R   0.618740 0.319660 0.500000 -0.591698
O3    O     O_R   0.618830 0.680370 0.500010 -0.560385
O4    O     O_R   0.381170 0.319630 0.499990 -0.560315
O5    O     O_R   0.367440 0.500000 0.613600 -0.599789
O6    O     O_R   0.632560 0.500000 0.386400 -0.599803
O7    O     O_R   0.605010 0.500030 0.613600 -0.530393
O8    O     O_R   0.394990 0.499970 0.386400 -0.530371
O9    O     O_3   0.839294 0.632431 0.609749 -0.557323
C29   C     C_3   0.878069 0.758535 0.611779 0.040770
H17   H     H_    0.886720 0.799080 0.552897 0.129282
H18   H     H_    0.979326 0.770788 0.639318 0.122600
C30   C     C_3   0.766339 0.829534 0.660235 -0.748997
H19   H     H_    0.760719 0.795313 0.720452 0.237878
H20   H     H_    0.792940 0.929557 0.660374 0.195230
H21   H     H_    0.661950 0.817016 0.636356 0.250202
O10   O     O_3   0.160743 0.367572 0.390256 -0.557272
C31   C     C_3   0.121778 0.241523 0.388064 0.040544
H22   H     H_    0.020630 0.229478 0.360379 0.122706
H23   H     H_    0.112832 0.200828 0.446908 0.129212
C32   C     C_3   0.233575 0.170509 0.339663 -0.748944
H24   H     H_    0.337831 0.182625 0.363775 0.250139
H25   H     H_    0.206665 0.070551 0.339268 0.195180
H26   H     H_    0.239691 0.205059 0.279510 0.237992

loop_
_geom_bond_atom_site_label_1
_geom_bond_atom_site_label_2
_ccdc_geom_bond_type
C32   H26   S    
C24   H8    S    
Cu2   O3    S    
Cu1   Cu2   S    
Cu1   O8    S    
C23   H7    S    
C27   H6    S    
C30   H21   S    
C1    C8    S    
C9    C11   A    
Cu2   O7    S    
C26   H3    S    
C9    O9    S    
C2    C7    S    
C25   H4    S    
C12   N2    A    
C4    H12   S    
C29   C30   S    
C13   C15   S    
C31   H22   S    
C21   C27   S    
C16   C18   A    
C22   C28   S    
C14   O8    A    
C16   C26   A    
C1    O3    A    
O9    C29   S    
C30   H19   S    
C2    O4    A    
Cu1   N1    S    
C4    C7    A    
C6    C8    A    
C10   C12   A    
C22   C24   A    
C12   H16   S    
C14   O6    A    
C17   H1    S    
C24   C26   A    
Cu1   O5    S    
C13   O5    A    
C21   C23   A    
C3    C8    A    
C5    H13   S    
C32   H24   S    
Cu2   O2    S    
C14   C16   S    
Cu2   O6    S    
C11   H15   S    
C4    C6    A    
C32   H25   S    
C31   H23   S    
C29   H18   S    
C31   C32   S    
C3    C5    A    
C9    N2    A    
C10   N1    A    
C23   C25   A    
C18   H2    S    
C6    H14   S    
C18   C20   A    
C15   C17   A    
O10   C31   S    
C19   H10   S    
C10   O10   S    
Cu2   N2    S    
C27   C28   D    
C5    C7    A    
C20   H9    S    
C3    H11   S    
Cu1   O1    S    
C15   C25   A    
C2    O2    A    
C17   C19   A    
C29   H17   S    
C19   C21   A    
C11   N1    A    
C30   H20   S    
C28   H5    S    
C20   C22   A    
C13   O7    A    
Cu1   O4    S    
C1    O1    A    
