data_mof_unit_54433.cif
_audit_creation_date              2012-12-10T18:44:26-0500
_audit_creation_method            fapswitch 2.2
_symmetry_space_group_name_H-M    P1
_symmetry_Int_Tables_number       1
_space_group_crystal_system       triclinic
_cell_length_a                    12.889194
_cell_length_b                    10.646401
_cell_length_c                    9.842645
_cell_angle_alpha                 89.736081
_cell_angle_beta                  96.893291
_cell_angle_gamma                 90.312382
_cell_volume                      1340.8486671

loop_
_atom_site_label
_atom_site_type_symbol
_atom_type_description
_atom_site_fract_x
_atom_site_fract_y
_atom_site_fract_z
_atom_type_partial_charge
C1    C     C_R   0.502197 0.260269 0.500718 0.893753
C2    C     C_R   0.701849 0.500380 0.526507 0.877413
C3    C     C_R   0.813853 0.499327 0.542184 -0.053108
C4    C     C_R   0.186147 0.500673 0.457815 -0.053108
C5    C     C_R   0.021563 0.532096 0.319328 -0.222141
C6    C     C_R   0.978437 0.467904 0.680672 -0.222141
C7    C     C_R   0.129397 0.525770 0.330266 -0.211179
C8    C     C_R   0.870602 0.474230 0.669734 -0.211179
C9    C     C_R   0.135835 0.479885 0.573822 -0.277964
C10   C     C_R   0.864165 0.520115 0.426178 -0.277964
C11   C     C_R   0.028751 0.486717 0.564084 0.187796
C12   C     C_R   0.497802 0.739731 0.499281 0.893753
C13   C     C_R   0.971249 0.513283 0.435916 0.187795
C14   C     C_R   0.427560 0.067415 0.411250 -0.234026
C15   C     C_R   0.572441 0.932585 0.588746 -0.234025
C16   C     C_R   0.423259 0.938063 0.408623 0.191511
C17   C     C_R   0.576743 0.061938 0.591373 0.191512
C18   C     C_3   0.338645 0.873081 0.314457 -0.880603
C19   C     C_3   0.661359 0.126918 0.685537 -0.880607
C20   C     C_R   0.497028 0.872136 0.498224 -0.072174
C21   C     C_R   0.502973 0.127864 0.501775 -0.072174
C22   C     C_R   0.566444 0.576601 0.081952 -0.073154
C23   C     C_R   0.433555 0.423400 0.918048 -0.073154
C24   C     C_R   0.566437 0.576537 0.938063 -0.072830
C25   C     C_R   0.433563 0.423463 0.061937 -0.072830
C26   C     C_R   0.298151 0.499619 0.473493 0.877412
H1    H     H_    0.820170 0.540819 0.327667 0.156884
H2    H     H_    0.380438 0.362148 0.855531 0.126763
H3    H     H_    0.619551 0.637720 0.891528 0.124579
H4    H     H_    0.380449 0.362281 0.108472 0.124578
H5    H     H_    0.373686 0.820542 0.234324 0.258493
H6    H     H_    0.294397 0.807138 0.374015 0.231599
H7    H     H_    0.282203 0.941238 0.262048 0.228804
H8    H     H_    0.705607 0.192860 0.625978 0.231600
H9    H     H_    0.626319 0.179461 0.765669 0.258493
H10   H     H_    0.717799 0.058761 0.737946 0.228805
H11   H     H_    0.179830 0.459181 0.672333 0.156884
H12   H     H_    0.831778 0.457780 0.759938 0.163161
H13   H     H_    0.168222 0.542220 0.240062 0.163161
H14   H     H_    0.977784 0.552268 0.220677 0.137221
H15   H     H_    0.022216 0.447732 0.779323 0.137221
H16   H     H_    0.371383 0.121684 0.344364 0.148510
H17   H     H_    0.628618 0.878317 0.655632 0.148510
H18   H     H_    0.619560 0.637855 0.144468 0.126763
N1    N     N_R   0.499970 0.499970 0.857200 -0.080364
N2    N     N_R   0.500030 0.500030 0.142800 -0.080364
O1    O     O_R   0.499990 0.316750 0.614620 -0.617825
O2    O     O_R   0.500010 0.683250 0.385380 -0.617824
O3    O     O_R   0.499990 0.316780 0.385290 -0.620598
O4    O     O_R   0.500010 0.683220 0.614710 -0.620598
O5    O     O_R   0.346360 0.499970 0.595710 -0.623411
O6    O     O_R   0.653640 0.500030 0.404290 -0.623411
O7    O     O_R   0.346360 0.499990 0.366380 -0.629819
O8    O     O_R   0.653640 0.500010 0.633620 -0.629819
Zn1   Zn    Zn3+2 0.500000 0.499980 0.653120 0.942712
Zn2   Zn    Zn3+2 0.500000 0.500020 0.346880 0.942712

loop_
_geom_bond_atom_site_label_1
_geom_bond_atom_site_label_2
_ccdc_geom_bond_type
C10   H1    S    
C4    C26   S    
C5    C7    A    
C1    C21   S    
C23   N1    A    
O3    Zn2   S    
C9    C11   A    
C5    C13   A    
O4    Zn1   S    
C12   O2    A    
C14   H16   S    
C12   C20   S    
C9    H11   S    
C2    C3    S    
C15   H17   S    
C10   C13   A    
C3    C10   A    
C19   H9    S    
C23   H2    S    
C24   H3    S    
C11   C13   A    
C2    O6    A    
C4    C7    A    
C24   N1    A    
C14   C21   A    
O1    Zn1   S    
C16   C20   A    
C17   C19   S    
C22   H18   S    
C22   C24   A    
C19   H10   S    
C8    H12   S    
C15   C20   A    
C18   H7    S    
C14   C16   A    
C5    H14   S    
C26   O5    A    
C18   H6    S    
C26   O7    A    
C25   H4    S    
C23   C25   A    
N1    Zn1   S    
C16   C18   S    
C3    C8    A    
C2    O8    A    
O7    Zn2   S    
N2    Zn2   S    
C6    C11   A    
O2    Zn2   S    
C7    H13   S    
O8    Zn1   S    
C1    O1    A    
C6    C8    A    
C18   H5    S    
O5    Zn1   S    
C22   N2    A    
C4    C9    A    
C15   C17   A    
C1    O3    A    
C25   N2    A    
C6    H15   S    
C17   C21   A    
O6    Zn2   S    
C12   O4    A    
C19   H8    S    
