data_mof_unit_8571.cif
_audit_creation_date              2012-12-10T17:47:00-0500
_audit_creation_method            fapswitch 2.2
_symmetry_space_group_name_H-M    P1
_symmetry_Int_Tables_number       1
_space_group_crystal_system       triclinic
_cell_length_a                    17.868489
_cell_length_b                    17.800118
_cell_length_c                    19.398677
_cell_angle_alpha                 100.44088
_cell_angle_beta                  76.191906
_cell_angle_gamma                 115.51835
_cell_volume                      5385.47474829

loop_
_atom_site_label
_atom_site_type_symbol
_atom_type_description
_atom_site_fract_x
_atom_site_fract_y
_atom_site_fract_z
_atom_type_partial_charge
C1    C     C_R   0.456497 0.280648 0.467826 0.851711
C2    C     C_2   0.507006 0.459257 0.972835 0.346334
C3    C     C_2   0.538974 0.531523 0.013729 0.396760
C4    C     C_R   0.543703 0.719772 0.531707 0.824035
C5    C     C_R   0.519604 0.517169 0.235405 -0.052566
C6    C     C_R   0.567637 0.810626 0.540500 -0.125429
C7    C     C_R   0.439577 0.192266 0.454110 -0.105047
C8    C     C_R   0.656564 0.951147 0.582365 0.454083
C9    C     C_R   0.633328 0.864811 0.576274 -0.280534
C10   C     C_R   0.526364 0.843511 0.509722 -0.216962
C11   C     C_R   0.552366 0.930121 0.510223 0.057207
C12   C     C_R   0.503262 0.462070 0.898353 0.043442
C13   C     C_R   0.613762 0.983739 0.551858 0.050657
C14   C     C_R   0.515511 0.964368 0.473634 -0.110098
C15   C     C_R   0.526151 0.048969 0.492318 0.039828
C16   C     C_R   0.723031 0.547476 0.468176 0.962774
C17   C     C_R   0.585180 0.100006 0.536740 -0.190595
C18   C     C_R   0.630295 0.068602 0.563461 -0.210873
C19   C     C_R   0.472006 0.918386 0.416639 0.304550
C20   C     C_R   0.424959 0.948720 0.390139 0.373478
C21   C     C_R   0.427751 0.028922 0.414011 -0.094562
C22   C     C_R   0.479410 0.080313 0.464360 0.034956
C23   C     C_R   0.424659 0.428929 0.877142 -0.246742
C24   C     C_R   0.381486 0.059586 0.386048 -0.217277
C25   C     C_R   0.386763 0.140723 0.406301 0.439860
C26   C     C_R   0.482849 0.161806 0.484488 -0.289439
C27   C     C_R   0.186076 0.434301 0.546608 -0.015440
C28   C     C_R   0.276720 0.452832 0.531766 0.794605
C29   C     C_R   0.813055 0.568879 0.456800 -0.289390
C30   C     C_R   0.042930 0.356692 0.604633 -0.206424
C31   C     C_R   0.128115 0.371549 0.590197 -0.204671
C32   C     C_R   0.157796 0.481693 0.517627 -0.265245
C33   C     C_R   0.072761 0.470262 0.533781 0.076925
C34   C     C_R   0.419578 0.436337 0.808254 -0.213257
C35   C     C_R   0.014829 0.405302 0.576699 0.187982
C36   C     C_R   0.043722 0.521034 0.507973 0.068651
C37   C     C_R   0.955592 0.499024 0.517526 0.124086
C38   C     C_R   0.900616 0.436843 0.563890 -0.196292
C39   C     C_R   0.929761 0.390681 0.592552 -0.291630
C40   C     C_R   0.512104 0.511278 0.311404 0.817213
C41   C     C_R   0.099998 0.595354 0.476233 -0.240746
C42   C     C_R   0.070819 0.645137 0.452929 -0.158051
C43   C     C_R   0.984725 0.620610 0.456012 -0.078191
C44   C     C_R   0.926091 0.543950 0.484361 -0.081075
C45   C     C_R   0.485371 0.564269 0.141664 0.478887
C46   C     C_R   0.956486 0.672443 0.431810 0.372183
C47   C     C_R   0.870427 0.646448 0.432605 0.285080
C48   C     C_R   0.840560 0.515179 0.477407 0.309903
C49   C     C_R   0.489524 0.488551 0.688602 0.824862
C50   C     C_R   0.492985 0.479099 0.760908 -0.052147
C51   C     C_R   0.571693 0.510875 0.781795 -0.290279
C52   C     C_R   0.577614 0.499719 0.849485 0.499785
C53   C     C_3   0.265045 0.157295 0.418758 0.049127
C54   C     C_3   0.228439 0.211086 0.397184 -0.294603
C55   C     C_3   0.142479 0.199211 0.442895 -0.975850
C56   C     C_R   0.479482 0.559373 0.213961 -0.311530
C57   C     C_3   0.306237 0.840946 0.360593 0.108396
C58   C     C_3   0.257815 0.798469 0.299731 -0.795574
C59   C     C_3   0.797390 0.026279 0.575278 0.055534
C60   C     C_3   0.865649 0.088545 0.616508 -0.305029
C61   C     C_3   0.952627 0.116915 0.568984 -0.993928
C62   C     C_3   0.553501 0.865117 0.332560 0.144484
C63   C     C_3   0.559162 0.784629 0.294495 -0.804745
C64   C     C_3   0.788726 0.380702 0.428948 0.096844
C65   C     C_3   0.722271 0.292805 0.442909 -0.321929
C66   C     C_3   0.723859 0.230849 0.377559 -0.950393
C67   C     C_R   0.567810 0.481781 0.183790 -0.182249
C68   C     C_3   0.826250 0.675521 0.343153 0.107930
C69   C     C_3   0.756903 0.700456 0.335535 -0.327191
C70   C     C_3   0.736659 0.675876 0.260425 -0.981206
C71   C     C_3   0.021981 0.812422 0.459584 0.139706
C72   C     C_3   0.080023 0.895434 0.428969 -0.862662
C73   C     C_3   0.638798 0.667523 0.008939 0.165003
C74   C     C_3   0.678191 0.739809 0.962199 -0.783685
C75   C     C_3   0.361375 0.553424 0.120779 0.108063
C76   C     C_3   0.319532 0.598279 0.094148 -0.790439
C77   C     C_3   0.512809 0.332807 0.973195 0.069884
C78   C     C_R   0.575249 0.487937 0.111816 -0.240187
C79   C     C_3   0.467256 0.264433 0.918869 -0.345478
C80   C     C_3   0.511516 0.205447 0.890611 -0.955766
C81   C     C_3   0.701184 0.483211 0.829276 0.029167
C82   C     C_3   0.774998 0.499128 0.864683 -0.316233
C83   C     C_3   0.827581 0.451714 0.822482 -0.966290
C84   C     C_R   0.533763 0.528549 0.090442 -0.032021
H1    H     H_    0.628773 0.543248 0.745169 0.162382
H2    H     H_    0.885336 0.343372 0.627611 0.150271
H3    H     H_    0.116674 0.703315 0.432042 0.169005
H4    H     H_    0.999005 0.307609 0.638187 0.142739
H5    H     H_    0.148502 0.333884 0.612999 0.159920
H6    H     H_    0.203191 0.526239 0.481301 0.164291
H7    H     H_    0.835221 0.425773 0.582434 0.208302
H8    H     H_    0.167335 0.619783 0.472506 0.141210
H9    H     H_    0.600137 0.449707 0.198976 0.166425
H10   H     H_    0.367331 0.398557 0.914335 0.173817
H11   H     H_    0.358440 0.410714 0.792567 0.164391
H12   H     H_    0.613342 0.461007 0.072634 0.138993
H13   H     H_    0.269216 0.174329 0.476459 0.143754
H14   H     H_    0.221955 0.090172 0.411051 0.147043
H15   H     H_    0.272240 0.278027 0.403538 0.215896
H16   H     H_    0.221777 0.194092 0.340262 0.227919
H17   H     H_    0.097022 0.133096 0.435986 0.267658
H18   H     H_    0.118077 0.239800 0.426550 0.270695
H19   H     H_    0.147891 0.216593 0.500008 0.271966
H20   H     H_    0.267690 0.867916 0.402526 0.109882
H21   H     H_    0.315355 0.792841 0.383058 0.177628
H22   H     H_    0.294499 0.770400 0.257227 0.260108
H23   H     H_    0.676325 0.110962 0.595618 0.177150
H24   H     H_    0.196164 0.748332 0.319246 0.217275
H25   H     H_    0.246481 0.844863 0.277097 0.255985
H26   H     H_    0.798319 0.056720 0.529418 0.135756
H27   H     H_    0.811876 0.970425 0.554763 0.146561
H28   H     H_    0.851276 0.144100 0.638071 0.216545
H29   H     H_    0.866271 0.058850 0.661963 0.229571
H30   H     H_    0.968308 0.062380 0.546417 0.267115
H31   H     H_    0.000935 0.160438 0.600856 0.264918
H32   H     H_    0.954402 0.149942 0.524816 0.276575
H33   H     H_    0.609408 0.900159 0.358964 0.128385
H34   H     H_    0.519305 0.204131 0.523111 0.131667
H35   H     H_    0.555032 0.902984 0.291942 0.162333
H36   H     H_    0.504989 0.748973 0.266425 0.272832
H37   H     H_    0.618617 0.799412 0.254801 0.196483
H38   H     H_    0.558335 0.745590 0.333581 0.258665
H39   H     H_    0.852239 0.379014 0.415836 0.142402
H40   H     H_    0.777280 0.400814 0.382653 0.152995
H41   H     H_    0.734098 0.271636 0.488193 0.214100
H42   H     H_    0.658879 0.294285 0.457564 0.231646
H43   H     H_    0.710533 0.250012 0.332000 0.268756
H44   H     H_    0.674873 0.167787 0.389720 0.272933
H45   H     H_    0.666259 0.840464 0.600233 0.186932
H46   H     H_    0.786396 0.227448 0.362499 0.257965
H47   H     H_    0.805323 0.606841 0.328058 0.116878
H48   H     H_    0.884996 0.708655 0.305628 0.171457
H49   H     H_    0.698817 0.668845 0.374305 0.207484
H50   H     H_    0.777312 0.769136 0.347730 0.224002
H51   H     H_    0.792983 0.709035 0.220880 0.263430
H52   H     H_    0.684853 0.693021 0.257167 0.265854
H53   H     H_    0.716118 0.607379 0.247202 0.269196
H54   H     H_    0.050290 0.804231 0.501487 0.120706
H55   H     H_    0.960120 0.815301 0.484382 0.173468
H56   H     H_    0.471367 0.800332 0.488054 0.226431
H57   H     H_    0.052332 0.906221 0.388125 0.265840
H58   H     H_    0.088349 0.947214 0.472103 0.198800
H59   H     H_    0.142641 0.895154 0.403985 0.250544
H60   H     H_    0.686307 0.641233 0.005146 0.130788
H61   H     H_    0.623292 0.692319 0.064864 0.154338
H62   H     H_    0.633042 0.768478 0.965493 0.259769
H63   H     H_    0.736197 0.787965 0.980393 0.191326
H64   H     H_    0.694982 0.717043 0.905921 0.270778
H65   H     H_    0.327411 0.536007 0.175509 0.133364
H66   H     H_    0.355373 0.495631 0.084489 0.147497
H67   H     H_    0.600580 0.165648 0.550208 0.135656
H68   H     H_    0.351515 0.615657 0.039223 0.268473
H69   H     H_    0.252168 0.556631 0.093582 0.197269
H70   H     H_    0.323405 0.655741 0.129765 0.254754
H71   H     H_    0.514898 0.302332 0.017457 0.175215
H72   H     H_    0.579955 0.368627 0.948827 0.115779
H73   H     H_    0.401252 0.227999 0.944394 0.236529
H74   H     H_    0.465785 0.292945 0.873163 0.220786
H75   H     H_    0.577257 0.240568 0.863800 0.259152
H76   H     H_    0.477252 0.156751 0.851327 0.270876
H77   H     H_    0.512469 0.174280 0.934897 0.268880
H78   H     H_    0.442903 0.588064 0.253012 0.178856
H79   H     H_    0.726643 0.503988 0.774533 0.154629
H80   H     H_    0.661163 0.414611 0.825936 0.129210
H81   H     H_    0.815797 0.567158 0.868394 0.229727
H82   H     H_    0.750442 0.478795 0.919554 0.208369
H83   H     H_    0.788348 0.383356 0.819348 0.260409
H84   H     H_    0.880725 0.464676 0.849432 0.266347
H85   H     H_    0.853768 0.471948 0.767684 0.269247
H86   H     H_    0.341916 0.021362 0.347560 0.193101
O1    O     O_3   0.500000 0.500000 0.500000 -0.482848
O2    O     O_R   0.548260 0.471800 0.330740 -0.649772
O3    O     O_R   0.433390 0.433420 0.655640 -0.646185
O4    O     O_R   0.470210 0.546620 0.357990 -0.645995
O5    O     O_R   0.548140 0.548160 0.655640 -0.643250
O6    O     O_3   0.344801 0.171516 0.375419 -0.648466
O7    O     O_3   0.384579 0.903673 0.333835 -0.588790
O8    O     O_3   0.718337 0.002982 0.621413 -0.647811
O9    O     O_3   0.477784 0.845075 0.382968 -0.614029
O10   O     O_3   0.782234 0.435020 0.490699 -0.664184
O11   O     O_3   0.841955 0.699559 0.413692 -0.632591
O12   O     O_R   0.690590 0.583040 0.521630 -0.634976
O13   O     O_3   0.013135 0.747153 0.404321 -0.602802
O14   O     O_3   0.564990 0.607139 0.985193 -0.588033
O15   O     O_3   0.446834 0.607155 0.121137 -0.601710
O16   O     O_3   0.467761 0.383434 0.002949 -0.671044
O17   O     O_3   0.655256 0.529085 0.869952 -0.657428
O18   O     O_R   0.304570 0.412130 0.559980 -0.650751
O19   O     O_R   0.515630 0.331630 0.426410 -0.625720
O20   O     O_R   0.489210 0.673200 0.491990 -0.641867
O21   O     O_R   0.414390 0.306840 0.521640 -0.655734
O22   O     O_R   0.580770 0.688330 0.559970 -0.644609
O23   O     O_R   0.677090 0.493090 0.426400 -0.660750
O24   O     O_R   0.327750 0.511740 0.491990 -0.644092
Zn1   Zn    Zn3+2 0.578510 0.578520 0.558300 0.980419
Zn2   Zn    Zn3+2 0.559220 0.450000 0.422240 0.972494
Zn3   Zn    Zn3+2 0.447700 0.556900 0.461160 0.959061
Zn4   Zn    Zn3+2 0.414570 0.414580 0.558300 0.962384

loop_
_geom_bond_atom_site_label_1
_geom_bond_atom_site_label_2
_ccdc_geom_bond_type
C72   H59   S    
C57   H21   S    
C8    C13   A    
C56   H78   S    
C58   H25   S    
C41   C42   A    
C4    O22   A    
C5    C56   A    
C19   C20   A    
C25   O6    S    
O21   Zn4   S    
C48   O10   S    
C47   O11   S    
C2    C12   S    
C51   H1    S    
C79   H74   S    
C49   O3    A    
C81   C82   S    
C60   H29   S    
C17   H67   S    
C53   C54   S    
C72   H58   S    
C12   C23   A    
C62   C63   S    
C7    C26   A    
C13   C18   A    
C29   C47   A    
C74   H64   S    
C36   C37   A    
C71   O13   S    
O1    Zn4   S    
C28   O18   A    
C77   H72   S    
C30   C31   A    
C64   O10   S    
C11   C14   A    
C16   O12   A    
C80   H76   S    
O24   Zn3   S    
C76   H68   S    
C75   H66   S    
C55   H19   S    
C76   H69   S    
C33   C36   A    
C66   H43   S    
C61   H30   S    
C73   C74   S    
C68   H48   S    
C18   H23   S    
C62   H33   S    
C16   O23   A    
C12   C52   A    
C46   C47   A    
C15   C22   A    
C32   H6    S    
C45   C56   A    
C78   H12   S    
C8    C9    A    
C31   H5    S    
C61   H31   S    
C59   H27   S    
C52   O17   S    
C24   H86   S    
C3    O14   S    
C5    C67   A    
C23   C34   A    
O3    Zn4   S    
C59   C60   S    
C21   C22   A    
C70   H52   S    
C77   O16   S    
C81   H79   S    
C54   H16   S    
C36   C41   A    
C75   O15   S    
C67   C78   A    
C10   H56   S    
C6    C9    A    
O5    Zn1   S    
C63   H37   S    
C50   C51   A    
C71   H54   S    
C77   C79   S    
C65   H42   S    
C72   H57   S    
C68   O11   S    
C34   C50   A    
C29   C48   A    
C27   C31   A    
C51   C52   A    
O22   Zn1   S    
C4    O20   A    
C74   H63   S    
C24   C25   A    
C4    C6    S    
C62   O9    S    
C73   O14   S    
C68   C69   S    
C80   H75   S    
C71   H55   S    
C3    C84   S    
C53   H13   S    
C16   C29   S    
C64   H40   S    
C83   H83   S    
C38   H7    S    
C82   C83   S    
C73   H61   S    
C60   C61   S    
C58   H22   S    
C65   H41   S    
C46   O13   S    
C68   H47   S    
C35   C39   A    
C75   C76   S    
C2    O16   S    
C6    C10   A    
C37   C38   A    
C60   H28   S    
C78   C84   A    
C28   O24   A    
C55   H18   S    
O18   Zn4   S    
O23   Zn2   S    
C61   H32   S    
C17   C18   A    
O20   Zn3   S    
C34   H11   S    
C62   H35   S    
C1    O21   A    
O1    Zn1   S    
C65   C66   S    
C43   C44   A    
C70   H51   S    
C81   H80   S    
C54   H15   S    
O2    Zn2   S    
C45   C84   A    
C42   C43   A    
C21   C24   A    
C30   H4    S    
C19   O9    S    
C40   O2    A    
C63   H38   S    
C82   H82   S    
C15   C17   A    
C57   H20   S    
C54   C55   S    
O4    Zn3   S    
C69   H49   S    
C27   C32   A    
C1    C7    S    
C14   C19   A    
C74   H62   S    
C59   O8    S    
C26   H34   S    
O1    Zn2   S    
C79   H73   S    
C59   H26   S    
C20   O7    S    
O12   Zn1   S    
C9    H45   S    
C53   H14   S    
C64   H39   S    
C30   C35   A    
C83   H84   S    
C55   H17   S    
C7    C25   A    
C23   H10   S    
C32   C33   A    
C37   C44   A    
C2    C3    D    
C71   C72   S    
C69   H50   S    
C64   C65   S    
C57   O7    S    
C63   H36   S    
C11   C13   A    
O19   Zn2   S    
C45   O15   S    
C57   C58   S    
C38   C39   A    
C75   H65   S    
C83   H85   S    
C76   H70   S    
C33   C35   A    
C66   H44   S    
C58   H24   S    
C69   C70   S    
C43   C46   A    
C80   H77   S    
C10   C11   A    
C79   C80   S    
C8    O8    S    
C73   H60   S    
C41   H8    S    
C20   C21   A    
C40   O4    A    
C70   H53   S    
O1    Zn3   S    
C49   C50   S    
C22   C26   A    
C5    C40   S    
C27   C28   S    
C67   H9    S    
C14   C15   A    
C42   H3    S    
C39   H2    S    
C82   H81   S    
C77   H71   S    
C44   C48   A    
C53   O6    S    
C81   O17   S    
C66   H46   S    
C49   O5    A    
C1    O19   A    
