data_mof_unit_58108.cif
_audit_creation_date              2012-12-11T15:07:32-0500
_audit_creation_method            fapswitch 2.2
_symmetry_space_group_name_H-M    P1
_symmetry_Int_Tables_number       1
_space_group_crystal_system       triclinic
_cell_length_a                    21.636089
_cell_length_b                    7.211547
_cell_length_c                    18.603778
_cell_angle_alpha                 90.01004
_cell_angle_beta                  95.941911
_cell_angle_gamma                 89.916286
_cell_volume                      2887.1429251

loop_
_atom_site_label
_atom_site_type_symbol
_atom_type_description
_atom_site_fract_x
_atom_site_fract_y
_atom_site_fract_z
_atom_type_partial_charge
O1    O     O_R   0.449650 0.506500 0.414480 -0.532094
O2    O     O_R   0.550350 0.006500 0.585520 -0.532621
O3    O     O_R   0.432010 0.173150 0.560250 -0.539684
O4    O     O_R   0.567990 0.673150 0.439750 -0.539251
C1    C     C_R   0.416139 0.344777 0.581074 0.685519
C2    C     C_R   0.584403 0.844584 0.419641 0.685131
O5    O     O_R   0.442320 0.176650 0.413480 -0.533311
O6    O     O_R   0.557680 0.676650 0.586520 -0.534187
O7    O     O_R   0.560730 0.008380 0.437700 -0.537812
O8    O     O_R   0.439270 0.508380 0.562300 -0.538511
C3    C     C_R   0.428497 0.345167 0.387621 0.676510
C4    C     C_R   0.571535 0.844989 0.612373 0.673619
O9    O     O_3   0.538840 0.339860 0.508120 -0.373103
O10   O     O_3   0.461160 0.839860 0.491880 -0.371898
V1    V     V_3+5 0.492800 0.064220 0.498490 1.415234
V2    V     V_3+5 0.507200 0.564220 0.501510 1.414993
C5    C     C_R   0.871139 0.985859 0.689999 -0.159345
C6    C     C_R   0.128151 0.474114 0.310458 -0.159261
H1    H     H_    0.959151 0.013109 0.753475 0.103482
H2    H     H_    0.040101 0.501189 0.246988 0.105550
H3    H     H_    0.789151 0.985794 0.573906 0.126414
H4    H     H_    0.209798 0.468197 0.426826 0.126378
C7    C     C_R   0.886457 0.942879 0.819629 -0.034095
C8    C     C_R   0.113493 0.441683 0.180349 -0.034608
C9    C     C_R   0.586136 0.811922 0.744601 -0.159456
C10   C     C_R   0.414386 0.319922 0.255102 -0.160308
C11   C     C_R   0.622333 0.807820 0.810814 -0.119362
C12   C     C_R   0.378380 0.319027 0.188741 -0.119387
C13   C     C_R   0.686083 0.840425 0.815050 -0.157771
C14   C     C_R   0.314435 0.348559 0.184605 -0.157271
C15   C     C_R   0.715685 0.878922 0.752395 0.076973
C16   C     C_R   0.284428 0.380460 0.247525 0.077133
C17   C     C_R   0.677919 0.885064 0.684346 0.069160
C18   C     C_R   0.321956 0.382739 0.315761 0.068643
C19   C     C_R   0.781391 0.911154 0.755023 0.073171
C20   C     C_R   0.218557 0.409918 0.244982 0.073234
C21   C     C_R   0.807280 0.950737 0.689549 0.138124
C22   C     C_R   0.192230 0.442427 0.310767 0.138034
C23   C     C_R   0.769423 0.955987 0.623881 -0.200468
C24   C     C_R   0.229858 0.443822 0.376619 -0.199764
C25   C     C_R   0.705927 0.923311 0.621177 -0.192548
C26   C     C_R   0.293541 0.414171 0.379210 -0.191909
C27   C     C_R   0.822568 0.906472 0.820052 -0.214218
C28   C     C_R   0.177617 0.409012 0.179757 -0.213880
C29   C     C_R   0.910171 0.983246 0.754433 -0.165420
C30   C     C_R   0.089307 0.474742 0.245874 -0.166145
C31   C     C_R   0.612848 0.850766 0.681025 -0.078113
C32   C     C_R   0.387237 0.351892 0.318956 -0.078593
H5    H     H_    0.806558 0.877633 0.871847 0.093623
H6    H     H_    0.193945 0.385406 0.127731 0.093969
H7    H     H_    0.536782 0.784142 0.742877 0.102100
H8    H     H_    0.463938 0.295232 0.256708 0.104487
H9    H     H_    0.600777 0.778021 0.859509 0.119742
H10   H     H_    0.400259 0.294449 0.139829 0.119591
H11   H     H_    0.678828 0.928703 0.568908 0.110970
H12   H     H_    0.320461 0.416391 0.431622 0.111965
C33   C     C_R   0.645805 0.709797 0.323999 -0.217373
C34   C     C_R   0.361925 0.519434 0.673144 -0.210363
C35   C     C_R   0.634902 0.856389 0.371140 -0.077229
C36   C     C_R   0.366979 0.357798 0.631335 -0.079207
C37   C     C_R   0.671306 0.018329 0.370174 -0.221197
C38   C     C_R   0.324748 0.211764 0.637735 -0.226121
C39   C     C_R   0.717540 0.035027 0.322808 0.088681
C40   C     C_R   0.277736 0.227402 0.684335 0.090557
C41   C     C_R   0.727316 0.888910 0.274876 0.054834
C42   C     C_R   0.273345 0.389847 0.725998 0.054775
C43   C     C_R   0.691276 0.725836 0.275435 0.089705
C44   C     C_R   0.315769 0.535970 0.720487 0.085921
C45   C     C_R   0.754028 0.195819 0.322274 -0.197245
C46   C     C_R   0.234803 0.083743 0.689885 -0.185256
C47   C     C_R   0.799410 0.212649 0.274172 -0.187222
C48   C     C_R   0.188468 0.099763 0.736782 -0.196894
C49   C     C_R   0.809067 0.069332 0.225491 0.090709
C50   C     C_R   0.184064 0.260037 0.778861 0.086815
C51   C     C_R   0.773095 0.906135 0.226147 0.054794
C52   C     C_R   0.226440 0.406260 0.773264 0.055084
C53   C     C_R   0.782894 0.759948 0.178255 0.089071
C54   C     C_R   0.222045 0.568741 0.814905 0.091477
C55   C     C_R   0.746459 0.599070 0.178844 -0.196743
C56   C     C_R   0.264952 0.712438 0.809327 -0.185638
C57   C     C_R   0.701003 0.582385 0.226847 -0.187041
C58   C     C_R   0.311330 0.696320 0.762504 -0.196697
C59   C     C_R   0.854353 0.085665 0.176686 -0.219876
C60   C     C_R   0.138036 0.276371 0.826400 -0.212030
C61   C     C_R   0.865200 0.939089 0.129512 -0.079565
C62   C     C_R   0.133025 0.438018 0.868199 -0.080433
C63   C     C_R   0.829046 0.776745 0.130800 -0.220620
C64   C     C_R   0.175095 0.584307 0.861575 -0.227432
H13   H     H_    0.617915 0.584993 0.323842 0.125664
H14   H     H_    0.394370 0.632616 0.669476 0.127976
H15   H     H_    0.663831 0.131706 0.406579 0.131229
H16   H     H_    0.327847 0.087036 0.605772 0.131472
H17   H     H_    0.747236 0.309309 0.358840 0.133706
H18   H     H_    0.237205 0.958402 0.658152 0.136441
H19   H     H_    0.882127 0.210667 0.176644 0.124832
H20   H     H_    0.105668 0.163082 0.830276 0.126832
H21   H     H_    0.836596 0.663223 0.094489 0.129770
H22   H     H_    0.171954 0.709099 0.893490 0.129580
H23   H     H_    0.753287 0.485509 0.142325 0.132908
H24   H     H_    0.262538 0.837800 0.841040 0.136140
H25   H     H_    0.673561 0.456704 0.226110 0.135934
H26   H     H_    0.343621 0.809874 0.758948 0.131263
O11   O     O_R   0.060820 0.290050 0.937800 -0.539495
O12   O     O_R   0.939180 0.790050 0.062200 -0.538774
O13   O     O_R   0.057690 0.616620 0.086540 -0.534995
O14   O     O_R   0.942310 0.116620 0.913460 -0.535956
C65   C     C_R   0.071571 0.448664 0.112475 0.685693
C66   C     C_R   0.928421 0.948856 0.887507 0.682403
O15   O     O_R   0.068010 0.619890 0.939770 -0.540736
O16   O     O_R   0.931990 0.119890 0.060230 -0.540380
O17   O     O_R   0.949640 0.787940 0.914460 -0.533115
O18   O     O_R   0.050360 0.287940 0.085540 -0.532699
C67   C     C_R   0.084041 0.450940 0.918658 0.697273
C68   C     C_R   0.915437 0.951110 0.080672 0.696690
O19   O     O_3   0.961210 0.453080 0.991940 -0.374591
O20   O     O_3   0.038790 0.953080 0.008060 -0.373362
V3    V     V_3+5 0.007200 0.728820 0.001500 1.409640
V4    V     V_3+5 0.992800 0.228820 0.998500 1.409032
H27   H     H_    0.826831 0.338366 0.274884 0.136060
H28   H     H_    0.156201 0.986161 0.740371 0.131275
H29   H     H_    0.890954 0.016897 0.640201 0.113979
H30   H     H_    0.107990 0.499571 0.360511 0.113769
H31   H     H_    0.710851 0.834281 0.868266 0.108384
H32   H     H_    0.289848 0.345406 0.131251 0.108563

loop_
_geom_bond_atom_site_label_1
_geom_bond_atom_site_label_2
_ccdc_geom_bond_type
C42   C44   A    
C39   C41   A    
C7    C29   A    
C11   C13   A    
C65   O18   A    
O1    C3    A    
O2    C4    A    
O16   V4    S    
C2    O7    A    
O15   V3    S    
C23   C25   A    
C57   H25   S    
O5    C3    A    
O13   C65   A    
C33   H13   S    
C62   C67   S    
C16   C20   A    
C55   H23   S    
C61   C68   S    
C46   H18   S    
C60   C62   A    
C45   H17   S    
C54   C56   A    
C33   C35   A    
C28   H6    S    
C7    C27   A    
O20   V3    S    
C36   C38   A    
C60   H20   S    
C45   C47   A    
C25   H11   S    
C38   C40   A    
C26   H12   S    
C39   C45   A    
C18   C26   A    
C41   C43   A    
C38   H16   S    
C15   C17   A    
C40   C46   A    
C14   C16   A    
C19   C27   A    
C9    C31   A    
O15   C67   A    
C61   C63   A    
H4    C24   S    
O6    V2    S    
C22   C24   A    
O14   V4    S    
C49   C51   A    
O13   V3    S    
C3    C32   S    
C33   C43   A    
C4    C31   S    
C6    C30   A    
C53   C55   A    
C54   C64   A    
C35   C37   A    
C52   C54   A    
C17   C25   A    
C48   C50   A    
C47   C49   A    
C12   H10   S    
C27   H5    S    
O5    V1    S    
H1    C29   S    
C5    C29   A    
C40   C42   A    
O4    V2    S    
C9    H7    S    
C10   H8    S    
C51   C53   A    
H3    C23   S    
C64   H22   S    
O6    C4    A    
O19   V4    S    
C59   H19   S    
C48   H28   S    
C37   C39   A    
C58   H26   S    
C8    C65   S    
C5    C21   A    
O2    V1    S    
C34   H14   S    
C50   C52   A    
C6    H30   S    
O12   C68   A    
O4    C2    A    
C59   C61   A    
C14   H32   S    
C43   C57   A    
C17   C31   A    
C15   C19   A    
C20   C28   A    
O11   V4    S    
C18   C32   A    
O3    V1    S    
C19   C21   A    
C55   C57   A    
O12   V3    S    
C5    H29   S    
O16   C68   A    
C1    C36   S    
O11   C67   A    
C2    C35   S    
C50   C60   A    
O3    C1    A    
C11   H9    S    
C10   C32   A    
C9    C11   A    
O1    V2    S    
C10   C12   A    
C41   C51   A    
C66   O17   A    
C47   H27   S    
O17   V3    S    
C44   C58   A    
C20   C22   A    
C6    C22   A    
C8    C30   A    
C12   C14   A    
C13   C15   A    
O8    V2    S    
O18   V4    S    
C34   C44   A    
O14   C66   A    
C8    C28   A    
C7    C66   S    
C13   H31   S    
C24   C26   A    
C56   C58   A    
C62   C64   A    
O7    V1    S    
H2    C30   S    
C1    O8    A    
C53   C63   A    
C21   C23   A    
O9    V2    S    
O10   V1    S    
C46   C48   A    
C34   C36   A    
C49   C59   A    
C56   H24   S    
C42   C52   A    
C37   H15   S    
C16   C18   A    
C63   H21   S    
