data_mof_unit_38972.cif
_audit_creation_date              2012-12-11T15:12:43-0500
_audit_creation_method            fapswitch 2.2
_symmetry_space_group_name_H-M    P1
_symmetry_Int_Tables_number       1
_space_group_crystal_system       triclinic
_cell_length_a                    22.333338
_cell_length_b                    6.940416
_cell_length_c                    19.373429
_cell_angle_alpha                 90.002549
_cell_angle_beta                  99.220865
_cell_angle_gamma                 90.002938
_cell_volume                      2964.12898092

loop_
_atom_site_label
_atom_site_type_symbol
_atom_type_description
_atom_site_fract_x
_atom_site_fract_y
_atom_site_fract_z
_atom_type_partial_charge
O1    O     O_R   0.448420 0.506120 0.415750 -0.534375
O2    O     O_R   0.551580 0.006120 0.584250 -0.534345
O3    O     O_R   0.436490 0.174470 0.555610 -0.533760
O4    O     O_R   0.563510 0.674470 0.444390 -0.533801
C1    C     C_R   0.421168 0.344674 0.575865 0.722969
C2    C     C_R   0.578832 0.844676 0.424134 0.722975
O5    O     O_R   0.441310 0.176330 0.414520 -0.532322
O6    O     O_R   0.558690 0.676330 0.585480 -0.532351
O7    O     O_R   0.556430 0.007110 0.442150 -0.529253
O8    O     O_R   0.443570 0.507110 0.557850 -0.529292
C3    C     C_R   0.426871 0.345123 0.388288 0.747535
C4    C     C_R   0.573131 0.845140 0.611709 0.747540
O9    O     O_3   0.537770 0.339560 0.509230 -0.368576
O10   O     O_3   0.462230 0.839560 0.490770 -0.368575
V1    V     V_3+5 0.492990 0.064280 0.498290 1.521841
V2    V     V_3+5 0.507010 0.564280 0.501710 1.521729
C5    C     C_R   0.867284 0.960719 0.695249 -0.119434
C6    C     C_R   0.132782 0.462251 0.304727 -0.119439
H1    H     H_    0.954620 0.987754 0.759067 0.135789
H2    H     H_    0.045460 0.489556 0.240904 0.135712
H3    H     H_    0.785104 0.948500 0.580433 0.171788
H4    H     H_    0.214972 0.450248 0.419539 0.171619
H5    H     H_    0.885894 0.979946 0.647362 0.155940
H6    H     H_    0.114203 0.482212 0.352600 0.155867
C7    C     C_R   0.884323 0.940042 0.821536 -0.055498
C8    C     C_R   0.115682 0.440184 0.178468 -0.055518
C9    C     C_R   0.588904 0.828504 0.741189 0.248949
C10   C     C_R   0.411074 0.328038 0.258812 0.248962
C11   C     C_R   0.625919 0.831411 0.806205 -0.102161
C12   C     C_R   0.374052 0.330838 0.193800 -0.102157
C13   C     C_R   0.688343 0.857418 0.811797 -0.201148
C14   C     C_R   0.311636 0.357022 0.188209 -0.201156
C15   C     C_R   0.716149 0.881900 0.751794 0.079221
C16   C     C_R   0.283845 0.381800 0.248210 0.079214
C17   C     C_R   0.678034 0.879896 0.684806 0.019425
C18   C     C_R   0.321974 0.380057 0.315190 0.019432
C19   C     C_R   0.780448 0.908228 0.756094 0.089244
C20   C     C_R   0.219555 0.408329 0.243909 0.089224
C21   C     C_R   0.804740 0.932885 0.693191 0.108650
C22   C     C_R   0.195300 0.433830 0.306796 0.108692
C23   C     C_R   0.766625 0.930104 0.628459 -0.152571
C24   C     C_R   0.233428 0.431299 0.371522 -0.152515
C25   C     C_R   0.704450 0.903897 0.624216 -0.164636
C26   C     C_R   0.295582 0.404620 0.375771 -0.164634
C27   C     C_R   0.821765 0.911479 0.820350 -0.203818
C28   C     C_R   0.178212 0.410979 0.179668 -0.203880
C29   C     C_R   0.906582 0.965011 0.758802 -0.149351
C30   C     C_R   0.093472 0.466245 0.241180 -0.149246
C31   C     C_R   0.614188 0.852834 0.679835 -0.149659
C32   C     C_R   0.385809 0.352749 0.320162 -0.149665
H7    H     H_    0.806986 0.893650 0.870246 0.105126
H8    H     H_    0.192952 0.392207 0.129795 0.105192
H9    H     H_    0.713540 0.857615 0.864061 0.142881
H10   H     H_    0.286437 0.357232 0.135947 0.142886
H11   H     H_    0.606090 0.812923 0.853248 0.174381
H12   H     H_    0.393869 0.312138 0.146757 0.174391
H13   H     H_    0.677151 0.902841 0.572714 0.108469
H14   H     H_    0.322890 0.403755 0.427268 0.108492
C33   C     C_3   0.810409 0.755044 0.264796 -0.274661
C34   C     C_3   0.189594 0.255009 0.735212 -0.274680
C35   C     C_3   0.784220 0.107402 0.245816 0.097765
C36   C     C_3   0.215775 0.607390 0.754175 0.097768
C37   C     C_3   0.736629 0.088409 0.296249 -0.327362
C38   C     C_3   0.263363 0.588388 0.703738 -0.327369
H15   H     H_    0.855318 0.791273 0.295623 0.231648
H16   H     H_    0.144685 0.291205 0.704381 0.231649
H17   H     H_    0.767894 0.218265 0.205670 0.142218
H18   H     H_    0.232102 0.718282 0.794315 0.142204
H19   H     H_    0.757345 0.124446 0.350744 0.234587
H20   H     H_    0.242643 0.624373 0.649242 0.234579
H21   H     H_    0.699685 0.195183 0.280954 0.147391
H22   H     H_    0.300305 0.695196 0.719023 0.147395
C39   C     C_1   0.624665 0.854894 0.378866 -0.105877
C40   C     C_1   0.375334 0.354889 0.621134 -0.105877
C41   C     C_3   0.791635 0.911942 0.208107 0.067964
C42   C     C_3   0.208366 0.411948 0.791893 0.067972
C43   C     C_3   0.761722 0.733605 0.313712 0.167967
C44   C     C_3   0.238281 0.233560 0.686298 0.167962
C45   C     C_3   0.709386 0.881982 0.293629 0.084975
C46   C     C_3   0.290613 0.381980 0.706370 0.084958
C47   C     C_3   0.680200 0.840770 0.216812 -0.396751
C48   C     C_3   0.319802 0.340836 0.783190 -0.396738
C49   C     C_3   0.728044 0.857823 0.166564 0.096158
C50   C     C_3   0.271958 0.357886 0.833437 0.096156
C51   C     C_1   0.662755 0.866145 0.340650 0.034265
C52   C     C_1   0.337244 0.366140 0.659349 0.034265
C53   C     C_1   0.837638 0.928409 0.160197 0.070052
C54   C     C_1   0.162362 0.428417 0.839803 0.070052
C55   C     C_1   0.875398 0.939689 0.121533 -0.115218
C56   C     C_1   0.124603 0.439696 0.878467 -0.115227
H23   H     H_    0.713259 0.973619 0.127817 0.144813
H24   H     H_    0.286740 0.473708 0.872180 0.144819
H25   H     H_    0.659446 0.694668 0.213356 0.209226
H26   H     H_    0.340562 0.194751 0.786654 0.209256
H27   H     H_    0.816471 0.614193 0.239524 0.191736
H28   H     H_    0.183532 0.114170 0.760489 0.191726
H29   H     H_    0.742410 0.585563 0.307360 0.127718
H30   H     H_    0.257598 0.085534 0.692661 0.127716
H31   H     H_    0.642706 0.944805 0.200274 0.184981
H32   H     H_    0.357291 0.444909 0.799721 0.184960
O11   O     O_R   0.056480 0.288780 0.942210 -0.534376
O12   O     O_R   0.943520 0.788780 0.057790 -0.534377
O13   O     O_R   0.058700 0.616820 0.085490 -0.539144
O14   O     O_R   0.941300 0.116820 0.914510 -0.539127
C57   C     C_R   0.073234 0.448297 0.111734 0.699726
C58   C     C_R   0.926766 0.948276 0.888269 0.699727
O15   O     O_R   0.063520 0.618570 0.944410 -0.533958
O16   O     O_R   0.936480 0.118570 0.055590 -0.533952
O17   O     O_R   0.948420 0.787670 0.915740 -0.535223
O18   O     O_R   0.051580 0.287670 0.084260 -0.535216
C59   C     C_R   0.078956 0.449797 0.924033 0.718104
C60   C     C_R   0.921044 0.949796 0.075967 0.718090
O19   O     O_3   0.962260 0.453430 0.990800 -0.366069
O20   O     O_3   0.037740 0.953430 0.009200 -0.366082
V3    V     V_3+5 0.007000 0.728750 0.001710 1.481987
V4    V     V_3+5 0.993000 0.228750 0.998290 1.482010
Br1   Br    Br    0.861013 0.206532 0.296005 -0.509686
Br2   Br    Br    0.138979 0.706463 0.703987 -0.509754
Br3   Br    Br    0.729800 0.621407 0.111897 -0.581681
Br4   Br    Br    0.270208 0.121493 0.888112 -0.581678
Br5   Br    Br    0.503282 0.790989 0.738615 -0.549780
Br6   Br    Br    0.496682 0.290222 0.261384 -0.549790
Br7   Br    Br    0.799324 0.753387 0.411783 -0.499031
Br8   Br    Br    0.200680 0.253246 0.588224 -0.498856

loop_
_geom_bond_atom_site_label_1
_geom_bond_atom_site_label_2
_ccdc_geom_bond_type
C12   C14   A    
C57   O18   A    
C48   H26   S    
C33   C41   S    
C9    C11   A    
C23   C25   A    
O12   C60   A    
O1    C3    A    
O2    C4    A    
C17   C25   A    
C33   C43   S    
C2    O7    A    
O14   C58   A    
O20   V3    S    
C9    Br5   S    
O3    V1    S    
C21   C23   A    
C37   C45   S    
C35   C41   S    
O5    C3    A    
C55   C60   S    
C34   C44   S    
C5    H5    S    
C33   H27   S    
C6    H6    S    
C44   C46   S    
C27   H7    S    
C7    C27   A    
C28   H8    S    
C5    C21   A    
C49   Br3   S    
C1    C40   S    
C35   C37   S    
C6    C22   A    
C46   C52   S    
O12   V3    S    
O14   V4    S    
C10   C32   A    
C37   H19   S    
C26   H14   S    
C44   H30   S    
C36   C38   S    
C13   C15   A    
C43   H29   S    
C38   H20   S    
O6    C4    A    
C44   Br8   S    
C42   C54   S    
C16   C18   A    
C8    C30   A    
O19   V4    S    
O5    V1    S    
C34   H16   S    
O6    V2    S    
C38   C46   S    
C42   C50   S    
C24   C26   A    
C56   C59   S    
C8    C57   S    
C14   H10   S    
C47   C49   S    
C7    C58   S    
C4    C31   S    
C43   C45   S    
C20   C28   A    
C35   Br1   S    
C46   C48   S    
C45   C47   S    
C25   H13   S    
C47   H31   S    
C12   H12   S    
C34   C42   S    
C15   C19   A    
O16   C60   A    
C14   C16   A    
O4    V2    S    
O13   V3    S    
C17   C31   A    
C43   Br7   S    
C47   H25   S    
C35   H17   S    
C50   Br4   S    
O15   V3    S    
H1    C29   S    
O13   C57   A    
O1    V2    S    
C13   H9    S    
O2    V1    S    
C39   C51   T    
H2    C30   S    
H3    C23   S    
C34   H28   S    
C41   C53   S    
C37   H21   S    
C48   C50   S    
O9    V1    S    
O10   V2    S    
C18   C26   A    
O4    C2    A    
O11   C59   A    
C19   C27   A    
C49   H23   S    
O18   V4    S    
C45   C51   S    
C18   C32   A    
C2    C39   S    
C7    C29   A    
C36   C42   S    
C16   C20   A    
O15   C59   A    
C5    C29   A    
C54   C56   T    
C22   C24   A    
O3    C1    A    
C6    C30   A    
O20   V4    S    
C40   C52   T    
C11   H11   S    
C36   H18   S    
O16   V4    S    
C53   C55   T    
O7    V1    S    
C10   C12   A    
C11   C13   A    
C3    C32   S    
O8    V2    S    
C33   H15   S    
C20   C22   A    
C41   C49   S    
H4    C24   S    
C48   H32   S    
C15   C17   A    
C10   Br6   S    
C38   H22   S    
C36   Br2   S    
O17   V3    S    
C1    O8    A    
C19   C21   A    
O9    V2    S    
O11   V4    S    
O10   V1    S    
C50   H24   S    
C8    C28   A    
C9    C31   A    
O19   V3    S    
C58   O17   A    
