data_mof_unit_55637.cif
_audit_creation_date              2012-12-10T17:01:38-0500
_audit_creation_method            fapswitch 2.2
_symmetry_space_group_name_H-M    P1
_symmetry_Int_Tables_number       1
_space_group_crystal_system       triclinic
_cell_length_a                    9.837022
_cell_length_b                    11.035604
_cell_length_c                    13.006752
_cell_angle_alpha                 90.110106
_cell_angle_beta                  75.38332
_cell_angle_gamma                 110.804228
_cell_volume                      1271.18201281

loop_
_atom_site_label
_atom_site_type_symbol
_atom_type_description
_atom_site_fract_x
_atom_site_fract_y
_atom_site_fract_z
_atom_type_partial_charge
C1    C     C_R   0.439822 0.254044 0.507726 0.865952
C2    C     C_R   0.560177 0.745956 0.492274 0.865943
C3    C     C_2   0.083004 0.511129 0.491330 -0.023396
C4    C     C_2   0.916996 0.488871 0.508670 -0.023383
C5    C     C_R   0.472905 0.495281 0.702817 0.840393
C6    C     C_R   0.527095 0.504716 0.297183 0.840398
C7    C     C_R   0.543529 0.509135 0.182661 -0.163441
C8    C     C_R   0.456468 0.490847 0.817339 -0.163580
C9    C     C_R   0.296057 0.445406 0.998869 0.443464
C10   C     C_R   0.703937 0.554539 0.001132 0.443412
C11   C     C_R   0.313107 0.452254 0.889299 -0.232616
C12   C     C_R   0.686888 0.547708 0.110701 -0.232866
C13   C     C_R   0.584853 0.524161 0.854281 -0.166419
C14   C     C_R   0.415144 0.475817 0.145720 -0.166421
C15   C     C_R   0.573176 0.519987 0.963343 -0.019650
C16   C     C_R   0.426819 0.479971 0.036657 -0.019761
C17   C     C_2   0.405896 0.114890 0.511985 -0.321271
C18   C     C_2   0.594103 0.885110 0.488016 -0.321251
C19   C     C_2   0.517086 0.069543 0.497920 -0.136260
C20   C     C_2   0.482913 0.930457 0.502080 -0.136296
Cu1   Cu    Cu3+1 0.647370 0.522180 0.481340 0.991239
Cu2   Cu    Cu3+1 0.352630 0.477820 0.518660 0.991243
H1    H     H_    0.306238 0.446522 0.203369 0.230092
H2    H     H_    0.693760 0.553479 0.796632 0.230122
H3    H     H_    0.786049 0.573863 0.140240 0.230536
H4    H     H_    0.213946 0.426098 0.859760 0.230585
H5    H     H_    0.365841 0.864829 0.516782 0.188478
H6    H     H_    0.634158 0.135171 0.483219 0.188488
H7    H     H_    0.710974 0.951045 0.473312 0.164890
H8    H     H_    0.289026 0.048955 0.526688 0.164881
H9    H     H_    0.834698 0.414128 0.570186 0.162323
H10   H     H_    0.165301 0.585872 0.429814 0.162312
H11   H     H_    0.949567 0.626342 0.395829 0.216146
H12   H     H_    0.050433 0.373658 0.604171 0.216163
N1    N     N_2   0.131210 0.444490 0.546730 -0.276187
N2    N     N_2   0.868790 0.555510 0.453270 -0.276198
O1    O     O_R   0.578710 0.332530 0.490040 -0.581215
O2    O     O_R   0.421290 0.667470 0.509960 -0.581220
O3    O     O_R   0.329810 0.295070 0.521560 -0.569748
O4    O     O_R   0.670190 0.704930 0.478440 -0.569747
O5    O     O_R   0.604230 0.515670 0.637800 -0.585000
O6    O     O_R   0.395770 0.484330 0.362200 -0.585006
O7    O     O_R   0.355330 0.478200 0.669330 -0.567541
O8    O     O_R   0.644670 0.521800 0.330670 -0.567547
S1    S     S_3+6 0.109706 0.391709 0.084907 0.001087
O9    O     O_2   0.082543 0.272958 0.155305 -0.289509
O10   O     O_2   0.092427 0.498081 0.153360 -0.304340
O11   O     O_3   0.981076 0.353954 0.014254 -0.484765
H13   H     H_    0.884092 0.342461 0.067048 0.387396
S2    S     S_3+6 0.890287 0.608200 0.915093 0.000783
O12   O     O_2   0.907517 0.501859 0.846586 -0.304246
O13   O     O_2   0.917501 0.727015 0.844752 -0.289742
O14   O     O_3   0.018912 0.645820 0.985744 -0.484962
H14   H     H_    0.116073 0.658215 0.932796 0.387258

loop_
_geom_bond_atom_site_label_1
_geom_bond_atom_site_label_2
_ccdc_geom_bond_type
C14   H1    S    
C5    C8    S    
S2    O13   D    
C4    N2    D    
C9    S1    S    
C8    C13   A    
Cu2   N1    S    
C20   H5    S    
C1    O1    A    
C2    C18   S    
Cu1   O8    S    
C2    O2    A    
C1    C17   S    
Cu2   O7    S    
C3    N1    D    
C12   H3    S    
C19   C20   S    
S1    O10   D    
S2    O12   D    
C5    O7    A    
Cu1   N2    S    
C6    O8    A    
O14   H14   S    
C19   H6    S    
C9    C11   A    
C10   S2    S    
Cu2   O6    S    
Cu1   O4    S    
C10   C12   A    
C8    C11   A    
Cu1   O5    S    
Cu2   O3    S    
O11   H13   S    
C17   C19   D    
C9    C16   A    
C6    C7    S    
C18   C20   D    
C10   C15   A    
C13   C15   A    
C3    H10   S    
C14   C16   A    
C7    C12   A    
S1    O9    D    
S2    O14   S    
C17   H8    S    
C1    O3    A    
C15   C16   A    
C4    H9    S    
C2    O4    A    
H11   N2    S    
Cu1   O1    S    
H12   N1    S    
C6    O6    A    
S1    O11   S    
C18   H7    S    
C5    O5    A    
C11   H4    S    
Cu1   Cu2   S    
C7    C14   A    
C3    C4    S    
C13   H2    S    
Cu2   O2    S    
