data_mof_unit_46183.cif
_audit_creation_date              2013-03-05T16:48:40-0500
_audit_creation_method            fapswitch 2.2
_symmetry_space_group_name_H-M    P1
_symmetry_Int_Tables_number       1
_space_group_crystal_system       triclinic
_cell_length_a                    10.90093
_cell_length_b                    10.894405
_cell_length_c                    10.434286
_cell_angle_alpha                 91.751113
_cell_angle_beta                  91.99467
_cell_angle_gamma                 89.809532
_cell_volume                      1237.8345349

loop_
_atom_site_label
_atom_site_type_symbol
_atom_site_description
_atom_site_fract_x
_atom_site_fract_y
_atom_site_fract_z
_atom_type_partial_charge
O1    O     O_R   0.499990 0.319650 0.605810 -0.574320
O2    O     O_R   0.500010 0.680350 0.394190 -0.574303
O3    O     O_R   0.499990 0.319640 0.394190 -0.578720
O4    O     O_R   0.500010 0.680360 0.605810 -0.578708
C1    C     C_R   0.499295 0.261408 0.497878 0.823964
C2    C     C_R   0.500707 0.738592 0.502122 0.823988
O5    O     O_R   0.319640 0.500010 0.605810 -0.594117
O6    O     O_R   0.680360 0.499990 0.394190 -0.594119
O7    O     O_R   0.319650 0.500010 0.394190 -0.572049
O8    O     O_R   0.680350 0.499990 0.605810 -0.572047
C3    C     C_R   0.261378 0.501012 0.497742 0.814862
C4    C     C_R   0.738621 0.498986 0.502257 0.814853
Cu1   Cu    Cu3+1 0.500000 0.500000 0.625300 0.999089
Cu2   Cu    Cu3+1 0.500000 0.500000 0.374700 0.999090
H1    H     H_    0.214564 0.443474 0.900006 0.152592
H2    H     H_    0.785434 0.556545 0.099975 0.152593
C5    C     C_R   0.188882 0.567983 0.061036 -0.200294
C6    C     C_R   0.811141 0.432019 0.938971 -0.200304
H3    H     H_    0.222197 0.645776 0.010800 0.154079
H4    H     H_    0.777851 0.354225 0.989222 0.154101
C7    C     C_R   0.148114 0.582776 0.187022 0.404872
C8    C     C_R   0.851907 0.417218 0.812988 0.404863
C9    C     C_R   0.105443 0.478389 0.250043 0.008026
C10   C     C_R   0.894552 0.521604 0.749951 0.008039
C11   C     C_R   0.100774 0.363874 0.184427 -0.210279
C12   C     C_R   0.899186 0.636128 0.815540 -0.210257
H5    H     H_    0.065921 0.284023 0.230617 0.155855
H6    H     H_    0.934014 0.715979 0.769335 0.155847
C13   C     C_R   0.139099 0.351802 0.058554 -0.132532
C14   C     C_R   0.860859 0.648211 0.941408 -0.132512
H7    H     H_    0.133769 0.263459 0.008362 0.150131
H8    H     H_    0.866166 0.736561 0.991579 0.150092
C15   C     C_R   0.183937 0.453424 0.997293 -0.173986
C16   C     C_R   0.816055 0.546588 0.002690 -0.173960
C17   C     C_R   0.929108 0.484313 0.387459 -0.182804
C18   C     C_R   0.070889 0.515675 0.612541 -0.182787
H9    H     H_    0.874852 0.472356 0.298930 0.151389
H10   H     H_    0.125144 0.527633 0.701069 0.151382
C19   C     C_R   0.872198 0.497606 0.505310 -0.057653
C20   C     C_R   0.127800 0.502385 0.494689 -0.057647
C21   C     C_R   0.944386 0.512168 0.619863 0.063529
C22   C     C_R   0.055611 0.487819 0.380136 0.063526
H11   H     H_    0.558635 0.208071 0.901986 0.169864
H12   H     H_    0.441374 0.791970 0.098021 0.169878
C23   C     C_R   0.435199 0.183909 0.055343 -0.147623
C24   C     C_R   0.564824 0.816172 0.944685 -0.147611
H13   H     H_    0.355837 0.214538 0.000064 0.128844
H14   H     H_    0.644195 0.785604 0.999990 0.128821
C25   C     C_R   0.423081 0.147351 0.181587 -0.065351
C26   C     C_R   0.576944 0.852717 0.818439 -0.065434
H15   H     H_    0.333414 0.148936 0.223249 0.131200
H16   H     H_    0.666620 0.851182 0.776799 0.131215
C27   C     C_R   0.526440 0.107018 0.252800 0.126821
C28   C     C_R   0.473575 0.892981 0.747197 0.126830
C29   C     C_R   0.641143 0.101923 0.195750 -0.167962
C30   C     C_R   0.358857 0.898015 0.804218 -0.167885
H17   H     H_    0.721043 0.068113 0.248453 0.145990
H18   H     H_    0.278947 0.931770 0.751491 0.145990
C31   C     C_R   0.652617 0.138137 0.069496 -0.130595
C32   C     C_R   0.347381 0.861817 0.930477 -0.130612
H19   H     H_    0.741087 0.132929 0.025740 0.168991
H20   H     H_    0.258899 0.866986 0.974214 0.168952
C33   C     C_R   0.549805 0.179588 0.999530 -0.096914
C34   C     C_R   0.450205 0.820437 0.000473 -0.096895
C35   C     C_R   0.515458 0.929610 0.388371 -0.175325
C36   C     C_R   0.484557 0.070389 0.611630 -0.175333
H21   H     H_    0.527925 0.875675 0.300750 0.159566
H22   H     H_    0.472093 0.124323 0.699252 0.159575
C37   C     C_R   0.502051 0.872139 0.505201 -0.081444
C38   C     C_R   0.497958 0.127861 0.494798 -0.081452
C39   C     C_R   0.487379 0.943740 0.618846 -0.010199
C40   C     C_R   0.512634 0.056259 0.381154 -0.010181
N1    N     N_1   0.500010 0.499990 0.186410 -0.145887
N2    N     N_1   0.499990 0.500010 0.813590 -0.145888
C41   C     C_1   0.500044 0.500010 0.071970 0.079742
C42   C     C_1   0.499957 0.499991 0.928030 0.079742
N3    N     N_R   0.149698 0.703088 0.248333 0.102146
O9    O     O_R   0.064542 0.736759 0.326450 -0.378734
O10   O     O_R   0.230656 0.783637 0.217896 -0.414798
N4    N     N_R   0.850349 0.296899 0.751698 0.102144
O11   O     O_R   0.935495 0.263242 0.673567 -0.378728
O12   O     O_R   0.769418 0.216335 0.782160 -0.414824

loop_
_geom_bond_atom_site_label_1
_geom_bond_atom_site_label_2
_geom_bond_distance
_ccdc_geom_bond_type
C2    C37   1.454400 S    
C36   H22   1.083918 S    
C29   C31   1.396547 A    
C41   C42   1.501872 S    
H11   C33   1.080643 S    
C19   C21   1.413107 A    
N3    O9    1.301064 A    
H12   C34   1.080634 S    
O5    C3    1.275080 A    
C26   C28   1.404649 A    
C9    C22   1.480092 S    
N2    C42   1.194119 T    
O1    C1    1.275439 A    
C17   H9    1.084055 S    
C10   C12   1.404799 A    
C35   C37   1.399676 A    
C13   C15   1.393478 A    
C32   H20   1.081878 S    
C23   H13   1.080557 S    
O4    Cu1   1.981582 S    
C37   C39   1.412807 A    
C17   C22   1.384486 A    
H2    C16   1.081777 S    
C28   C39   1.477122 S    
C35   H21   1.083918 S    
C26   H16   1.083369 S    
N3    O10   1.300564 A    
Cu1   Cu2   2.614832 S    
C10   C21   1.480054 S    
N1    C41   1.194118 T    
C18   C21   1.384483 A    
O2    C2    1.275435 A    
C5    C15   1.396476 A    
C24   H14   1.080555 S    
C27   C29   1.403638 A    
C11   C13   1.394320 A    
C28   C30   1.403632 A    
C31   H19   1.081868 S    
C14   C16   1.393459 A    
Cu2   N1    1.964672 S    
C18   C20   1.399872 A    
N4    O12   1.300539 A    
N4    O11   1.301050 A    
C25   H15   1.083374 S    
C23   C33   1.396688 A    
C5    C7    1.406704 A    
C30   C32   1.396537 A    
C24   C34   1.396686 A    
C17   C19   1.399862 A    
O7    Cu2   1.983501 S    
C1    C38   1.454403 S    
C6    C16   1.396445 A    
C36   C39   1.384294 A    
C23   C25   1.398492 A    
O6    C4    1.275074 A    
O7    C3    1.272047 A    
O3    Cu2   1.981583 S    
O8    C4    1.272047 A    
O4    C2    1.271062 A    
C12   C14   1.394276 A    
C29   H17   1.083328 S    
C8    C10   1.418637 A    
O1    Cu1   1.969111 S    
O6    Cu2   1.969528 S    
C6    C8    1.406676 A    
C12   H6    1.083479 S    
C20   C22   1.413116 A    
O3    C1    1.271061 A    
O8    Cu1   1.983499 S    
C11   H5    1.083499 S    
C35   C40   1.384299 A    
C24   C26   1.398481 A    
C31   C33   1.397424 A    
C32   C34   1.397424 A    
C4    C19   1.455387 S    
C7    C9    1.418659 A    
C8    N4    1.440701 S    
C13   H7    1.082306 S    
C14   H8    1.082275 S    
C36   C38   1.399684 A    
C25   C27   1.404658 A    
C18   H10   1.084047 S    
C5    H3    1.080451 S    
C30   H18   1.083325 S    
C6    H4    1.080448 S    
C9    C11   1.404842 A    
C3    C20   1.455401 S    
O2    Cu2   1.969111 S    
O5    Cu1   1.969529 S    
Cu1   N2    1.964673 S    
C7    N3    1.440729 S    
C38   C40   1.412816 A    
C27   C40   1.477144 S    
H1    C15   1.081810 S    
