data_mof_unit_51407.cif
_audit_creation_date              2012-12-10T16:50:57-0500
_audit_creation_method            fapswitch 2.2
_symmetry_space_group_name_H-M    P1
_symmetry_Int_Tables_number       1
_space_group_crystal_system       triclinic
_cell_length_a                    7.869978
_cell_length_b                    8.5568
_cell_length_c                    10.941126
_cell_angle_alpha                 94.066676
_cell_angle_beta                  85.833254
_cell_angle_gamma                 91.817372
_cell_volume                      732.736442323

loop_
_atom_site_label
_atom_site_type_symbol
_atom_type_description
_atom_site_fract_x
_atom_site_fract_y
_atom_site_fract_z
_atom_type_partial_charge
C1    C     C_R   0.543783 0.793926 0.498558 0.965820
C2    C     C_R   0.954870 0.411228 0.049074 -0.098938
C3    C     C_R   0.030072 0.561343 0.076070 -0.103984
C4    C     C_R   0.969919 0.438631 0.923930 -0.103976
C5    C     C_R   0.182760 0.566501 0.136744 -0.212852
C6    C     C_R   0.817231 0.433474 0.863256 -0.212839
C7    C     C_R   0.343024 0.529746 0.071849 0.067663
C8    C     C_R   0.656968 0.470232 0.928152 0.067659
C9    C     C_R   0.354101 0.547929 0.945696 0.056666
C10   C     C_R   0.645891 0.452049 0.054304 0.056669
C11   C     C_R   0.492756 0.488742 0.127192 -0.213833
C12   C     C_R   0.456217 0.206074 0.501441 0.965815
C13   C     C_R   0.507238 0.511242 0.872808 -0.213832
C14   C     C_3   0.958949 0.185368 0.405741 -0.716690
C15   C     C_3   0.041064 0.814622 0.594297 -0.716733
C16   C     C_2   0.567111 0.956648 0.503384 -0.400735
C17   C     C_2   0.432891 0.043352 0.496613 -0.400731
C18   C     C_R   0.503000 0.505207 0.739787 0.866140
C19   C     C_R   0.496999 0.494788 0.260213 0.866143
C20   C     C_R   0.211428 0.615840 0.898850 -0.166554
C21   C     C_R   0.788562 0.384136 0.101151 -0.166569
C22   C     C_R   0.045121 0.588746 0.950926 -0.098933
H1    H     H_    0.058216 0.359439 0.871028 0.157115
H2    H     H_    0.305516 0.995343 0.485318 0.173781
H3    H     H_    0.148105 0.348248 0.364883 0.279857
H4    H     H_    0.055393 0.099333 0.367988 0.186863
H5    H     H_    0.843216 0.159693 0.355292 0.245564
H6    H     H_    0.934931 0.170202 0.505587 0.237081
H7    H     H_    0.851888 0.651749 0.635108 0.279872
H8    H     H_    0.944636 0.900658 0.632076 0.186865
H9    H     H_    0.065067 0.829818 0.494456 0.237084
H10   H     H_    0.156808 0.840265 0.644741 0.245580
H11   H     H_    0.941774 0.640536 0.128972 0.157119
H12   H     H_    0.228141 0.695995 0.826387 0.163468
H13   H     H_    0.771849 0.303990 0.173620 0.163473
H14   H     H_    0.966803 0.683740 0.927609 0.147220
H15   H     H_    0.033186 0.316234 0.072392 0.147219
H16   H     H_    0.172450 0.624423 0.227363 0.186993
H17   H     H_    0.827538 0.375555 0.772636 0.186989
H18   H     H_    0.694486 0.004656 0.514680 0.173784
N1    N     N_2   0.950330 0.457950 0.466250 0.018580
N2    N     N_2   0.049670 0.542050 0.533750 0.018590
N3    N     N_2   0.021243 0.342284 0.385818 -0.236401
N4    N     N_2   0.978754 0.657703 0.614193 -0.236403
O1    O     O_R   0.389250 0.738570 0.508280 -0.617984
O2    O     O_R   0.610750 0.261430 0.491720 -0.617983
O3    O     O_R   0.678390 0.711630 0.486650 -0.641115
O4    O     O_R   0.321610 0.288370 0.513350 -0.641103
O5    O     O_R   0.355430 0.513480 0.694040 -0.609410
O6    O     O_R   0.644570 0.486520 0.305960 -0.609411
O7    O     O_R   0.644570 0.486540 0.672410 -0.671848
O8    O     O_R   0.355430 0.513460 0.327590 -0.671848
Zn1   Zn    Zn3+2 0.306940 0.517990 0.514440 0.937516
Zn2   Zn    Zn3+2 0.693060 0.482010 0.485560 0.937514

loop_
_geom_bond_atom_site_label_1
_geom_bond_atom_site_label_2
_ccdc_geom_bond_type
C12   C17   S    
C15   N4    S    
C2    C4    A    
C15   H9    S    
C8    C13   A    
C21   H13   S    
C14   H5    S    
C22   H14   S    
N1    N2    D    
C9    C20   A    
C2    H15   S    
C12   O4    A    
O7    Zn2   S    
C20   H12   S    
O2    Zn2   S    
C2    C21   A    
C2    C3    A    
O1    Zn1   S    
C15   H10   S    
H7    N4    S    
C1    C16   S    
C5    H16   S    
C14   H4    S    
C7    C11   A    
N1    N3    S    
C19   O6    A    
C11   C19   S    
O6    Zn2   S    
N2    N4    S    
C13   C18   S    
C16   H18   S    
O3    Zn2   S    
O5    Zn1   S    
C4    C6    A    
H3    N3    S    
C20   C22   A    
C18   O7    A    
C14   N3    S    
C5    C7    A    
C10   C21   A    
O4    Zn1   S    
N1    Zn2   S    
N2    Zn1   S    
C17   H2    S    
C10   C11   A    
C3    H11   S    
C4    C22   A    
O8    Zn1   S    
C15   H8    S    
C8    C10   A    
C1    O1    A    
C7    C9    A    
C4    H1    S    
C9    C13   A    
C6    H17   S    
C1    O3    A    
C3    C22   A    
C6    C8    A    
C14   H6    S    
C19   O8    A    
C18   O5    A    
C16   C17   D    
C3    C5    A    
C12   O2    A    
