data_mof_unit_37940.cif
_audit_creation_date              2012-12-11T14:43:33-0500
_audit_creation_method            fapswitch 2.2
_symmetry_space_group_name_H-M    P1
_symmetry_Int_Tables_number       1
_space_group_crystal_system       triclinic
_cell_length_a                    20.825323
_cell_length_b                    7.106491
_cell_length_c                    16.431842
_cell_angle_alpha                 89.999857
_cell_angle_beta                  92.562668
_cell_angle_gamma                 90.000161
_cell_volume                      2429.39793424

loop_
_atom_site_label
_atom_site_type_symbol
_atom_type_description
_atom_site_fract_x
_atom_site_fract_y
_atom_site_fract_z
_atom_type_partial_charge
O1    O     O_R   0.564840 0.505290 0.579830 -0.539734
O2    O     O_R   0.435160 0.005290 0.420170 -0.539725
O3    O     O_R   0.556720 0.179930 0.409350 -0.543142
O4    O     O_R   0.443280 0.679930 0.590650 -0.543151
C1    C     C_R   0.570096 0.344112 0.380860 0.882496
C2    C     C_R   0.429904 0.844111 0.619140 0.882465
O5    O     O_R   0.572280 0.175810 0.578530 -0.533346
O6    O     O_R   0.427720 0.675810 0.421470 -0.533344
O7    O     O_R   0.450830 0.001920 0.590540 -0.532592
O8    O     O_R   0.549170 0.501920 0.409460 -0.532598
C3    C     C_R   0.589926 0.343353 0.604957 0.724054
C4    C     C_R   0.410074 0.843353 0.395043 0.724055
O9    O     O_3   0.460130 0.338030 0.503750 -0.376667
O10   O     O_3   0.539870 0.838030 0.496250 -0.376674
V1    V     V_3+5 0.507400 0.064560 0.499310 1.586780
V2    V     V_3+5 0.492600 0.564560 0.500690 1.586768
C5    C     C_R   0.141826 0.919281 0.171247 -0.308621
C6    C     C_R   0.858174 0.419281 0.828753 -0.308624
C7    C     C_R   0.356699 0.843309 0.331827 -0.097203
C8    C     C_R   0.643301 0.343309 0.668172 -0.097216
C9    C     C_R   0.300458 0.675136 0.219538 0.029503
C10   C     C_R   0.699543 0.175132 0.780461 0.029509
C11   C     C_R   0.353903 0.699245 0.273625 -0.192400
C12   C     C_R   0.646097 0.199243 0.726374 -0.192397
C13   C     C_R   0.305272 0.969505 0.334461 -0.043928
C14   C     C_R   0.694728 0.469505 0.665539 -0.043926
C15   C     C_R   0.250673 0.949340 0.280826 -0.088793
C16   C     C_R   0.749327 0.449339 0.719173 -0.088794
C17   C     C_R   0.247908 0.802980 0.221718 -0.113702
C18   C     C_R   0.752092 0.302978 0.778281 -0.113703
C19   C     C_R   0.193680 0.793103 0.166042 0.655838
C20   C     C_R   0.806321 0.293100 0.833956 0.655864
C21   C     C_R   0.142926 0.052784 0.235363 -0.257898
C22   C     C_R   0.857075 0.552786 0.764637 -0.257902
C23   C     C_R   0.197916 0.070332 0.287798 0.668782
C24   C     C_R   0.802084 0.570333 0.712202 0.668784
H1    H     H_    0.393120 0.599701 0.272330 0.180838
H2    H     H_    0.606880 0.099699 0.727668 0.180853
H3    H     H_    0.306847 0.078551 0.380619 0.197195
H4    H     H_    0.693153 0.578552 0.619381 0.197193
C25   C     C_R   0.380585 0.784046 0.836776 0.732944
C26   C     C_R   0.619412 0.284099 0.163219 0.732944
C27   C     C_R   0.391693 0.848033 0.692874 -0.351339
C28   C     C_R   0.608307 0.348036 0.307125 -0.351347
C29   C     C_R   0.084971 0.007371 0.739234 0.408934
C30   C     C_R   0.915031 0.507349 0.260769 0.408921
C31   C     C_R   0.123669 0.060708 0.676672 0.583651
C32   C     C_R   0.876334 0.560671 0.323335 0.583657
C33   C     C_R   0.189533 0.027007 0.681870 0.597950
C34   C     C_R   0.810470 0.526977 0.318138 0.597952
C35   C     C_R   0.218042 0.922747 0.747744 -0.160072
C36   C     C_R   0.781958 0.422740 0.252258 -0.160077
C37   C     C_R   0.178718 0.879247 0.814851 -0.293536
C38   C     C_R   0.821281 0.379256 0.185147 -0.293537
C39   C     C_R   0.285272 0.874833 0.752355 -0.101373
C40   C     C_R   0.714727 0.374837 0.247645 -0.101375
C41   C     C_R   0.313690 0.815428 0.828252 -0.343368
C42   C     C_R   0.686307 0.315464 0.171744 -0.343372
C43   C     C_R   0.274645 0.782417 0.894348 0.676686
C44   C     C_R   0.725351 0.282469 0.105646 0.676690
C45   C     C_R   0.208473 0.806722 0.886782 0.562694
C46   C     C_R   0.791524 0.306761 0.113212 0.562692
C47   C     C_R   0.324835 0.875592 0.683826 0.702897
C48   C     C_R   0.675164 0.375579 0.316174 0.702885
C49   C     C_R   0.420097 0.801213 0.770023 -0.270523
C50   C     C_R   0.579900 0.301249 0.229974 -0.270534
C51   C     C_R   0.111428 0.921043 0.809773 -0.293053
C52   C     C_R   0.888572 0.421041 0.190227 -0.293055
O11   O     O_R   0.950790 0.256670 0.090520 -0.521418
O12   O     O_R   0.049210 0.756670 0.909480 -0.521407
O13   O     O_R   0.927720 0.590370 0.921470 -0.568064
O14   O     O_R   0.072280 0.090370 0.078530 -0.568065
C53   C     C_R   0.910726 0.422214 0.894012 0.868443
C54   C     C_R   0.089274 0.922214 0.105988 0.868417
O15   O     O_R   0.943270 0.586180 0.090640 -0.544804
O16   O     O_R   0.056730 0.086180 0.909360 -0.544805
O17   O     O_R   0.064850 0.759970 0.079840 -0.487240
O18   O     O_R   0.935150 0.259970 0.920160 -0.487241
C55   C     C_R   0.929901 0.418743 0.118760 0.909033
C56   C     C_R   0.070099 0.918743 0.881240 0.909019
O19   O     O_3   0.039850 0.428050 0.996240 -0.374035
O20   O     O_3   0.960150 0.928050 0.003760 -0.374042
V3    V     V_3+5 0.992610 0.701540 0.000700 1.696482
V4    V     V_3+5 0.007390 0.201540 0.999300 1.696479
F1    F     F_    0.192057 0.668288 0.103681 -0.589222
F2    F     F_    0.807945 0.168281 0.896316 -0.589225
F3    F     F_    0.298617 0.874933 0.606662 -0.612235
F4    F     F_    0.701384 0.374891 0.393338 -0.612237
F5    F     F_    0.021886 0.056530 0.734266 -0.589416
F6    F     F_    0.978116 0.556504 0.265738 -0.589417
F7    F     F_    0.225198 0.120522 0.627913 -0.552739
F8    F     F_    0.774808 0.620476 0.372100 -0.552736
F9    F     F_    0.097695 0.159500 0.612639 -0.514192
F10   F     F_    0.902311 0.659442 0.387373 -0.514190
F11   F     F_    0.174164 0.762215 0.952060 -0.632556
F12   F     F_    0.825831 0.262276 0.047930 -0.632572
C57   C     C_2   0.085272 0.166586 0.251936 0.991068
O21   O     O_2   0.090996 0.329816 0.274654 -0.440852
O22   O     O_R   0.024349 0.084120 0.244012 -0.645796
H5    H     H_    0.988969 0.171449 0.260980 0.317587
C58   C     C_2   0.914728 0.666591 0.748065 0.991065
O23   O     O_2   0.909003 0.829821 0.725345 -0.440856
O24   O     O_R   0.975651 0.584129 0.755989 -0.645793
H6    H     H_    0.011031 0.671458 0.739019 0.317590
C59   C     C_2   0.300564 0.506412 0.166565 0.976430
O25   O     O_2   0.346967 0.473972 0.125709 -0.492748
O26   O     O_R   0.249426 0.379005 0.166899 -0.626921
H7    H     H_    0.255729 0.267557 0.129558 0.301953
C60   C     C_2   0.699437 0.006404 0.833432 0.976436
O27   O     O_2   0.653033 0.973952 0.874284 -0.492744
O28   O     O_R   0.750577 0.879005 0.833099 -0.626922
H8    H     H_    0.744274 0.767553 0.870439 0.301955
F13   F     F_    0.199058 0.201777 0.348054 -0.588987
F14   F     F_    0.800942 0.701779 0.651946 -0.588986
C61   C     C_2   0.490295 0.759340 0.781523 0.878000
O29   O     O_2   0.528790 0.827331 0.735862 -0.593050
O30   O     O_R   0.512608 0.640795 0.844619 -0.570066
H9    H     H_    0.560945 0.622655 0.845655 0.334328
C62   C     C_2   0.509700 0.259398 0.218470 0.877965
O31   O     O_2   0.471209 0.327325 0.264153 -0.593065
O32   O     O_R   0.487379 0.140948 0.155346 -0.570038
H10   H     H_    0.439042 0.122815 0.154310 0.334339
F15   F     F_    0.299949 0.718974 0.966912 -0.546111
F16   F     F_    0.700046 0.219056 0.033077 -0.546119
F17   F     F_    0.407801 0.738531 0.910929 -0.532757
F18   F     F_    0.592195 0.238617 0.089062 -0.532750

loop_
_geom_bond_atom_site_label_1
_geom_bond_atom_site_label_2
_ccdc_geom_bond_type
C58   O23   D    
C19   F1    S    
C46   F12   S    
C15   C17   A    
C28   C50   A    
O28   H8    S    
O1    C3    A    
C24   F14   S    
O16   V4    S    
C2    O7    A    
C57   O21   D    
C27   C47   A    
C31   C33   A    
C28   C48   A    
O5    C3    A    
C59   O26   S    
C32   F10   S    
C32   C34   A    
C60   O28   S    
C41   C43   A    
C38   C52   A    
O17   V3    S    
C42   C44   A    
C61   O29   D    
C14   H4    S    
C44   C46   A    
C44   F16   S    
C57   O22   S    
C37   C45   A    
C8    C12   A    
C61   O30   S    
C54   O17   A    
C39   C47   A    
C29   C51   A    
C12   H2    S    
C53   O18   A    
C40   C48   A    
C29   F5    S    
C22   C24   A    
O6    C4    A    
C52   C55   S    
C62   O32   S    
O2    C4    A    
O6    V2    S    
C49   C61   S    
C26   C42   A    
C5    C21   A    
C33   F7    S    
C7    C13   A    
O19   V3    S    
C36   C38   A    
O13   V3    S    
C29   C31   A    
C43   F15   S    
C30   C32   A    
C3    C8    S    
C43   C45   A    
C22   C58   S    
O12   C56   A    
C25   F17   S    
O14   C54   A    
O13   C53   A    
C25   C49   A    
C38   C46   A    
C33   C35   A    
C11   H1    S    
C9    C17   A    
C35   C37   A    
O4    V2    S    
C7    C11   A    
C30   C52   A    
O12   V3    S    
C34   C36   A    
O22   H5    S    
C27   C49   A    
C10   C60   S    
C20   F2    S    
C31   F9    S    
O1    V2    S    
O2    V1    S    
C6    C22   A    
O32   H10   S    
O14   V4    S    
O4    C2    A    
C1    C28   S    
C6    C53   S    
O20   V4    S    
C2    C27   S    
C39   C41   A    
C5    C54   S    
C5    C19   A    
C10   C12   A    
O11   C55   A    
C6    C20   A    
O26   H7    S    
O19   V4    S    
O3    V1    S    
C34   F8    S    
C10   C18   A    
C47   F3    S    
C51   C56   S    
O16   C56   A    
O3    C1    A    
C62   O31   D    
C45   F11   S    
C30   F6    S    
C13   C15   A    
C59   O25   D    
C14   C16   A    
C50   C62   S    
C15   C23   A    
C9    C11   A    
O7    V1    S    
C25   C41   A    
C16   C18   A    
C17   C19   A    
O11   V4    S    
O8    V2    S    
C60   O27   D    
C13   H3    S    
C18   C20   A    
O15   V3    S    
C8    C14   A    
C4    C7    S    
O5    V1    S    
C21   C23   A    
C40   C42   A    
C23   F13   S    
C35   C39   A    
C37   C51   A    
C26   F18   S    
O18   V4    S    
C1    O8    A    
C16   C24   A    
C58   O24   S    
O20   V3    S    
O9    V2    S    
O24   H6    S    
C26   C50   A    
O10   V1    S    
C21   C57   S    
O30   H9    S    
O15   C55   A    
C48   F4    S    
C9    C59   S    
C36   C40   A    
