data_mof_unit_31485.cif
_audit_creation_date              2012-12-10T19:09:03-0500
_audit_creation_method            fapswitch 2.2
_symmetry_space_group_name_H-M    P1
_symmetry_Int_Tables_number       1
_space_group_crystal_system       triclinic
_cell_length_a                    17.717134
_cell_length_b                    10.824764
_cell_length_c                    9.529992
_cell_angle_alpha                 89.924116
_cell_angle_beta                  89.945304
_cell_angle_gamma                 90.124115
_cell_volume                      1827.69129645

loop_
_atom_site_label
_atom_site_type_symbol
_atom_type_description
_atom_site_fract_x
_atom_site_fract_y
_atom_site_fract_z
_atom_type_partial_charge
C1    C     C_R   0.501273 0.262250 0.500024 0.800975
C2    C     C_R   0.885672 0.493890 0.499082 0.144245
C3    C     C_1   0.966261 0.493426 0.498718 -0.063466
C4    C     C_1   0.033921 0.493425 0.498139 -0.012406
C5    C     C_R   0.153566 0.475477 0.622802 -0.235288
C6    C     C_R   0.232188 0.477418 0.624212 -0.198571
C7    C     C_R   0.272576 0.498440 0.499531 -0.101523
C8    C     C_R   0.233089 0.517664 0.373628 -0.267421
C9    C     C_R   0.154286 0.513123 0.371144 0.485527
C10   C     C_R   0.114617 0.493714 0.497024 0.039074
C11   C     C_R   0.510691 0.063343 0.625658 0.137538
C12   C     C_R   0.355524 0.499842 0.500054 0.813365
C13   C     C_R   0.508691 0.129180 0.499684 -0.097748
C14   C     C_R   0.517409 0.064613 0.372740 -0.217745
C15   C     C_R   0.517387 0.935846 0.372631 -0.217289
C16   C     C_R   0.508722 0.870805 0.499465 -0.097713
C17   C     C_R   0.510670 0.936186 0.625524 0.119146
C18   C     C_3   0.459445 0.929142 0.749898 -0.459875
C19   C     C_3   0.459570 0.069407 0.750210 -0.483615
C20   C     C_R   0.526612 0.599889 0.073442 0.258596
C21   C     C_R   0.465877 0.408015 0.074660 -0.086784
C22   C     C_R   0.465782 0.408117 0.925690 -0.086109
C23   C     C_R   0.501330 0.737727 0.499866 0.804676
C24   C     C_R   0.526643 0.599827 0.926051 0.259367
C25   C     C_3   0.604238 0.652897 0.919743 -0.504433
C26   C     C_3   0.604236 0.652995 0.079078 -0.506644
C27   C     C_R   0.644559 0.499250 0.499885 0.788040
C28   C     C_R   0.846522 0.494591 0.626386 -0.158402
C29   C     C_R   0.767851 0.495986 0.626806 -0.190963
C30   C     C_R   0.727663 0.497116 0.499647 -0.035357
C31   C     C_R   0.767728 0.495415 0.372205 -0.193431
C32   C     C_R   0.846394 0.494000 0.372063 -0.151870
Cu1   Cu    Cu3+1 0.500000 0.499980 0.640670 0.939409
Cu2   Cu    Cu3+1 0.500000 0.500020 0.359330 0.937855
H1    H     H_    0.876776 0.494099 0.725163 0.128797
H2    H     H_    0.520340 0.887995 0.273081 0.158377
H3    H     H_    0.403467 0.888330 0.724312 0.201807
H4    H     H_    0.487858 0.888587 0.843078 0.191710
H5    H     H_    0.403638 0.110294 0.725098 0.194329
H6    H     H_    0.488269 0.109350 0.843434 0.193508
H7    H     H_    0.439380 0.332470 0.130511 0.139061
H8    H     H_    0.439000 0.332936 0.870114 0.137530
H9    H     H_    0.645969 0.587884 0.874410 0.210936
H10   H     H_    0.604895 0.747190 0.873471 0.193383
H11   H     H_    0.645993 0.588098 0.124610 0.211512
H12   H     H_    0.738712 0.495871 0.726555 0.141905
H13   H     H_    0.604921 0.747395 0.124711 0.189621
H14   H     H_    0.738492 0.494844 0.272655 0.142079
H15   H     H_    0.876556 0.493034 0.273076 0.130005
H16   H     H_    0.123062 0.460252 0.719876 0.162164
H17   H     H_    0.261242 0.462365 0.722699 0.162141
H18   H     H_    0.263198 0.536822 0.277052 0.163486
H19   H     H_    0.520498 0.112852 0.273237 0.162094
N1    N     N_R   0.500470 0.500930 0.147930 -0.182673
N2    N     N_R   0.500480 0.500890 0.852020 -0.182039
O1    O     O_R   0.500000 0.319640 0.618810 -0.582123
O2    O     O_R   0.500010 0.319680 0.381230 -0.589819
O3    O     O_R   0.391250 0.499990 0.618840 -0.582730
O4    O     O_R   0.391260 0.500020 0.381250 -0.582242
O5    O     O_R   0.499990 0.680320 0.618770 -0.577995
O6    O     O_R   0.500000 0.680360 0.381190 -0.583611
O7    O     O_R   0.608740 0.499980 0.618750 -0.581748
O8    O     O_R   0.608750 0.500010 0.381160 -0.581586
O9    O     O_3   0.116344 0.537021 0.247261 -0.615410
C33   C     C_3   0.100382 0.424680 0.177189 0.057024
H20   H     H_    0.044122 0.434479 0.127030 0.166672
H21   H     H_    0.096186 0.342951 0.248615 0.122703
C34   C     C_3   0.159185 0.400998 0.062344 -0.361991
H22   H     H_    0.163206 0.483202 0.992694 0.228586
H23   H     H_    0.215295 0.385153 0.110838 0.208929
C35   C     C_3   0.138502 0.288269 0.974335 -0.927567
H24   H     H_    0.135593 0.204470 0.041516 0.262966
H25   H     H_    0.182156 0.273773 0.892333 0.255407
H26   H     H_    0.083156 0.302329 0.922116 0.253643

loop_
_geom_bond_atom_site_label_1
_geom_bond_atom_site_label_2
_ccdc_geom_bond_type
Cu1   N2    S    
Cu1   O3    S    
C9    O9    S    
C25   H9    S    
C7    C8    A    
C24   N2    A    
C11   C19   S    
C5    C6    A    
C28   C29   A    
C18   H3    S    
Cu1   O7    S    
C30   C31   A    
C15   C16   A    
C2    C32   A    
C18   C19   S    
C26   H11   S    
C34   H22   S    
C12   O4    A    
C20   C24   A    
C28   H1    S    
C16   C17   A    
C33   H21   S    
Cu2   O2    S    
C6    H17   S    
C9    C10   A    
C8    H18   S    
C21   N1    A    
C12   O3    A    
Cu1   O1    S    
C13   C14   A    
C27   C30   S    
C7    C12   S    
C25   H10   S    
Cu1   Cu2   S    
C23   O5    A    
C24   C25   S    
C20   N1    A    
C35   H25   S    
C8    C9    A    
C25   C26   S    
Cu2   O6    S    
C29   C30   A    
C27   O7    A    
C1    O2    A    
C31   C32   A    
C33   C34   S    
C17   C18   S    
C6    C7    A    
C19   H5    S    
C26   H13   S    
C21   H7    S    
Cu2   N1    S    
C16   C23   S    
C31   H14   S    
Cu2   O4    S    
C5    H16   S    
C1    C13   S    
C4    C10   S    
C3    C4    T    
C15   H2    S    
C11   C17   A    
C1    O1    A    
C35   H26   S    
C22   N2    A    
Cu1   O5    S    
C29   H12   S    
O9    C33   S    
C2    C3    S    
C18   H4    S    
C5    C10   A    
C11   C13   A    
C22   H8    S    
C20   C26   S    
C34   C35   S    
Cu2   O8    S    
C32   H15   S    
C19   H6    S    
C23   O6    A    
C14   H19   S    
C35   H24   S    
C34   H23   S    
C33   H20   S    
C14   C15   A    
C27   O8    A    
C2    C28   A    
C21   C22   A    
