data_mof_unit_24410.cif
_audit_creation_date              2012-12-10T19:08:36-0500
_audit_creation_method            fapswitch 2.2
_symmetry_space_group_name_H-M    P1
_symmetry_Int_Tables_number       1
_space_group_crystal_system       triclinic
_cell_length_a                    15.974305
_cell_length_b                    10.809013
_cell_length_c                    9.565517
_cell_angle_alpha                 90.138495
_cell_angle_beta                  89.901878
_cell_angle_gamma                 89.518946
_cell_volume                      1651.5785394

loop_
_atom_site_label
_atom_site_type_symbol
_atom_type_description
_atom_site_fract_x
_atom_site_fract_y
_atom_site_fract_z
_atom_type_partial_charge
C1    C     C_R   0.497003 0.262327 0.499411 0.806128
C2    C     C_R   0.045340 0.392751 0.503254 -0.239313
C3    C     C_1   0.822573 0.503233 0.499909 -0.047410
C4    C     C_1   0.177065 0.503459 0.500365 -0.050479
C5    C     C_1   0.252186 0.501552 0.500275 -0.187827
C6    C     C_1   0.747542 0.503492 0.499825 -0.170018
C7    C     C_R   0.509110 0.063661 0.619623 -0.072352
C8    C     C_R   0.487671 0.128778 0.498761 -0.067050
C9    C     C_R   0.454346 0.062350 0.382904 0.161654
C10   C     C_R   0.456040 0.932655 0.386010 -0.208556
C11   C     C_R   0.489019 0.869970 0.501833 -0.125127
C12   C     C_R   0.341347 0.500081 0.500065 0.800418
C13   C     C_R   0.509270 0.936443 0.621492 -0.014078
C14   C     C_3   0.586971 0.930615 0.710788 0.928076
C15   C     C_3   0.585975 0.072187 0.708355 -0.501645
C16   C     C_R   0.570274 0.531875 0.073563 0.049058
C17   C     C_R   0.428776 0.478600 0.074229 -0.061361
C18   C     C_R   0.428716 0.479000 0.925991 -0.054860
C19   C     C_R   0.570550 0.530368 0.926377 0.098358
C20   C     C_3   0.654462 0.467310 0.918826 0.207978
C21   C     C_3   0.654623 0.468097 0.079337 0.796018
C22   C     C_R   0.498034 0.737331 0.500248 0.835458
C23   C     C_R   0.658547 0.501676 0.499943 0.843604
C24   C     C_R   0.957819 0.388852 0.503125 0.199596
C25   C     C_R   0.912216 0.501177 0.500104 0.109050
C26   C     C_R   0.954086 0.614287 0.497341 -0.236138
C27   C     C_R   0.041615 0.618189 0.497417 0.194534
C28   C     C_R   0.087291 0.505857 0.500372 0.105110
Cu1   Cu    Cu3+1 0.500000 0.499980 0.640670 0.991362
Cu2   Cu    Cu3+1 0.500000 0.500020 0.359330 0.974995
H1    H     H_    0.081012 0.306915 0.505530 0.153416
H2    H     H_    0.639166 0.113150 0.649944 0.175892
H3    H     H_    0.371457 0.457037 0.128606 0.139180
H4    H     H_    0.371310 0.458013 0.871787 0.136489
H5    H     H_    0.701399 0.528547 0.867991 0.065020
H6    H     H_    0.918353 0.700085 0.495117 0.150075
H7    H     H_    0.434443 0.880686 0.296152 0.154360
H8    H     H_    0.573019 0.115946 0.811399 0.225790
N1    N     N_R   0.500520 0.500930 0.147930 -0.167161
N2    N     N_R   0.500520 0.500890 0.852020 -0.144705
O1    O     O_R   0.500000 0.319640 0.618810 -0.547133
O2    O     O_R   0.500010 0.319680 0.381230 -0.557684
O3    O     O_R   0.380300 0.499950 0.618760 -0.595584
O4    O     O_R   0.380310 0.499990 0.381180 -0.594944
O5    O     O_R   0.499990 0.680320 0.618770 -0.568965
O6    O     O_R   0.500000 0.680360 0.381190 -0.599138
O7    O     O_R   0.619690 0.500010 0.618820 -0.558061
O8    O     O_R   0.619700 0.500050 0.381240 -0.531625
O9    O     O_3   0.647708 0.346769 0.861977 -0.524966
C29   C     C_3   0.726109 0.304266 0.811435 -0.291508
H9    H     H_    0.781296 0.354547 0.853486 0.134961
H10   H     H_    0.726901 0.309799 0.695820 0.168602
H11   H     H_    0.733903 0.205587 0.840550 0.164204
O10   O     O_3   0.645551 0.348044 0.138113 -0.547789
C30   C     C_3   0.723446 0.293519 0.172575 -0.170411
H12   H     H_    0.772333 0.309648 0.092169 0.144013
H13   H     H_    0.715032 0.192098 0.181965 0.150121
H14   H     H_    0.745185 0.328505 0.275288 0.175450
O11   O     O_3   0.722176 0.536845 0.139612 -0.617095
C31   C     C_3   0.712199 0.666855 0.132572 -0.388698
H15   H     H_    0.662027 0.698985 0.204985 0.205278
H16   H     H_    0.699489 0.698958 0.024443 0.148891
H17   H     H_    0.771364 0.710282 0.167039 0.204204
C32   C     C_3   0.916452 0.263897 0.506245 -0.911823
H18   H     H_    0.847155 0.269709 0.505052 0.223813
H19   H     H_    0.936675 0.209058 0.413676 0.234112
H20   H     H_    0.935535 0.213829 0.602438 0.230619
C33   C     C_3   0.082859 0.743162 0.494302 -0.880715
H21   H     H_    0.152165 0.737321 0.494673 0.238365
H22   H     H_    0.063332 0.793481 0.398518 0.230771
H23   H     H_    0.062905 0.797726 0.587244 0.228253
C34   C     C_3   0.419113 0.124916 0.254634 -0.823395
H24   H     H_    0.371745 0.195647 0.285627 0.225545
H25   H     H_    0.470179 0.168504 0.193785 0.270520
H26   H     H_    0.387680 0.057959 0.184228 0.205160
O12   O     O_3   0.578981 0.876837 0.847047 -0.599321
C35   C     C_3   0.497737 0.885440 0.905435 -0.378747
H27   H     H_    0.453922 0.823236 0.849665 0.186901
H28   H     H_    0.473437 0.982013 0.906369 0.163374
H29   H     H_    0.500795 0.853900 0.015617 0.195206
O13   O     O_3   0.654609 0.878660 0.633456 -0.606757
C36   C     C_3   0.728941 0.878070 0.713065 -0.286258
H30   H     H_    0.727114 0.803826 0.793089 0.189732
H31   H     H_    0.741015 0.969147 0.763233 0.142233
H32   H     H_    0.782351 0.857340 0.642277 0.166750

loop_
_geom_bond_atom_site_label_1
_geom_bond_atom_site_label_2
_ccdc_geom_bond_type
C30   H12   S    
C16   C21   S    
C1    C8    S    
C19   C20   S    
C9    C34   S    
C3    C6    T    
C31   H15   S    
O13   C36   S    
C7    C8    A    
C35   H27   S    
C26   C27   A    
C20   O9    S    
Cu1   O7    S    
C10   H7    S    
Cu2   O8    S    
C21   O11   S    
C12   O3    A    
C33   H23   S    
C21   O10   S    
C31   H16   S    
C17   N1    A    
C18   N2    A    
C27   C33   S    
C33   H21   S    
C20   H5    S    
C8    C9    A    
C29   H10   S    
C9    C10   A    
C7    C15   S    
O11   C31   S    
C24   C32   S    
C13   C14   S    
Cu1   O3    S    
Cu2   O4    S    
C17   H3    S    
C34   H26   S    
C4    C28   S    
C29   H9    S    
C35   H28   S    
C29   H11   S    
C23   O7    A    
C32   H20   S    
C3    C25   S    
O12   C35   S    
C5    C12   S    
C34   H25   S    
C10   C11   A    
C34   H24   S    
C25   C26   A    
Cu1   O5    S    
C2    H1    S    
C32   H19   S    
C15   H8    S    
Cu1   Cu2   S    
C17   C18   A    
C24   C25   A    
C18   H4    S    
C1    O1    A    
C22   O6    A    
O9    C29   S    
C36   H31   S    
C30   H13   S    
C2    C24   A    
C31   H17   S    
C35   H29   S    
C26   H6    S    
O10   C30   S    
C23   O8    A    
Cu1   O1    S    
Cu2   O6    S    
C4    C5    T    
C15   H2    S    
C36   H32   S    
C11   C22   S    
C32   H18   S    
C12   O4    A    
C11   C13   A    
C16   C19   A    
C6    C23   S    
Cu1   N2    S    
Cu2   N1    S    
C19   N2    A    
C16   N1    A    
C1    O2    A    
C7    C13   A    
C22   O5    A    
C20   C21   S    
C33   H22   S    
C36   H30   S    
C30   H14   S    
C27   C28   A    
C14   C15   S    
Cu2   O2    S    
C2    C28   A    
C14   O13   S    
C14   O12   S    
