data_mof_unit_13219.cif
_audit_creation_date              2012-12-10T18:06:44-0500
_audit_creation_method            fapswitch 2.2
_symmetry_space_group_name_H-M    P1
_symmetry_Int_Tables_number       1
_space_group_crystal_system       triclinic
_cell_length_a                    12.60381
_cell_length_b                    13.149858
_cell_length_c                    15.238755
_cell_angle_alpha                 83.207316
_cell_angle_beta                  98.862343
_cell_angle_gamma                 96.826739
_cell_volume                      2464.90354151

loop_
_atom_site_label
_atom_site_type_symbol
_atom_type_description
_atom_site_fract_x
_atom_site_fract_y
_atom_site_fract_z
_atom_type_partial_charge
C1    C     C_R   0.442210 0.308604 0.507272 0.855378
C2    C     C_R   0.472704 0.587823 0.096220 0.076947
C3    C     C_R   0.377099 0.633761 0.060110 0.073352
C4    C     C_R   0.554821 0.586341 0.043646 0.071467
C5    C     C_R   0.531430 0.608678 0.950774 0.009645
C6    C     C_R   0.444338 0.668361 0.915483 -0.081010
C7    C     C_R   0.365012 0.678500 0.970172 -0.072992
C8    C     C_R   0.659502 0.561326 0.080732 -0.260143
C9    C     C_R   0.731056 0.539477 0.026644 -0.123277
C10   C     C_R   0.696831 0.534035 0.935440 0.083904
C11   C     C_R   0.594916 0.566483 0.897446 0.012466
C12   C     C_R   0.436327 0.515737 0.335046 0.848136
C13   C     C_R   0.759479 0.490256 0.883732 0.327765
C14   C     C_R   0.718890 0.476912 0.793253 0.325241
C15   C     C_R   0.552059 0.542376 0.811492 -0.371544
C16   C     C_R   0.641822 0.942890 0.366762 -0.185977
C17   C     C_R   0.583015 0.801015 0.469480 -0.049216
C18   C     C_R   0.334136 0.158845 0.573216 -0.192930
C19   C     C_R   0.315457 0.053263 0.593798 -0.114192
C20   C     C_R   0.373373 0.987575 0.559201 -0.167928
C21   C     C_R   0.447801 0.027010 0.499422 0.072598
C22   C     C_R   0.453901 0.132492 0.468629 0.097722
C23   C     C_R   0.556140 0.691560 0.489146 0.848644
C24   C     C_R   0.516309 0.965433 0.469013 0.083668
C25   C     C_R   0.576692 0.005399 0.398899 0.179110
C26   C     C_R   0.569251 0.106254 0.360682 -0.240368
C27   C     C_R   0.508504 0.169201 0.395051 -0.200923
C28   C     C_R   0.527274 0.865207 0.507244 -0.249882
C29   C     C_R   0.643453 0.839979 0.400968 -0.189702
C30   C     C_R   0.406034 0.198983 0.513051 -0.111659
C31   C     C_R   0.141540 0.636171 0.630426 0.364512
C32   C     C_R   0.757121 0.380913 0.394579 -0.124407
C33   C     C_R   0.852878 0.353862 0.372733 0.418199
C34   C     C_R   0.565948 0.489599 0.664763 0.925117
C35   C     C_R   0.950431 0.398014 0.414880 -0.202571
C36   C     C_R   0.952766 0.469726 0.477841 -0.050831
C37   C     C_R   0.853476 0.493862 0.497092 0.223018
C38   C     C_R   0.049125 0.518591 0.521805 -0.013295
C39   C     C_R   0.044856 0.588629 0.585857 0.035821
C40   C     C_R   0.944701 0.612110 0.601243 -0.276751
C41   C     C_R   0.851006 0.565030 0.557738 -0.116588
C42   C     C_R   0.150362 0.501821 0.503441 -0.085062
C43   C     C_R   0.238302 0.617859 0.606114 -0.001261
C44   C     C_R   0.406845 0.545908 0.239341 -0.062715
C45   C     C_R   0.612528 0.499581 0.758664 -0.153767
C46   C     C_R   0.298805 0.637469 0.116790 -0.143766
C47   C     C_R   0.314346 0.595088 0.205743 -0.190616
C48   C     C_R   0.482120 0.538834 0.183170 -0.231958
H1    H     H_    0.686578 0.789946 0.370790 0.161162
H2    H     H_    0.611469 0.136917 0.304960 0.140765
H3    H     H_    0.687453 0.972324 0.312792 0.149373
H4    H     H_    0.489048 0.833097 0.564458 0.149053
H5    H     H_    0.295157 0.209187 0.606664 0.167020
H6    H     H_    0.356201 0.906434 0.578645 0.162808
H7    H     H_    0.259276 0.022382 0.639688 0.171135
H8    H     H_    0.503374 0.246592 0.362692 0.151752
H9    H     H_    0.313852 0.653860 0.637827 0.183778
H10   H     H_    0.469136 0.554327 0.785872 0.207864
H11   H     H_    0.936811 0.668462 0.645457 0.167502
H12   H     H_    0.162310 0.450714 0.456551 0.145533
H13   H     H_    0.679935 0.348274 0.363007 0.131813
H14   H     H_    0.022257 0.374293 0.396659 0.165934
H15   H     H_    0.777402 0.586282 0.572897 0.211278
H16   H     H_    0.809767 0.518733 0.057900 0.208624
H17   H     H_    0.226451 0.675224 0.094219 0.179103
H18   H     H_    0.255363 0.603056 0.248538 0.164458
H19   H     H_    0.548842 0.494149 0.208480 0.154516
H20   H     H_    0.687825 0.559051 0.151524 0.152022
N1    N     N_R   0.239390 0.551900 0.544730 -0.147026
N2    N     N_R   0.759950 0.448600 0.455730 -0.140985
O1    O     O_R   0.374950 0.371210 0.521360 -0.609732
O2    O     O_R   0.542050 0.338030 0.492790 -0.597711
O3    O     O_R   0.368720 0.526070 0.390200 -0.606831
O4    O     O_R   0.535820 0.492890 0.361630 -0.627229
O5    O     O_R   0.457950 0.661970 0.507210 -0.610031
O6    O     O_R   0.625050 0.628790 0.478640 -0.644384
O7    O     O_R   0.464180 0.507110 0.638370 -0.626529
O8    O     O_R   0.631280 0.473930 0.609800 -0.558096
Zn1   Zn    Zn3+2 0.388420 0.522150 0.519080 0.940935
Zn2   Zn    Zn3+2 0.611580 0.477850 0.480920 0.951647
C49   C     C_2   0.271265 0.736625 0.933776 0.501553
H21   H     H_    0.284110 0.816918 0.907902 0.094199
O9    O     O_2   0.179363 0.694131 0.929980 -0.555725
O10   O     O_3   0.857067 0.457163 0.924219 -0.766488
H22   H     H_    0.872394 0.398827 0.894208 0.353800
O11   O     O_3   0.145302 0.700234 0.696484 -0.708328
H23   H     H_    0.087055 0.674408 0.732616 0.354768
O12   O     O_3   0.853924 0.285218 0.311157 -0.754707
H24   H     H_    0.778378 0.262165 0.287054 0.319587
O13   O     O_3   0.780554 0.440510 0.738674 -0.752618
H25   H     H_    0.857525 0.463777 0.757485 0.342838
C50   C     C_2   0.446773 0.729907 0.826616 0.327371
H26   H     H_    0.522673 0.747522 0.799980 0.084495
O14   O     O_2   0.365720 0.760057 0.781612 -0.557642

loop_
_geom_bond_atom_site_label_1
_geom_bond_atom_site_label_2
_ccdc_geom_bond_type
C12   O4    A    
C9    H16   S    
C17   C29   A    
C35   C36   A    
C16   H3    S    
C23   O6    A    
C4    C8    A    
O1    Zn1   S    
C49   H21   S    
C29   H1    S    
C13   O10   S    
C26   C27   A    
C17   C23   S    
C31   C43   A    
C1    C30   S    
C36   C37   A    
C33   O12   S    
C32   H13   S    
C5    C11   A    
C3    C7    A    
C26   H2    S    
C34   O7    A    
C5    C6    A    
O8    Zn2   S    
C18   C19   A    
C14   O13   S    
C18   H5    S    
C21   C22   A    
C11   C15   A    
C19   C20   A    
C8    C9    A    
C18   C30   A    
C9    C10   A    
C47   H18   S    
C44   C47   A    
O12   H24   S    
C43   N1    A    
C40   H11   S    
O4    Zn2   S    
C13   C14   A    
C49   O9    D    
C14   C45   A    
O7    Zn1   S    
C1    O2    A    
N2    Zn2   S    
C24   C28   A    
O10   H22   S    
C46   H17   S    
C20   H6    S    
C42   H12   S    
C39   C40   A    
O11   H23   S    
C32   N2    A    
C2    C48   A    
C16   C29   A    
C42   N1    A    
C2    C4    A    
C50   O14   D    
O3    Zn1   S    
C34   C45   S    
C1    O1    A    
C24   C25   A    
C40   C41   A    
C7    C49   S    
C8    H20   S    
C22   C27   A    
C15   H10   S    
N1    Zn1   S    
C15   C45   A    
C19   H7    S    
C16   C25   A    
C46   C47   A    
C22   C30   A    
C27   H8    S    
C17   C28   A    
O6    Zn2   S    
C23   O5    A    
C4    C5    A    
C10   C13   A    
C38   C42   A    
C6    C7    A    
C3    C46   A    
C37   N2    A    
C32   C33   A    
C36   C38   A    
C2    C3    A    
C25   C26   A    
C12   C44   S    
C34   O8    A    
C28   H4    S    
O13   H25   S    
C38   C39   A    
C6    C50   S    
C50   H26   S    
C33   C35   A    
C31   C39   A    
C35   H14   S    
C48   H19   S    
C37   C41   A    
C10   C11   A    
C43   H9    S    
C20   C21   A    
O2    Zn2   S    
C21   C24   A    
C31   O11   S    
C41   H15   S    
C12   O3    A    
O5    Zn1   S    
C44   C48   A    
