data_mof_unit_47850.cif
_audit_creation_date              2012-12-11T15:37:37-0500
_audit_creation_method            fapswitch 2.2
_symmetry_space_group_name_H-M    P1
_symmetry_Int_Tables_number       1
_space_group_crystal_system       triclinic
_cell_length_a                    17.441703
_cell_length_b                    24.666978
_cell_length_c                    14.883055
_cell_angle_alpha                 89.353509
_cell_angle_beta                  125.7744
_cell_angle_gamma                 90.319601
_cell_volume                      5194.74032975

loop_
_atom_site_label
_atom_site_type_symbol
_atom_type_description
_atom_site_fract_x
_atom_site_fract_y
_atom_site_fract_z
_atom_type_partial_charge
C1    C     C_R   0.818474 0.634931 0.905638 -0.045245
C2    C     C_R   0.143672 0.346371 0.088979 -0.069231
C3    C     C_R   0.140113 0.654549 0.087920 -0.089821
C4    C     C_R   0.811446 0.373016 0.907077 -0.034679
C5    C     C_R   0.328543 0.142457 0.906266 -0.068282
C6    C     C_R   0.642809 0.846143 0.089059 -0.064857
C7    C     C_R   0.640491 0.154493 0.087873 -0.085094
C8    C     C_R   0.311610 0.872770 0.906988 -0.036053
C9    C     C_3   0.426727 0.502189 0.359541 -0.024112
C10   C     C_3   0.602128 0.500794 0.532022 -0.039730
C11   C     C_3   0.926560 0.002090 0.359449 -0.023798
C12   C     C_3   0.101627 0.000778 0.532587 -0.038501
C13   C     C_R   0.731459 0.268025 0.921175 0.527088
C14   C     C_R   0.170392 0.778087 0.058574 0.532078
C15   C     C_R   0.191732 0.228903 0.056307 0.541787
C16   C     C_R   0.755460 0.745973 0.933609 0.559478
C17   C     C_R   0.230482 0.768144 0.920373 0.526324
C18   C     C_R   0.669577 0.278284 0.057548 0.532833
C19   C     C_R   0.679244 0.725395 0.053589 0.544952
C20   C     C_R   0.266005 0.254686 0.935981 0.551626
C21   C     C_R   0.168981 0.731199 0.914538 -0.294978
C22   C     C_R   0.728433 0.317398 0.060303 -0.262280
C23   C     C_R   0.739105 0.688052 0.055900 -0.294315
C24   C     C_R   0.201791 0.288707 0.931498 -0.301369
C25   C     C_R   0.670227 0.230885 0.915398 -0.292411
C26   C     C_R   0.229285 0.817107 0.061162 -0.259895
C27   C     C_R   0.256090 0.194703 0.060587 -0.296759
C28   C     C_R   0.695542 0.782820 0.930752 -0.295478
C29   C     C_R   0.141585 0.734452 0.985853 -0.036684
C30   C     C_R   0.760153 0.311743 0.993574 -0.026127
C31   C     C_R   0.776639 0.698612 0.996298 -0.038365
C32   C     C_R   0.164868 0.275924 0.991391 -0.055569
C33   C     C_R   0.641898 0.234355 0.985765 -0.031855
C34   C     C_R   0.260176 0.811597 0.993576 -0.025762
C35   C     C_R   0.292714 0.207766 0.000835 -0.036648
C36   C     C_R   0.657983 0.772774 0.990735 -0.052763
C37   C     C_R   0.127884 0.450782 0.646223 -0.145646
C38   C     C_R   0.133788 0.546049 0.552938 -0.102682
C39   C     C_R   0.139334 0.449872 0.561049 -0.142260
C40   C     C_R   0.107672 0.547134 0.624079 -0.165125
C41   C     C_R   0.630411 0.953395 0.647684 -0.152195
C42   C     C_R   0.623608 0.049204 0.546691 -0.108352
C43   C     C_R   0.642140 0.953417 0.562674 -0.132561
C44   C     C_R   0.598051 0.048832 0.617949 -0.154491
C45   C     C_R   0.124068 0.497606 0.499810 0.156771
C46   C     C_R   0.096320 0.498571 0.665146 0.154832
C47   C     C_R   0.621120 0.000724 0.498212 0.155794
C48   C     C_R   0.594183 0.999920 0.663833 0.151297
C49   C     C_R   0.912404 0.363935 0.091667 0.465937
C50   C     C_R   0.040507 0.653486 0.906821 0.436552
C51   C     C_R   0.047844 0.348273 0.906465 0.397822
C52   C     C_R   0.923039 0.643319 0.089509 0.411013
C53   C     C_R   0.412134 0.864172 0.091676 0.468451
C54   C     C_R   0.540611 0.153492 0.906823 0.431529
C55   C     C_R   0.546844 0.848101 0.906488 0.403112
C56   C     C_R   0.431304 0.146562 0.091003 0.452094
C57   C     C_R   0.052920 0.543420 0.308301 0.142103
C58   C     C_R   0.009442 0.453630 0.739792 0.100267
C59   C     C_R   0.027336 0.543659 0.757912 0.221017
C60   C     C_R   0.055094 0.454167 0.308411 0.114575
C61   C     C_R   0.552215 0.044851 0.306369 0.186698
C62   C     C_R   0.510353 0.953741 0.740692 0.104281
C63   C     C_R   0.527702 0.043748 0.758703 0.217238
C64   C     C_R   0.557814 0.955357 0.310125 0.125818
C65   C     C_R   0.743339 0.455328 0.696008 0.359591
C66   C     C_R   0.268876 0.546129 0.254352 0.427912
C67   C     C_R   0.270368 0.456191 0.250810 0.420452
C68   C     C_R   0.743035 0.545111 0.695817 0.377893
C69   C     C_R   0.243001 0.955327 0.696313 0.360986
C70   C     C_R   0.768856 0.046107 0.254163 0.431134
C71   C     C_R   0.770259 0.956160 0.250469 0.421176
C72   C     C_R   0.242495 0.045145 0.696379 0.389697
C73   C     C_R   0.835275 0.658491 0.997885 -0.017761
C74   C     C_R   0.109623 0.316662 0.995957 0.069842
C75   C     C_R   0.099205 0.686256 0.994556 0.044235
C76   C     C_R   0.822367 0.351928 0.999142 -0.064462
C77   C     C_R   0.350997 0.168646 0.998992 -0.002019
C78   C     C_R   0.607426 0.816267 0.996019 0.057233
C79   C     C_R   0.599534 0.186196 0.994520 0.030155
C80   C     C_R   0.322476 0.851684 0.999010 -0.063754
C81   C     C_R   0.078282 0.498067 0.377587 -0.046410
C82   C     C_R   0.047519 0.498050 0.719886 -0.101838
C83   C     C_R   0.579227 0.000121 0.377508 -0.078227
C84   C     C_R   0.547803 0.998296 0.720744 -0.101949
C85   C     C_R   0.695054 0.500377 0.635173 -0.074328
C86   C     C_R   0.325298 0.501962 0.276703 -0.114426
C87   C     C_R   0.194300 0.000393 0.635976 -0.079221
C88   C     C_R   0.825214 0.001914 0.276346 -0.120083
C89   C     C_3   0.531776 0.454682 0.501806 -0.193167
C90   C     C_3   0.497005 0.548500 0.389125 -0.166054
C91   C     C_3   0.499194 0.459240 0.380300 -0.174934
C92   C     C_3   0.529688 0.543742 0.510591 -0.202346
C93   C     C_3   0.031229 0.954673 0.502136 -0.193972
C94   C     C_3   0.996917 0.048385 0.389290 -0.169284
C95   C     C_3   0.999186 0.959104 0.380824 -0.173229
C96   C     C_3   0.029043 0.043747 0.510552 -0.198770
C97   C     C_3   0.459730 0.497667 0.479713 0.554327
C98   C     C_3   0.570897 0.505470 0.412906 0.553199
C99   C     C_3   0.959036 0.997683 0.479444 0.553224
C100  C     C_3   0.070957 0.005324 0.413682 0.553825
H1    H     H_    0.760433 0.642642 0.820767 0.200093
H2    H     H_    0.179026 0.329144 0.170880 0.221248
H3    H     H_    0.177478 0.670374 0.170394 0.243215
H4    H     H_    0.751414 0.368339 0.822331 0.195831
H5    H     H_    0.273252 0.152651 0.821500 0.216707
H6    H     H_    0.678004 0.828982 0.171008 0.219627
H7    H     H_    0.678377 0.170343 0.170359 0.248392
H8    H     H_    0.251672 0.868032 0.822229 0.196873
H9    H     H_    0.544724 0.416489 0.548849 0.228073
H10   H     H_    0.482225 0.586434 0.340696 0.228215
H11   H     H_    0.486396 0.425354 0.324655 0.230043
H12   H     H_    0.542030 0.577971 0.565388 0.218614
H13   H     H_    0.044046 0.916540 0.549299 0.227509
H14   H     H_    0.982323 0.086267 0.340782 0.227670
H15   H     H_    0.986672 0.925165 0.325411 0.230576
H16   H     H_    0.041064 0.078020 0.565113 0.220136
H17   H     H_    0.148641 0.697363 0.859559 0.187746
H18   H     H_    0.750530 0.351692 0.115182 0.187374
H19   H     H_    0.755833 0.650716 0.103077 0.178273
H20   H     H_    0.183282 0.326199 0.884349 0.158631
H21   H     H_    0.650712 0.196818 0.861188 0.186792
H22   H     H_    0.252149 0.851189 0.116679 0.188261
H23   H     H_    0.275842 0.157337 0.108114 0.175068
H24   H     H_    0.681419 0.820520 0.885319 0.160371
H25   H     H_    0.138693 0.413852 0.691371 0.135610
H26   H     H_    0.148813 0.584203 0.530994 0.179572
H27   H     H_    0.158221 0.411933 0.544412 0.151089
H28   H     H_    0.090971 0.586308 0.638226 0.147005
H29   H     H_    0.644799 0.916728 0.695057 0.136220
H30   H     H_    0.631776 0.087949 0.520885 0.148794
H31   H     H_    0.665596 0.916515 0.548364 0.150109
H32   H     H_    0.574827 0.086919 0.627750 0.146437
N1    N     N_R   0.892620 0.603790 0.941800 -0.068511
N2    N     N_R   0.107380 0.396210 0.058200 -0.093203
N3    N     N_R   0.107380 0.603790 0.058200 -0.091539
N4    N     N_R   0.892620 0.396210 0.941800 -0.054708
N5    N     N_R   0.392620 0.103790 0.941800 -0.080548
N6    N     N_R   0.607380 0.896210 0.058200 -0.093617
N7    N     N_R   0.607380 0.103790 0.058200 -0.090527
N8    N     N_R   0.392620 0.896210 0.941800 -0.055876
N9    N     N_R   0.952210 0.397600 0.057910 -0.102178
N10   N     N_R   0.047790 0.602400 0.942090 -0.097783
N11   N     N_R   0.047790 0.397600 0.942090 -0.106765
N12   N     N_R   0.952210 0.602400 0.057910 -0.106450
N13   N     N_R   0.452210 0.897600 0.057910 -0.103444
N14   N     N_R   0.547790 0.102400 0.942090 -0.098340
N15   N     N_R   0.547790 0.897600 0.942090 -0.107226
N16   N     N_R   0.452210 0.102400 0.057910 -0.109759
N17   N     N_R   0.026300 0.529110 0.206760 -0.093385
N18   N     N_R   0.973700 0.470890 0.793240 -0.065146
N19   N     N_R   0.973700 0.529110 0.793240 -0.064675
N20   N     N_R   0.026300 0.470890 0.206760 -0.083239
N21   N     N_R   0.526300 0.029110 0.206760 -0.084390
N22   N     N_R   0.473700 0.970890 0.793240 -0.064930
N23   N     N_R   0.473700 0.029110 0.793240 -0.064492
N24   N     N_R   0.526300 0.970890 0.206760 -0.087451
N25   N     N_R   0.818530 0.472270 0.792960 -0.121692
N26   N     N_R   0.181470 0.527730 0.207040 -0.111317
N27   N     N_R   0.181470 0.472270 0.207040 -0.116159
N28   N     N_R   0.818530 0.527730 0.792960 -0.123364
N29   N     N_R   0.318530 0.972270 0.792960 -0.121568
N30   N     N_R   0.681470 0.027730 0.207040 -0.108845
N31   N     N_R   0.681470 0.972270 0.207040 -0.118304
N32   N     N_R   0.318530 0.027730 0.792960 -0.121292
Ni1   Ni    Ni4+2 0.934150 0.565840 0.869060 0.314145
Ni2   Ni    Ni4+2 0.065850 0.434160 0.130940 0.234740
Ni3   Ni    Ni4+2 0.065850 0.565840 0.130940 0.245941
Ni4   Ni    Ni4+2 0.934150 0.434160 0.869060 0.314100
Ni5   Ni    Ni4+2 0.434150 0.065840 0.869060 0.307751
Ni6   Ni    Ni4+2 0.565850 0.934160 0.130940 0.234158
Ni7   Ni    Ni4+2 0.565850 0.065840 0.130940 0.267923
Ni8   Ni    Ni4+2 0.434150 0.934160 0.869060 0.313393
Cl1   Cl    Cl    0.975117 0.314373 0.195892 -0.575802
Cl2   Cl    Cl    0.944789 0.677922 0.777240 -0.511335
Cl3   Cl    Cl    0.947557 0.318620 0.789323 -0.484911
Cl4   Cl    Cl    0.998773 0.695042 0.178193 -0.556904
Cl5   Cl    Cl    0.474403 0.816205 0.199232 -0.576213
Cl6   Cl    Cl    0.444973 0.178013 0.777212 -0.519898
Cl7   Cl    Cl    0.446435 0.819043 0.788426 -0.488185
Cl8   Cl    Cl    0.516633 0.189516 0.196202 -0.548285
N33   N     N_2   0.066600 0.597499 0.343396 -0.123881
H33   H     H_    0.097772 0.621642 0.316749 0.251339
C101  C     C_3   0.989834 0.620039 0.343472 -0.747257
H34   H     H_    0.007852 0.661922 0.376185 0.296018
H35   H     H_    0.976999 0.595477 0.396319 0.234851
H36   H     H_    0.922914 0.620386 0.259152 0.235628
N34   N     N_2   0.981445 0.404014 0.681789 -0.094781
H37   H     H_    0.034992 0.377477 0.703240 0.167689
C102  C     C_3   0.907257 0.408058 0.564350 -0.561122
H38   H     H_    0.933519 0.428511 0.520426 0.191253
H39   H     H_    0.846225 0.431127 0.549522 0.276169
H40   H     H_    0.882705 0.366778 0.530041 0.267087
N35   N     N_2   0.084492 0.590770 0.794419 -0.134260
H41   H     H_    0.059993 0.623635 0.741310 0.202587
C103  C     C_3   0.186161 0.584053 0.873361 -0.877641
H42   H     H_    0.212645 0.610571 0.945573 0.256829
H43   H     H_    0.222149 0.595748 0.834476 0.282422
H44   H     H_    0.205653 0.541650 0.904900 0.255880
N36   N     N_2   0.075516 0.399544 0.342921 -0.119672
H45   H     H_    0.048933 0.384678 0.384478 0.191668
C104  C     C_3   0.166886 0.380091 0.377478 -0.599870
H46   H     H_    0.180398 0.339417 0.416800 0.271443
H47   H     H_    0.223877 0.408210 0.437433 0.256446
H48   H     H_    0.166379 0.375984 0.303413 0.264384
N37   N     N_2   0.531486 0.097408 0.322729 -0.111682
H49   H     H_    0.587169 0.123202 0.372396 0.234203
C105  C     C_3   0.445573 0.103340 0.315728 -0.792309
H50   H     H_    0.432571 0.146926 0.319944 0.288384
H51   H     H_    0.450617 0.081347 0.384325 0.248473
H52   H     H_    0.384607 0.087036 0.235866 0.235936
N38   N     N_2   0.485291 0.903586 0.684867 -0.095617
H53   H     H_    0.540780 0.878694 0.706333 0.164603
C106  C     C_3   0.410741 0.906331 0.567393 -0.559975
H54   H     H_    0.388760 0.864634 0.534484 0.266209
H55   H     H_    0.435595 0.927528 0.522635 0.191034
H56   H     H_    0.348365 0.928031 0.551988 0.277215
N39   N     N_2   0.585850 0.090522 0.796523 -0.134588
H57   H     H_    0.561561 0.123996 0.745065 0.202636
C107  C     C_3   0.687504 0.083153 0.873277 -0.870175
H58   H     H_    0.715896 0.110156 0.945268 0.256795
H59   H     H_    0.721884 0.093722 0.831955 0.283374
H60   H     H_    0.706443 0.040841 0.905547 0.254268
N40   N     N_2   0.577905 0.900942 0.346423 -0.117443
H61   H     H_    0.553179 0.887211 0.390683 0.191230
C108  C     C_3   0.668173 0.880634 0.378762 -0.600313
H62   H     H_    0.681506 0.840097 0.418550 0.271261
H63   H     H_    0.726177 0.908519 0.437687 0.257142
H64   H     H_    0.665999 0.875977 0.303653 0.263699
Cl9   Cl    Cl    0.736619 0.392045 0.638590 -0.542934
Cl10  Cl    Cl    0.309036 0.608733 0.321952 -0.618219
Cl11  Cl    Cl    0.317646 0.391234 0.303058 -0.664951
Cl12  Cl    Cl    0.734444 0.608942 0.637036 -0.521034
Cl13  Cl    Cl    0.235980 0.892164 0.638334 -0.544080
Cl14  Cl    Cl    0.809151 0.108622 0.322131 -0.605983
Cl15  Cl    Cl    0.817332 0.891123 0.302266 -0.664924
Cl16  Cl    Cl    0.232978 0.109050 0.637516 -0.530426
Cl17  Cl    Cl    0.387150 0.492689 0.527844 -0.593034
Cl18  Cl    Cl    0.649569 0.510396 0.373799 -0.530267
Cl19  Cl    Cl    0.886071 0.992830 0.527062 -0.594278
Cl20  Cl    Cl    0.150191 0.010145 0.375375 -0.528433
Cl21  Cl    Cl    0.777770 0.254087 0.845294 -0.496116
Cl22  Cl    Cl    0.134255 0.785244 0.146089 -0.478853
Cl23  Cl    Cl    0.145053 0.211466 0.130530 -0.505093
Cl24  Cl    Cl    0.807079 0.762179 0.864120 -0.511571
Cl25  Cl    Cl    0.275945 0.754159 0.843594 -0.500682
Cl26  Cl    Cl    0.631845 0.285698 0.143448 -0.481372
Cl27  Cl    Cl    0.631548 0.711676 0.128102 -0.500915
Cl28  Cl    Cl    0.314482 0.273135 0.864039 -0.522516

loop_
_geom_bond_atom_site_label_1
_geom_bond_atom_site_label_2
_ccdc_geom_bond_type
C16   C28   A    
C41   H29   S    
C71   C88   A    
C10   C85   S    
C6    N6    A    
N6    Ni6   S    
C11   C88   S    
C41   C43   A    
C104  H46   S    
N5    N16   A    
C94   C100  S    
N40   H61   S    
N17   Ni3   S    
C59   C82   A    
C70   C88   A    
C9    C91   S    
C49   Cl1   S    
C94   H14   S    
C19   Cl27  S    
C15   C32   A    
N7    N14   A    
C5    H5    S    
N37   H49   S    
C59   N35   S    
C16   C31   A    
C40   C46   A    
N9    Ni2   S    
C2    N2    A    
C71   N31   A    
N40   C108  S    
N33   H33   S    
N24   Ni6   S    
C69   N29   A    
N30   N31   A    
C19   C36   A    
C101  H35   S    
C32   C74   S    
C31   C73   S    
C2    H2    S    
C11   C95   S    
C40   H28   S    
C96   C99   S    
C89   H9    S    
C18   C33   A    
C108  H64   S    
C30   C76   S    
C105  H51   S    
C11   C99   S    
C70   Cl14  S    
C91   H11   S    
C102  H39   S    
N31   Ni6   S    
C69   Cl13  S    
C38   C45   A    
C21   H17   S    
C60   N36   S    
C34   C80   S    
N2    N11   A    
C46   C82   S    
N29   Ni8   S    
C90   C92   S    
C26   C34   A    
N3    N10   A    
C13   Cl21  S    
N30   Ni7   S    
C20   C24   A    
C10   C89   S    
C95   H15   S    
N35   C103  S    
C57   N17   A    
C92   C97   S    
C105  H52   S    
C62   N38   S    
N2    Ni2   S    
N7    Ni7   S    
C71   Cl15  S    
C89   C91   S    
C3    C75   A    
C93   C99   S    
N5    Ni5   S    
C69   C87   A    
C39   C45   A    
C103  H44   S    
C99   Cl19  S    
C106  H55   S    
C10   C92   S    
N36   H45   S    
C93   C95   S    
C14   Cl22  S    
C68   C85   A    
C104  H47   S    
C13   C25   A    
N32   Ni5   S    
C42   C44   A    
C1    N1    A    
C70   N30   A    
N25   Ni4   S    
C57   N33   S    
C38   H26   S    
N26   Ni3   S    
C37   H25   S    
N37   C105  S    
C72   N32   A    
C15   Cl23  S    
N10   Ni1   S    
C24   H20   S    
C3    N3    A    
C12   C100  S    
C51   Cl3   S    
N12   Ni3   S    
C105  H50   S    
C10   C98   S    
C13   C30   A    
C53   C80   A    
C39   H27   S    
C65   N25   A    
C52   C73   A    
C61   C83   A    
N33   C101  S    
C96   H16   S    
C107  H58   S    
C55   C78   A    
C27   H23   S    
C95   C100  S    
C92   H12   S    
C60   N20   A    
N4    Ni4   S    
C27   C35   A    
N39   H57   S    
C106  H54   S    
C21   C29   A    
C35   C77   S    
C17   C21   A    
C56   C77   A    
C54   Cl6   S    
C64   N40   S    
C49   N9    A    
C23   C31   A    
N17   N20   A    
C56   N16   A    
C102  H40   S    
C19   C23   A    
C101  H34   S    
C24   C32   A    
C64   C83   A    
N4    N9    A    
N1    Ni1   S    
C9    C86   S    
C107  H59   S    
C48   C84   S    
C60   C81   A    
C18   Cl26  S    
C15   C27   A    
N38   H53   S    
C17   Cl25  S    
N6    N15   A    
N18   Ni4   S    
N21   Ni7   S    
C25   C33   A    
C53   N13   A    
C108  H62   S    
C6    H6    S    
C49   C76   A    
N22   Ni8   S    
C42   H30   S    
C93   H13   S    
N28   Ni1   S    
C14   C26   A    
N21   N24   A    
C94   C96   S    
C72   C87   A    
C68   Cl12  S    
N22   N23   A    
C29   C75   S    
C55   N15   A    
C16   Cl24  S    
C11   C94   S    
C72   Cl16  S    
N38   C106  S    
N25   N28   A    
C47   C83   S    
C52   N12   A    
N26   N27   A    
C104  H48   S    
C7    H7    S    
N23   Ni5   S    
C101  H36   S    
C44   H32   S    
C17   C34   A    
C90   H10   S    
C14   C29   A    
C5    C77   A    
C7    N7    A    
C1    H1    S    
C66   N26   A    
N29   N32   A    
N15   Ni8   S    
C7    C79   A    
C54   C79   A    
C56   Cl8   S    
C106  H56   S    
C3    H3    S    
C22   H18   S    
C62   C84   A    
N13   Ni6   S    
C67   C86   A    
C9    C97   S    
C22   C30   A    
C12   C87   S    
C58   N34   S    
C18   C22   A    
C55   Cl7   S    
C20   C35   A    
C12   C96   S    
N1    N12   A    
C33   C79   S    
C43   C47   A    
C61   N21   A    
C9    C90   S    
C66   C86   A    
N20   Ni2   S    
C28   H24   S    
C65   C85   A    
C98   Cl18  S    
C59   N19   A    
N39   C107  S    
C97   Cl17  S    
C66   Cl10  S    
N8    N13   A    
N18   N19   A    
N27   Ni2   S    
C65   Cl9   S    
C54   N14   A    
C8    N8    A    
C1    C73   A    
C63   N39   S    
C58   C82   A    
C63   N23   A    
C5    N5    A    
C37   C39   A    
C44   C48   A    
C36   C78   S    
C50   C75   A    
C107  H60   S    
C38   C40   A    
C50   Cl2   S    
C53   Cl5   S    
N16   Ni7   S    
C4    H4    S    
C43   H31   S    
C108  H63   S    
C41   C48   A    
C64   N24   A    
C100  Cl20  S    
C45   C81   S    
C42   C47   A    
C51   N11   A    
C91   C98   S    
C102  H38   S    
C12   C93   S    
C57   C81   A    
N36   C104  S    
N11   Ni4   S    
N34   C102  S    
C6    C78   A    
C67   Cl11  S    
C103  H42   S    
C50   N10   A    
C4    N4    A    
N34   H37   S    
N19   Ni1   S    
C4    C76   A    
C28   C36   A    
N8    Ni8   S    
N35   H41   S    
N14   Ni5   S    
C89   C97   S    
C8    C80   A    
C51   C74   A    
N3    Ni3   S    
C52   Cl4   S    
C8    H8    S    
C23   H19   S    
C62   N22   A    
C63   C84   A    
C26   H22   S    
C2    C74   A    
C37   C46   A    
C68   N28   A    
C20   Cl28  S    
C25   H21   S    
C90   C98   S    
C58   N18   A    
C61   N37   S    
C67   N27   A    
C103  H43   S    
