data_mof_unit_31945.cif
_audit_creation_date              2012-12-11T14:14:20-0500
_audit_creation_method            fapswitch 2.2
_symmetry_space_group_name_H-M    P1
_symmetry_Int_Tables_number       1
_space_group_crystal_system       triclinic
_cell_length_a                    17.03579
_cell_length_b                    7.250119
_cell_length_c                    17.005654
_cell_angle_alpha                 90.798495
_cell_angle_beta                  99.367443
_cell_angle_gamma                 89.31629
_cell_volume                      2072.0840842

loop_
_atom_site_label
_atom_site_type_symbol
_atom_type_description
_atom_site_fract_x
_atom_site_fract_y
_atom_site_fract_z
_atom_type_partial_charge
O1    O     O_R   0.414560 0.494370 0.416770 -0.547737
O2    O     O_R   0.585440 0.994370 0.583230 -0.543713
O3    O     O_R   0.578370 0.819590 0.429320 -0.524387
O4    O     O_R   0.421630 0.319590 0.570680 -0.541142
C1    C     C_R   0.604803 0.653694 0.414468 0.767673
C2    C     C_R   0.395316 0.157263 0.586105 0.774205
O5    O     O_R   0.414740 0.823790 0.407360 -0.509697
O6    O     O_R   0.585260 0.323790 0.592640 -0.514285
O7    O     O_R   0.420650 0.998510 0.561120 -0.530206
O8    O     O_R   0.579350 0.498510 0.438880 -0.543126
C3    C     C_R   0.387182 0.655479 0.386386 0.785128
C4    C     C_R   0.613072 0.155802 0.613277 0.791048
O9    O     O_3   0.502130 0.662240 0.550470 -0.376787
O10   O     O_3   0.497870 0.162240 0.449530 -0.377902
V1    V     V_3+5 0.499600 0.935390 0.490640 1.582801
V2    V     V_3+5 0.500400 0.435390 0.509360 1.554907
C5    C     C_2   0.789142 0.264138 0.781766 0.174740
C6    C     C_2   0.209174 0.762230 0.219853 0.194036
C7    C     C_2   0.813217 0.112067 0.825606 0.200867
C8    C     C_2   0.188129 0.613008 0.172047 0.202769
C9    C     C_2   0.709204 0.275569 0.728929 0.338482
C10   C     C_2   0.289178 0.775857 0.272295 0.339696
C11   C     C_2   0.686859 0.145627 0.672378 -0.237938
C12   C     C_2   0.314132 0.643840 0.326085 -0.258594
H1    H     H_    0.725891 0.028263 0.666898 0.121764
H2    H     H_    0.277534 0.522891 0.328285 0.127154
C13   C     C_R   0.329871 0.157572 0.634551 -0.234233
C14   C     C_R   0.669645 0.637699 0.365981 -0.234034
C15   C     C_R   0.166191 0.111795 0.861774 -0.272879
C16   C     C_R   0.834621 0.632333 0.138963 -0.282305
C17   C     C_R   0.298999 0.012895 0.838793 0.370733
C18   C     C_R   0.709696 0.774665 0.164355 0.366842
C19   C     C_R   0.239682 0.023908 0.888368 0.260507
C20   C     C_R   0.765963 0.739475 0.113379 0.254568
C21   C     C_R   0.152432 0.195811 0.785755 0.356786
C22   C     C_R   0.846209 0.555119 0.216331 0.359627
C23   C     C_R   0.212243 0.187500 0.735811 -0.101781
C24   C     C_R   0.786648 0.578080 0.266033 -0.102832
C25   C     C_R   0.283319 0.083486 0.760143 -0.174115
C26   C     C_R   0.716995 0.684901 0.238776 -0.174988
C27   C     C_R   0.339188 0.059834 0.706295 0.359237
C28   C     C_R   0.656846 0.704309 0.287855 0.358196
C29   C     C_R   0.260418 0.265464 0.611317 0.158205
C30   C     C_R   0.740335 0.538793 0.394692 0.163834
C31   C     C_R   0.201815 0.280205 0.661464 0.453835
C32   C     C_R   0.796785 0.501535 0.343767 0.458058
O11   O     O_R   0.920750 0.773600 0.061260 -0.516683
O12   O     O_R   0.079250 0.273600 0.938740 -0.531468
O13   O     O_R   0.085340 0.439850 0.092570 -0.530286
O14   O     O_R   0.914660 0.939850 0.907430 -0.515124
C33   C     C_R   0.113374 0.608097 0.113224 0.732229
C34   C     C_R   0.886894 0.107970 0.886211 0.729038
O15   O     O_R   0.921720 0.444130 0.070790 -0.542337
O16   O     O_R   0.078280 0.944130 0.929210 -0.528065
O17   O     O_R   0.914480 0.269530 0.916840 -0.523190
O18   O     O_R   0.085520 0.769530 0.083160 -0.508683
C35   C     C_R   0.896337 0.614345 0.086315 0.758351
C36   C     C_R   0.103696 0.110713 0.913670 0.763202
O19   O     O_3   0.997840 0.601520 0.949550 -0.372334
O20   O     O_3   0.002160 0.101520 0.050450 -0.373169
V3    V     V_3+5 0.000400 0.328340 0.009360 1.629206
V4    V     V_3+5 0.999600 0.828340 0.990640 1.671125
O21   O     O_3   0.838288 0.416049 0.788258 -0.622698
H3    H     H_    0.814172 0.509407 0.749295 0.328854
O22   O     O_3   0.156193 0.908759 0.218536 -0.628495
H4    H     H_    0.178882 0.000903 0.259346 0.315956
O23   O     O_3   0.080476 0.281983 0.757685 -0.580258
H5    H     H_    0.038842 0.243963 0.788176 0.284239
O24   O     O_3   0.915606 0.460002 0.245303 -0.581509
H6    H     H_    0.959453 0.500660 0.218221 0.279926
Cl1   Cl    Cl    0.753006 0.913164 0.820049 -0.579767
Cl2   Cl    Cl    0.253903 0.423096 0.168486 -0.603328
O25   O     O_3   0.659476 0.425024 0.735754 -0.605455
H7    H     H_    0.683095 0.499785 0.782754 0.353624
O26   O     O_3   0.335476 0.929911 0.268810 -0.602250
H8    H     H_    0.309906 0.006404 0.223701 0.355757
O27   O     O_3   0.403879 0.942398 0.722181 -0.587328
H9    H     H_    0.383752 0.823194 0.738259 0.338658
O28   O     O_3   0.582942 0.779060 0.259786 -0.590139
H10   H     H_    0.563678 0.718485 0.207687 0.350855
O29   O     O_3   0.247107 0.356674 0.539279 -0.645544
H11   H     H_    0.278008 0.296775 0.501347 0.288640
O30   O     O_3   0.756259 0.475388 0.472162 -0.643005
H12   H     H_    0.724365 0.545968 0.506182 0.291233
O31   O     O_3   0.374063 0.941885 0.866619 -0.593161
H13   H     H_    0.381753 0.923579 0.924768 0.370028
O32   O     O_3   0.648457 0.900972 0.143906 -0.596313
H14   H     H_    0.661548 0.985831 0.103017 0.356109
O33   O     O_3   0.134121 0.387471 0.639468 -0.582132
H15   H     H_    0.134458 0.446179 0.587393 0.346947
O34   O     O_3   0.863507 0.393987 0.369661 -0.581847
H16   H     H_    0.860151 0.337873 0.421682 0.346288
Cl3   Cl    Cl    0.256810 0.927111 0.985159 -0.576703
Cl4   Cl    Cl    0.747236 0.820863 0.014324 -0.542008

loop_
_geom_bond_atom_site_label_1
_geom_bond_atom_site_label_2
_ccdc_geom_bond_type
O32   H14   S    
C17   O31   S    
C9    O25   S    
O25   H7    S    
C7    Cl1   S    
O1    C3    A    
C30   O30   S    
O2    C4    A    
O11   V4    S    
O29   H11   S    
C25   C27   A    
O31   H13   S    
C6    O22   S    
O5    C3    A    
C4    C11   S    
C10   C12   D    
C21   C23   A    
C12   H2    S    
C8    C33   S    
C27   O27   S    
C16   C35   S    
C15   C19   A    
C3    C12   S    
C33   O18   A    
C14   C28   A    
O15   V3    S    
C7    C34   S    
C2    C13   S    
O13   C33   A    
O14   C34   A    
C17   C19   A    
C31   O33   S    
C34   O17   A    
O5    V1    S    
C28   O28   S    
O6    V2    S    
C10   O26   S    
C2    O7    A    
C30   C32   A    
O13   V3    S    
C16   C20   A    
O23   H5    S    
O4    C2    A    
O34   H16   S    
O15   C35   A    
C32   O34   S    
O16   V4    S    
O27   H9    S    
C18   O32   S    
C14   C30   A    
C5    C9    S    
O28   H10   S    
O20   V3    S    
C18   C20   A    
O4    V2    S    
O26   H8    S    
O11   C35   A    
C1    C14   S    
C13   C27   A    
O30   H12   S    
C21   O23   S    
O6    C4    A    
O1    V2    S    
O2    V1    S    
C29   C31   A    
C9    C11   D    
C29   O29   S    
O18   V4    S    
C23   C31   A    
O3    V1    S    
C22   O24   S    
O16   C36   A    
O19   V4    S    
C6    C10   S    
C20   Cl4   S    
O3    C1    A    
C19   Cl3   S    
O12   C36   A    
C15   C21   A    
C16   C22   A    
C22   C24   A    
O7    V1    S    
C1    O8    A    
C23   C25   A    
O8    V2    S    
C5    O21   S    
C24   C26   A    
O12   V3    S    
O14   V4    S    
O17   V3    S    
C26   C28   A    
C5    C7    D    
C17   C25   A    
C6    C8    D    
C18   C26   A    
O24   H6    S    
C24   C32   A    
O21   H3    S    
C13   C29   A    
C11   H1    S    
C15   C36   S    
O22   H4    S    
O9    V2    S    
O10   V1    S    
C8    Cl2   S    
O33   H15   S    
