data_mof_unit_19733.cif
_audit_creation_date              2012-12-10T21:26:08-0500
_audit_creation_method            fapswitch 2.2
_symmetry_space_group_name_H-M    P1
_symmetry_Int_Tables_number       1
_space_group_crystal_system       triclinic
_cell_length_a                    8.558917
_cell_length_b                    16.242845
_cell_length_c                    16.884888
_cell_angle_alpha                 87.285706
_cell_angle_beta                  91.721327
_cell_angle_gamma                 100.495898
_cell_volume                      2304.94328807

loop_
_atom_site_label
_atom_site_type_symbol
_atom_type_description
_atom_site_fract_x
_atom_site_fract_y
_atom_site_fract_z
_atom_type_partial_charge
C1    C     C_R   0.492716 0.488529 0.652107 0.880243
C2    C     C_R   0.399810 0.152206 0.422693 -0.027448
C3    C     C_R   0.600879 0.761243 0.569900 -0.047370
C4    C     C_R   0.402310 0.239125 0.429069 -0.105609
C5    C     C_R   0.800406 0.521594 0.501521 0.967304
C6    C     C_R   0.199626 0.478276 0.500037 0.961423
C7    C     C_2   0.966216 0.533433 0.501554 -0.393582
C8    C     C_2   0.033924 0.466298 0.502843 -0.401949
C9    C     C_R   0.480583 0.482078 0.737287 -0.113637
C10   C     C_R   0.506321 0.515355 0.261828 -0.107454
C11   C     C_R   0.371468 0.521504 0.776130 0.022238
C12   C     C_R   0.507946 0.511403 0.347659 0.885742
C13   C     C_R   0.585965 0.462045 0.220317 0.041637
C14   C     C_R   0.381025 0.523058 0.859392 0.081860
C15   C     C_R   0.539033 0.446445 0.141278 0.070663
C16   C     C_R   0.499662 0.487242 0.901321 0.233675
C17   C     C_R   0.429285 0.490812 0.102845 0.233202
C18   C     C_R   0.607738 0.448770 0.861572 0.070672
C19   C     C_R   0.359992 0.548657 0.142892 0.063141
C20   C     C_R   0.593648 0.444881 0.779390 -0.286253
C21   C     C_R   0.399319 0.559728 0.223007 -0.290109
C22   C     C_3   0.723829 0.425119 0.258585 -0.421706
C23   C     C_R   0.436651 0.759763 0.454404 0.151069
C24   C     C_3   0.865138 0.494708 0.277087 -0.347489
C25   C     C_3   0.014531 0.459006 0.299107 -0.863487
C26   C     C_3   0.245548 0.560562 0.729297 -0.391505
C27   C     C_3   0.294874 0.656310 0.717250 -0.299818
C28   C     C_3   0.194665 0.691450 0.652280 -0.862255
C29   C     C_3   0.735986 0.412946 0.909293 -0.385703
C30   C     C_3   0.861251 0.381561 0.861008 -0.386405
C31   C     C_3   0.986662 0.350977 0.915362 -0.868518
C32   C     C_3   0.244855 0.596265 0.098080 -0.374420
C33   C     C_3   0.183385 0.662587 0.144534 -0.377079
C34   C     C_R   0.560253 0.239941 0.546728 0.164669
C35   C     C_3   0.068122 0.705164 0.093718 -0.882554
C36   C     C_R   0.430732 0.845476 0.459996 0.018865
C37   C     C_R   0.564900 0.154023 0.541788 -0.002736
C38   C     C_R   0.517362 0.891500 0.521009 0.223915
C39   C     C_R   0.481068 0.108230 0.479836 0.264631
C40   C     C_R   0.601928 0.847531 0.576819 -0.041913
H1    H     H_    0.031924 0.597397 0.498886 0.174974
H2    H     H_    0.889503 0.537958 0.224200 0.225378
H3    H     H_    0.836329 0.531166 0.326924 0.216725
H4    H     H_    0.687482 0.386557 0.312986 0.231262
H5    H     H_    0.766295 0.381103 0.219889 0.196683
H6    H     H_    0.218447 0.668160 0.594074 0.282199
H7    H     H_    0.066145 0.673008 0.665048 0.255230
H8    H     H_    0.226367 0.760921 0.648941 0.244109
H9    H     H_    0.279627 0.687736 0.772472 0.198442
H10   H     H_    0.421968 0.673302 0.701560 0.239699
H11   H     H_    0.221422 0.531715 0.670863 0.207336
H12   H     H_    0.967935 0.402310 0.504939 0.179032
H13   H     H_    0.129406 0.545616 0.758973 0.172412
H14   H     H_    0.721473 0.403554 0.092143 0.180700
H15   H     H_    0.574096 0.327056 0.129593 0.179341
H16   H     H_    0.158197 0.537734 0.889704 0.188176
H17   H     H_    0.298476 0.627666 0.888620 0.175872
H18   H     H_    0.045511 0.401632 0.953865 0.265057
H19   H     H_    0.930996 0.296433 0.953338 0.259803
H20   H     H_    0.078474 0.331499 0.878964 0.256735
H21   H     H_    0.803313 0.328560 0.824852 0.228902
H22   H     H_    0.921420 0.433235 0.821041 0.216582
H23   H     H_    0.675355 0.416766 0.746498 0.150170
H24   H     H_    0.799710 0.462536 0.947821 0.204412
H25   H     H_    0.676267 0.360043 0.948007 0.220084
H26   H     H_    0.127940 0.736736 0.040063 0.261813
H27   H     H_    0.963451 0.658319 0.075371 0.262086
H28   H     H_    0.026149 0.752908 0.128514 0.253052
H29   H     H_    0.120097 0.633074 0.197905 0.225209
H30   H     H_    0.285041 0.711025 0.163507 0.228874
H31   H     H_    0.306612 0.628959 0.045406 0.222157
H32   H     H_    0.141654 0.549949 0.076982 0.203840
H33   H     H_    0.553489 0.291283 0.653137 0.209296
H34   H     H_    0.341715 0.599636 0.257156 0.155369
H35   H     H_    0.712189 0.337019 0.595777 0.228403
H36   H     H_    0.443465 0.708943 0.348062 0.206134
H37   H     H_    0.284979 0.662690 0.405196 0.228281
H38   H     H_    0.775196 0.146164 0.597524 0.196240
H39   H     H_    0.613747 0.119855 0.655649 0.194426
H40   H     H_    0.375037 0.879664 0.347063 0.200725
H41   H     H_    0.217162 0.852177 0.407339 0.193333
H42   H     H_    0.611194 0.915399 0.674530 0.199928
H43   H     H_    0.774130 0.938586 0.617661 0.208842
H44   H     H_    0.268131 0.149597 0.319080 0.173658
H45   H     H_    0.665146 0.728271 0.613242 0.154806
H46   H     H_    0.220167 0.065907 0.381380 0.200150
H47   H     H_    0.341460 0.272894 0.384878 0.151635
H48   H     H_    0.058656 0.432688 0.246345 0.258620
H49   H     H_    0.108688 0.509560 0.321093 0.241367
H50   H     H_    0.989191 0.408858 0.346380 0.267314
N1    N     N_2   0.522447 0.495527 0.983622 -0.173603
N2    N     N_3   0.357734 0.718544 0.387496 -0.493354
N3    N     N_3   0.657385 0.114508 0.599298 -0.447560
N4    N     N_3   0.334327 0.884550 0.404121 -0.430711
N5    N     N_3   0.689797 0.889494 0.641271 -0.465493
N6    N     N_3   0.316213 0.108174 0.357845 -0.439385
N7    N     N_2   0.397048 0.481743 0.021294 -0.159933
N8    N     N_R   0.519180 0.718290 0.509780 -0.124720
N9    N     N_R   0.480820 0.281710 0.490220 -0.116295
N10   N     N_2   0.519899 0.979579 0.530299 -0.147911
N11   N     N_2   0.478587 0.020109 0.470652 -0.119246
N12   N     N_3   0.598809 0.384921 0.098393 -0.464574
N13   N     N_3   0.276512 0.563518 0.902579 -0.467091
N14   N     N_3   0.638914 0.281364 0.613641 -0.490607
O1    O     O_R   0.493140 0.422050 0.612640 -0.639673
O2    O     O_R   0.506860 0.577950 0.387360 -0.639748
O3    O     O_R   0.505450 0.562230 0.618920 -0.616931
O4    O     O_R   0.494550 0.437770 0.381080 -0.622243
O5    O     O_R   0.723530 0.446300 0.497600 -0.628468
O6    O     O_R   0.276470 0.553700 0.502400 -0.638920
O7    O     O_R   0.735850 0.586490 0.503880 -0.620724
O8    O     O_R   0.264150 0.413510 0.496120 -0.614544
Zn1   Zn    Zn3+2 0.491780 0.406400 0.495810 0.918944
Zn2   Zn    Zn3+2 0.508220 0.593600 0.504190 0.911964

loop_
_geom_bond_atom_site_label_1
_geom_bond_atom_site_label_2
_ccdc_geom_bond_type
C31   H20   S    
C12   O2    A    
H37   N2    S    
C3    H45   S    
C34   C37   A    
C24   H2    S    
C7    C8    D    
C28   H7    S    
C4    H47   S    
H15   N12   S    
C28   H6    S    
C25   H50   S    
O2    Zn2   S    
C31   H18   S    
O1    Zn1   S    
C19   C21   A    
H39   N3    S    
C30   C31   S    
C11   C14   A    
N8    Zn2   S    
H38   N3    S    
H44   N6    S    
C31   H19   S    
H46   N6    S    
C17   C19   A    
C2    C39   A    
H33   N14   S    
C22   H4    S    
O6    Zn2   S    
C18   C20   A    
C27   H10   S    
C33   H29   S    
C29   H24   S    
C6    O6    A    
C19   C32   S    
O8    Zn1   S    
C39   N11   S    
C32   H31   S    
C10   C21   A    
H17   N13   S    
C1    C9    S    
C24   C25   S    
C38   N10   S    
C12   O4    A    
C6    C8    S    
C5    O7    A    
C11   C26   S    
C21   H34   S    
C25   H48   S    
C34   N14   S    
O4    Zn1   S    
C2    C4    A    
O3    Zn2   S    
C29   C30   S    
C9    C20   A    
C35   H27   S    
H43   N5    S    
C23   N8    A    
C34   N9    A    
C26   C27   S    
C37   N3    S    
C18   C29   S    
N1    N7    D    
C9    C11   A    
C10   C12   S    
C33   H30   S    
C1    O3    A    
C29   H25   S    
H36   N2    S    
C3    C40   A    
C30   H22   S    
H35   N14   S    
C14   C16   A    
C4    N9    A    
C40   N5    S    
H40   N4    S    
C36   C38   A    
C26   H13   S    
C5    C7    S    
C15   C17   A    
C8    H12   S    
C28   H8    S    
H42   N5    S    
C6    O8    A    
H14   N12   S    
H16   N13   S    
C10   C13   A    
N9    Zn1   S    
O5    Zn1   S    
C25   H49   S    
C35   H26   S    
C32   C33   S    
C20   H23   S    
C13   C15   A    
C37   C39   A    
C26   H11   S    
C38   C40   A    
H41   N4    S    
C3    N8    A    
C14   N13   S    
C5    O5    A    
C35   H28   S    
C2    N6    S    
N10   N11   D    
C33   C35   S    
C13   C22   S    
O7    Zn2   S    
C22   C24   S    
C7    H1    S    
C15   N12   S    
C36   N4    S    
C22   H5    S    
C16   N1    S    
C16   C18   A    
C23   C36   A    
C30   H21   S    
C27   C28   S    
C24   H3    S    
C23   N2    S    
C17   N7    S    
C27   H9    S    
C1    O1    A    
C32   H32   S    
