data_mof_unit_39351.cif
_audit_creation_date              2012-12-10T17:19:03-0500
_audit_creation_method            fapswitch 2.2
_symmetry_space_group_name_H-M    P1
_symmetry_Int_Tables_number       1
_space_group_crystal_system       triclinic
_cell_length_a                    10.239118
_cell_length_b                    10.840014
_cell_length_c                    13.63387
_cell_angle_alpha                 91.956303
_cell_angle_beta                  100.15273
_cell_angle_gamma                 95.442967
_cell_volume                      1480.84277486

loop_
_atom_site_label
_atom_site_type_symbol
_atom_type_description
_atom_site_fract_x
_atom_site_fract_y
_atom_site_fract_z
_atom_type_partial_charge
C1    C     C_R   0.051734 0.731888 0.491225 0.945901
C2    C     C_2   0.999284 0.063551 0.470783 -0.148909
C3    C     C_2   0.430412 0.508876 0.509002 -0.034285
C4    C     C_2   0.569895 0.488289 0.493591 -0.035310
C5    C     C_R   0.093969 0.514560 0.685686 0.870844
C6    C     C_R   0.906836 0.488472 0.314246 0.864423
C7    C     C_R   0.149195 0.538790 0.791443 -0.062711
C8    C     C_R   0.859958 0.492896 0.207091 -0.059081
C9    C     C_R   0.148212 0.637091 0.953072 -0.206822
C10   C     C_R   0.884288 0.461075 0.035274 -0.211821
C11   C     C_R   0.082019 0.599633 0.856691 -0.217543
C12   C     C_R   0.946119 0.267722 0.503953 0.945707
C13   C     C_R   0.936518 0.459480 0.136757 -0.201702
C14   C     C_R   0.280267 0.513803 0.823437 -0.262622
C15   C     C_R   0.734870 0.533371 0.175701 -0.266241
C16   C     C_R   0.352150 0.560663 0.915541 0.093807
C17   C     C_R   0.681753 0.538698 0.074803 0.094662
C18   C     C_R   0.283093 0.618398 0.982836 0.174238
C19   C     C_R   0.756255 0.497617 0.003873 0.174071
C20   C     C_R   0.490008 0.548222 0.942880 0.071139
C21   C     C_R   0.551997 0.574430 0.043363 0.067431
C22   C     C_3   0.670208 0.655663 0.608827 -0.659335
C23   C     C_R   0.481729 0.634089 0.108980 -0.235581
C24   C     C_3   0.329171 0.351511 0.384907 -0.659783
C25   C     C_R   0.568203 0.512132 0.872825 -0.233056
C26   C     C_R   0.349846 0.657033 0.078434 -0.238898
C27   C     C_R   0.700247 0.489906 0.902942 -0.245498
C28   C     C_2   0.077529 0.862726 0.478324 -0.381638
C29   C     C_2   0.912072 0.135354 0.498372 -0.383856
C30   C     C_2   0.975969 0.931853 0.473832 -0.149079
H1    H     H_    0.299330 0.703216 0.130447 0.150238
H2    H     H_    0.530587 0.503068 0.793665 0.143675
H3    H     H_    0.093120 0.101786 0.451515 0.187529
H4    H     H_    0.875604 0.892420 0.478560 0.189547
H5    H     H_    0.818539 0.096662 0.517681 0.149676
H6    H     H_    0.177679 0.902638 0.473783 0.149475
H7    H     H_    0.582837 0.414298 0.441833 0.142637
H8    H     H_    0.417819 0.579830 0.563477 0.141306
H9    H     H_    0.772397 0.698858 0.639601 0.237337
H10   H     H_    0.612776 0.727668 0.570475 0.185692
H11   H     H_    0.624918 0.621519 0.672265 0.181349
H12   H     H_    0.756736 0.461491 0.847376 0.153788
H13   H     H_    0.226664 0.311248 0.351668 0.232433
H14   H     H_    0.376025 0.392463 0.324247 0.188171
H15   H     H_    0.384857 0.275426 0.418189 0.183456
H16   H     H_    0.676682 0.554632 0.231415 0.161078
H17   H     H_    0.325282 0.457474 0.774603 0.158794
H18   H     H_    0.034568 0.429259 0.160028 0.161183
H19   H     H_    0.980084 0.620034 0.832854 0.159387
H20   H     H_    0.095047 0.682807 0.003504 0.149502
H21   H     H_    0.942218 0.430441 0.981498 0.153874
H22   H     H_    0.527706 0.667949 0.183578 0.149241
N1    N     N_2   0.322180 0.446120 0.460900 -0.048404
N2    N     N_2   0.677820 0.553880 0.539100 -0.051386
O1    O     O_R   0.935190 0.693030 0.507870 -0.608818
O2    O     O_R   0.064810 0.306970 0.492130 -0.605523
O3    O     O_R   0.142080 0.658430 0.482770 -0.612313
O4    O     O_R   0.857920 0.341570 0.517230 -0.613090
O5    O     O_R   0.969700 0.527180 0.651960 -0.610852
O6    O     O_R   0.030300 0.472820 0.348040 -0.612138
O7    O     O_R   0.176600 0.492580 0.626860 -0.616367
O8    O     O_R   0.823400 0.507420 0.373140 -0.619884
Zn1   Zn    Zn3+2 0.861850 0.523100 0.516760 0.938417
Zn2   Zn    Zn3+2 0.138150 0.476900 0.483240 0.942540

loop_
_geom_bond_atom_site_label_1
_geom_bond_atom_site_label_2
_ccdc_geom_bond_type
O7    Zn2   S    
O2    Zn2   S    
C8    C13   A    
C11   H19   S    
C1    O3    A    
C12   C29   S    
C1    C28   S    
C19   C27   A    
C29   H5    S    
O5    Zn1   S    
C13   H18   S    
C18   C26   A    
C2    C30   S    
C10   C19   A    
C16   C20   A    
C30   H4    S    
C22   H10   S    
C6    O8    A    
C25   H2    S    
C28   C30   D    
C1    O1    A    
C12   O4    A    
C26   H1    S    
C22   N2    S    
C4    H7    S    
C7    C11   A    
C3    N1    D    
C27   H12   S    
C23   H22   S    
C12   O2    A    
C2    C29   D    
C24   H15   S    
C2    H3    S    
C17   C19   A    
O6    Zn2   S    
C8    C15   A    
C5    C7    S    
C9    C11   A    
C21   C23   A    
C24   H14   S    
N1    Zn2   S    
C14   C16   A    
C22   H11   S    
C25   C27   A    
C20   C25   A    
C22   H9    S    
C5    O7    A    
C3    C4    S    
C6    O6    A    
C9    C18   A    
C10   H21   S    
C20   C21   A    
C28   H6    S    
O3    Zn2   S    
C16   C18   A    
N2    Zn1   S    
C23   C26   A    
O4    Zn1   S    
C15   C17   A    
C24   H13   S    
C5    O5    A    
C6    C8    S    
C15   H16   S    
C4    N2    D    
C24   N1    S    
C14   H17   S    
C7    C14   A    
C17   C21   A    
C9    H20   S    
C3    H8    S    
O8    Zn1   S    
C10   C13   A    
O1    Zn1   S    
