data_mof_unit_64744.cif
_audit_creation_date              2012-12-10T19:36:42-0500
_audit_creation_method            fapswitch 2.2
_symmetry_space_group_name_H-M    P1
_symmetry_Int_Tables_number       1
_space_group_crystal_system       triclinic
_cell_length_a                    11.71807
_cell_length_b                    15.806389
_cell_length_c                    17.038351
_cell_angle_alpha                 96.164907
_cell_angle_beta                  90.391471
_cell_angle_gamma                 92.405895
_cell_volume                      3134.62916905

loop_
_atom_site_label
_atom_site_type_symbol
_atom_type_description
_atom_site_fract_x
_atom_site_fract_y
_atom_site_fract_z
_atom_type_partial_charge
C1    C     C_R   0.497368 0.489743 0.348271 0.922579
C2    C     C_R   0.502636 0.510257 0.651730 0.922520
C3    C     C_R   0.518579 0.409914 0.214701 0.570585
C4    C     C_R   0.481531 0.590104 0.785305 0.570629
C5    C     C_R   0.444664 0.751875 0.461518 -0.024535
C6    C     C_R   0.555334 0.248125 0.538483 -0.024474
C7    C     C_R   0.448140 0.841182 0.463907 -0.281657
C8    C     C_R   0.551859 0.158818 0.536093 -0.281643
C9    C     C_R   0.523674 0.891322 0.516633 0.223788
C10   C     C_R   0.476326 0.108678 0.483367 0.223786
C11   C     C_R   0.593644 0.848594 0.565552 0.200035
C12   C     C_R   0.406358 0.151406 0.434447 0.200038
C13   C     C_R   0.587348 0.759015 0.561108 0.765794
C14   C     C_R   0.412653 0.240985 0.438891 0.765760
C15   C     C_R   0.283789 0.500178 0.499948 0.819316
C16   C     C_R   0.716211 0.499822 0.500052 0.819308
C17   C     C_1   0.162228 0.500435 0.499963 -0.096584
C18   C     C_1   0.837772 0.499565 0.500036 -0.096588
C19   C     C_1   0.059846 0.500220 0.499984 0.055804
C20   C     C_1   0.940154 0.499780 0.500015 0.055802
C21   C     C_R   0.489744 0.484557 0.261643 -0.371329
C22   C     C_R   0.510272 0.515441 0.738360 -0.371346
C23   C     C_R   0.450446 0.553844 0.225037 0.488096
C24   C     C_R   0.549492 0.446128 0.774964 0.488099
C25   C     C_R   0.442717 0.549378 0.142899 0.317821
C26   C     C_R   0.557227 0.450587 0.857103 0.317831
C27   C     C_R   0.476422 0.475515 0.096394 0.120549
C28   C     C_R   0.523609 0.524474 0.903612 0.120552
C29   C     C_R   0.511189 0.405720 0.132784 -0.248363
C30   C     C_R   0.488931 0.594293 0.867224 -0.248405
Cu1   Cu    Cu3+1 0.494550 0.415220 0.496180 1.083909
Cu2   Cu    Cu3+1 0.505450 0.584780 0.503820 1.083895
H1    H     H_    0.535314 0.348438 0.097177 0.245217
H2    H     H_    0.464877 0.651592 0.902834 0.245202
H3    H     H_    0.613683 0.285790 0.579002 0.226954
H4    H     H_    0.386314 0.714210 0.420999 0.226973
H5    H     H_    0.607909 0.129739 0.575188 0.234421
H6    H     H_    0.392089 0.870261 0.424813 0.234423
N1    N     N_2   0.475214 0.468912 0.013088 -0.104332
N2    N     N_2   0.524817 0.531076 0.986919 -0.104393
N3    N     N_R   0.513630 0.712130 0.509560 -0.263008
N4    N     N_R   0.486370 0.287870 0.490440 -0.263001
N5    N     N_2   0.532262 0.983008 0.522610 -0.133782
N6    N     N_2   0.467738 0.016992 0.477390 -0.133783
O1    O     O_R   0.494910 0.420530 0.382500 -0.489736
O2    O     O_R   0.505090 0.579470 0.617500 -0.489725
O3    O     O_R   0.504100 0.563720 0.388950 -0.554708
O4    O     O_R   0.495900 0.436280 0.611050 -0.554677
O5    O     O_R   0.332600 0.428410 0.496780 -0.539444
O6    O     O_R   0.667400 0.571590 0.503220 -0.539449
O7    O     O_R   0.341800 0.571600 0.503230 -0.584915
O8    O     O_R   0.658200 0.428400 0.496770 -0.584916
F1    F     F_    0.583462 0.374853 0.731130 -0.597084
F2    F     F_    0.416391 0.625094 0.268869 -0.597096
Cl1   Cl    Cl    0.614740 0.364502 0.899660 -0.416786
Cl2   Cl    Cl    0.385100 0.635420 0.100330 -0.416765
F3    F     F_    0.556367 0.341606 0.247640 -0.579820
F4    F     F_    0.443831 0.658440 0.752371 -0.579777
Cl3   Cl    Cl    0.689914 0.906527 0.632923 -0.409633
Cl4   Cl    Cl    0.310091 0.093473 0.367073 -0.409645
F5    F     F_    0.655417 0.718928 0.608668 -0.579130
F6    F     F_    0.344585 0.281072 0.391331 -0.579158

loop_
_geom_bond_atom_site_label_1
_geom_bond_atom_site_label_2
_ccdc_geom_bond_type
C2    C22   S    
N5    N6    D    
Cu2   O7    S    
C1    C21   S    
Cu1   N4    S    
C15   O7    A    
C27   C29   A    
C4    C22   A    
C26   C28   A    
C19   C20   S    
C25   Cl2   S    
Cu1   O8    S    
C14   N4    A    
C30   H2    S    
Cu2   O6    S    
C26   Cl1   S    
C28   C30   A    
C9    N5    S    
C16   C18   S    
C2    O2    A    
C15   O5    A    
C11   C13   A    
C1    O1    A    
C16   O8    A    
C10   C12   A    
Cu1   O5    S    
C11   Cl3   S    
C3    F3    S    
C13   N3    A    
C17   C19   T    
C7    H6    S    
C24   C26   A    
C18   C20   T    
Cu1   O4    S    
C9    C11   A    
C21   C23   A    
Cu1   O1    S    
C16   O6    A    
Cu2   O3    S    
C22   C24   A    
C27   N1    S    
C3    C21   A    
C25   C27   A    
C8    H5    S    
C28   N2    S    
Cu2   N3    S    
C10   N6    S    
C14   F6    S    
C5    H4    S    
C7    C9    A    
C23   C25   A    
C13   F5    S    
C6    H3    S    
C23   F2    S    
C8    C10   A    
C6    N4    A    
C4    F4    S    
N1    N2    D    
C5    C7    A    
C5    N3    A    
C1    O3    A    
C3    C29   A    
C6    C8    A    
C2    O4    A    
C24   F1    S    
C15   C17   S    
Cu2   O2    S    
C4    C30   A    
Cu1   Cu2   S    
C29   H1    S    
C12   C14   A    
C12   Cl4   S    
