data_mof_unit_46480.cif
_audit_creation_date              2012-12-11T14:06:53-0500
_audit_creation_method            fapswitch 2.2
_symmetry_space_group_name_H-M    P1
_symmetry_Int_Tables_number       1
_space_group_crystal_system       triclinic
_cell_length_a                    6.910296
_cell_length_b                    17.370241
_cell_length_c                    24.084985
_cell_angle_alpha                 104.467842
_cell_angle_beta                  90.314137
_cell_angle_gamma                 89.889197
_cell_volume                      2799.28315559

loop_
_atom_site_label
_atom_site_type_symbol
_atom_type_description
_atom_site_fract_x
_atom_site_fract_y
_atom_site_fract_z
_atom_type_partial_charge
O1    O     O_R   0.494290 0.391990 0.999150 -0.534422
O2    O     O_R   0.827170 0.534410 0.082350 -0.555662
O3    O     O_R   0.994360 0.608010 0.000850 -0.555336
C1    C     C_R   0.658577 0.550896 0.105994 0.759949
O4    O     O_R   0.824210 0.388010 0.004470 -0.507153
O5    O     O_R   0.991370 0.460560 0.922410 -0.527400
C2    C     C_R   0.654398 0.354914 0.001426 0.703217
O6    O     O_R   0.497270 0.539440 0.077590 -0.547387
O7    O     O_3   0.659770 0.523970 0.973170 -0.364951
V1    V     V_3+5 0.935840 0.495550 0.004980 1.580671
O8    O     O_R   0.320910 0.465590 0.917650 -0.550488
C3    C     C_R   0.152308 0.448192 0.894362 0.793436
O9    O     O_R   0.323870 0.611990 0.995530 -0.510795
C4    C     C_R   0.153521 0.644713 0.997785 0.760178
V2    V     V_3+5 0.435470 0.504450 0.995020 1.579937
O10   O     O_3   0.161670 0.476030 0.026830 -0.364171
C5    C     C_2   0.133707 0.725567 0.988421 -0.263578
C6    C     C_2   0.981779 0.774443 0.011638 -0.255553
C7    C     C_R   0.129647 0.231212 0.626687 0.656349
N1    N     N_R   0.065940 0.307252 0.652150 -0.515796
C8    C     C_R   0.923559 0.336671 0.622574 0.597735
C9    C     C_R   0.903233 0.307865 0.562684 -0.032918
C10   C     C_R   0.015027 0.242318 0.533951 -0.009026
C11   C     C_R   0.132321 0.202624 0.566093 -0.119962
C12   C     C_R   0.774732 0.343535 0.531051 -0.111224
C13   C     C_R   0.762414 0.316335 0.471427 -0.101358
C14   C     C_R   0.875938 0.251948 0.442044 -0.040155
C15   C     C_R   0.999956 0.213918 0.473561 -0.007759
C16   C     C_R   0.107050 0.147153 0.444794 -0.075289
C17   C     C_R   0.225613 0.108142 0.476636 -0.068923
C18   C     C_R   0.241350 0.135000 0.536713 -0.035980
C19   C     C_R   0.869295 0.224688 0.381797 0.665274
N2    N     N_R   0.980832 0.161468 0.354118 -0.531458
C20   C     C_R   0.095281 0.121628 0.384463 0.640321
O11   O     O_2   0.169849 0.180422 0.659237 -0.508788
O12   O     O_2   0.793929 0.390197 0.650779 -0.500446
H1    H     H_    0.686180 0.393752 0.552130 0.186850
H2    H     H_    0.664234 0.346168 0.448443 0.198266
O13   O     O_2   0.754695 0.261823 0.351114 -0.492642
O14   O     O_2   0.198756 0.058002 0.356314 -0.503195
H3    H     H_    0.311210 0.057576 0.454403 0.214320
C21   C     C_R   0.826728 0.091283 0.263838 -0.188151
H4    H     H_    0.709110 0.075915 0.288608 0.167140
C22   C     C_R   0.823737 0.063342 0.204265 0.577527
C23   C     C_R   0.975317 0.081156 0.170455 -0.223639
C24   C     C_R   0.131652 0.129376 0.198694 -0.159197
C25   C     C_R   0.134583 0.157154 0.259647 -0.036538
C26   C     C_R   0.980320 0.137311 0.292074 0.267235
C27   C     C_R   0.081181 0.432016 0.735540 -0.176271
C28   C     C_R   0.078995 0.461104 0.795864 0.624882
C29   C     C_R   0.145703 0.413918 0.831468 -0.274618
C30   C     C_R   0.233623 0.339894 0.806278 -0.223386
C31   C     C_R   0.250473 0.315457 0.745746 0.065966
C32   C     C_R   0.127796 0.350521 0.711005 0.150313
C33   C     C_R   0.652550 0.862924 0.619068 0.745791
N3    N     N_R   0.503208 0.837858 0.647485 -0.530340
C34   C     C_R   0.370834 0.783685 0.618292 0.815663
C35   C     C_R   0.387188 0.751822 0.558409 -0.297489
C36   C     C_R   0.544203 0.775284 0.529068 -0.056983
C37   C     C_R   0.677323 0.831352 0.559645 0.000757
C38   C     C_R   0.253094 0.696299 0.527350 0.568533
C39   C     C_R   0.276638 0.663544 0.468675 0.565483
C40   C     C_R   0.434192 0.685780 0.439036 -0.306817
C41   C     C_R   0.568290 0.742511 0.469237 -0.052270
C42   C     C_R   0.726038 0.766238 0.439810 -0.040654
C43   C     C_R   0.865361 0.820228 0.472035 -0.044476
C44   C     C_R   0.835816 0.853154 0.530886 -0.045437
C45   C     C_R   0.460871 0.652855 0.379865 0.819375
N4    N     N_R   0.605998 0.679509 0.350934 -0.534519
C46   C     C_R   0.733400 0.736663 0.379151 0.690967
O15   O     O_2   0.777321 0.918276 0.648254 -0.450170
O16   O     O_2   0.226159 0.759592 0.647336 -0.393364
O17   O     O_2   0.342753 0.594391 0.351255 -0.394819
O18   O     O_2   0.860798 0.766779 0.348038 -0.483702
H5    H     H_    0.942457 0.894042 0.554967 0.202682
C47   C     C_R   0.468510 0.657602 0.252891 0.653197
C48   C     C_R   0.480835 0.625358 0.193651 -0.255761
H6    H     H_    0.360078 0.633560 0.166832 0.168662
C49   C     C_R   0.647692 0.584252 0.169139 -0.229809
C50   C     C_R   0.802448 0.576193 0.205464 -0.265834
H7    H     H_    0.932721 0.544830 0.187915 0.186551
C51   C     C_R   0.788966 0.607087 0.265011 0.695447
C52   C     C_R   0.621620 0.648127 0.289346 0.078408
C53   C     C_R   0.638858 0.848443 0.744428 0.596868
C54   C     C_R   0.628476 0.875438 0.804213 0.525591
C55   C     C_R   0.467589 0.919916 0.830402 -0.363527
C56   C     C_R   0.318046 0.936421 0.795164 -0.296840
H8    H     H_    0.193137 0.970768 0.813955 0.219907
C57   C     C_R   0.330053 0.910455 0.735257 0.692383
C58   C     C_R   0.490658 0.866088 0.709315 -0.020190
C59   C     C_2   0.643163 0.270030 0.001941 0.309076
C60   C     C_2   0.472256 0.229922 0.997919 0.327958
O19   O     O_R   0.618210 0.960470 0.922400 -0.513228
O20   O     O_R   0.291310 0.111960 0.995450 -0.511131
O21   O     O_R   0.124210 0.039530 0.077580 -0.564666
C61   C     C_R   0.461095 0.145052 0.998465 0.709546
O22   O     O_R   0.288310 0.965490 0.917650 -0.552084
O23   O     O_R   0.121180 0.892010 0.999220 -0.571897
C62   C     C_R   0.457003 0.949728 0.893913 0.815029
O24   O     O_R   0.621230 0.107990 0.000760 -0.533448
O25   O     O_3   0.455770 0.976060 0.026840 -0.379128
V3    V     V_3+5 0.179680 0.004440 0.995020 1.595696
O26   O     O_R   0.791670 0.888040 0.004570 -0.499572
C63   C     C_R   0.962006 0.855305 0.002285 0.774518
O27   O     O_R   0.794680 0.034510 0.082370 -0.509347
C64   C     C_R   0.964187 0.050770 0.106321 0.768199
V4    V     V_3+5 0.680070 0.995560 0.005010 1.673898
O28   O     O_3   0.953840 0.023940 0.973160 -0.354059
C65   C     C_2   0.265065 0.745244 0.944773 0.526941
H9    H     H_    0.218307 0.785104 0.919115 0.062199
O29   O     O_2   0.426160 0.715826 0.936113 -0.490169
C66   C     C_2   0.301761 0.205127 0.288949 0.553362
H10   H     H_    0.441302 0.200932 0.267989 0.079084
O30   O     O_2   0.285638 0.250865 0.336246 -0.496864
C67   C     C_2   0.075294 0.489855 0.699213 0.682987
H11   H     H_    0.129813 0.472710 0.655676 0.019523
O31   O     O_2   0.011256 0.556990 0.717196 -0.416788
F1    F     F_    0.023512 0.537149 0.820208 -0.620660
C68   C     C_2   0.308877 0.288912 0.843033 0.400524
H12   H     H_    0.340526 0.313759 0.888034 0.082254
O32   O     O_2   0.328318 0.217304 0.823896 -0.509558
C69   C     C_2   0.436014 0.276974 0.722094 0.493427
H13   H     H_    0.524265 0.244887 0.746110 0.100978
O33   O     O_2   0.498337 0.284480 0.676396 -0.529611
F2    F     F_    0.097438 0.673156 0.553334 -0.574866
F3    F     F_    0.141648 0.610777 0.441030 -0.559985
C70   C     C_2   0.051147 0.839200 0.447586 0.447402
H14   H     H_    0.121236 0.796131 0.413214 0.128732
O34   O     O_2   0.132141 0.902714 0.467105 -0.501053
F4    F     F_    0.307336 0.698643 0.274786 -0.604715
C71   C     C_2   0.850299 0.754743 0.055252 0.475835
H15   H     H_    0.896962 0.714864 0.080906 0.027549
O35   O     O_2   0.689200 0.784164 0.063890 -0.500604
F5    F     F_    0.937932 0.595977 0.299108 -0.556725
F6    F     F_    0.793048 0.804034 0.720547 -0.535770
F7    F     F_    0.774342 0.856379 0.836386 -0.619231
F8    F     F_    0.186174 0.929372 0.702450 -0.573502
F9    F     F_    0.813692 0.232631 0.006520 -0.641405
F10   F     F_    0.301677 0.267336 0.993444 -0.648647
C72   C     C_2   0.386466 0.095569 0.566220 0.504148
H16   H     H_    0.452328 0.127253 0.606313 0.113423
O36   O     O_2   0.438054 0.027234 0.545207 -0.502074
F11   F     F_    0.672511 0.017070 0.179878 -0.674140
C73   C     C_2   0.287559 0.154609 0.164947 0.401017
H17   H     H_    0.380083 0.110903 0.137455 0.100648
O37   O     O_2   0.314582 0.225055 0.168261 -0.508238

loop_
_geom_bond_atom_site_label_1
_geom_bond_atom_site_label_2
_ccdc_geom_bond_type
O25   V4    S    
C33   N3    A    
C53   F6    S    
O25   V3    S    
C7    N1    A    
C1    O6    A    
C66   O30   D    
V1    O10   S    
C8    O12   S    
C48   H6    S    
C23   C64   S    
O27   V4    S    
C13   C14   A    
C16   C17   A    
C53   C58   A    
C20   O14   S    
C15   C16   A    
C72   O36   D    
C31   C69   S    
C65   O29   D    
O5    C3    A    
C17   C18   A    
V2    O10   S    
C60   C61   S    
C43   C70   S    
C19   O13   S    
C12   H1    S    
C40   C45   A    
C47   F4    S    
C53   C54   A    
C37   C44   A    
C45   N4    A    
C67   O31   D    
C9    C12   A    
C46   O18   S    
V4    O28   S    
C18   C72   S    
C17   H3    S    
V3    O28   S    
O1    V2    S    
O7    V1    S    
O19   C62   A    
O22   V3    S    
O21   V3    S    
C33   C37   A    
C35   C38   A    
C68   O32   D    
C43   C44   A    
C36   C37   A    
C27   C32   A    
O1    C2    A    
O9    C4    A    
C4    C5    S    
C6    C71   S    
N4    C46   A    
C21   C22   A    
C47   C52   A    
C66   H10   S    
O22   C62   A    
C28   C29   A    
C48   C49   A    
C29   C30   A    
C47   C48   A    
C1    C49   S    
C73   O37   D    
C57   C58   A    
C59   C60   D    
O4    C2    A    
C55   C56   A    
C13   H2    S    
C24   C73   S    
C12   C13   A    
C54   C55   A    
C16   C20   A    
C49   C50   A    
C51   F5    S    
C21   C26   A    
O2    C1    A    
C70   O34   D    
C39   C40   A    
N4    C52   S    
O21   C64   A    
O23   V3    S    
C59   F9    S    
C25   C26   A    
C10   C11   A    
C2    C59   S    
C5    C6    D    
C36   C41   A    
C6    C63   S    
C10   C15   A    
C72   H16   S    
O20   C61   A    
C55   C62   S    
O3    C4    A    
N1    C32   S    
C27   C67   S    
C27   C28   A    
O6    V2    S    
O8    V2    S    
C56   C57   A    
C35   C36   A    
C44   H5    S    
C21   H4    S    
C69   O33   D    
C71   H15   S    
O2    V1    S    
O26   C63   A    
C3    C29   S    
C30   C31   A    
C39   F3    S    
N3    C34   A    
C24   C25   A    
O24   V4    S    
C14   C19   A    
C28   F1    S    
C22   C23   A    
C50   H7    S    
C71   O35   D    
C5    C65   S    
O5    V1    S    
C38   F2    S    
C68   H12   S    
C31   C32   A    
C70   H14   S    
O27   C64   A    
C57   F8    S    
C73   H17   S    
C19   N2    A    
O9    V2    S    
C7    C11   A    
C45   O17   S    
C11   C18   A    
O4    V1    S    
O3    V1    S    
C7    O11   S    
C65   H9    S    
C41   C42   A    
C34   C35   A    
C22   F11   S    
O23   C63   A    
C61   O24   A    
N3    C58   S    
C50   C51   A    
N2    C20   A    
C42   C43   A    
C34   O16   S    
O7    V2    S    
C38   C39   A    
C33   O15   S    
C54   F7    S    
C40   C41   A    
C30   C68   S    
C23   C24   A    
N1    C8    A    
O20   V3    S    
C56   H8    S    
C51   C52   A    
C14   C15   A    
C69   H13   S    
N2    C26   S    
C9    C10   A    
O26   V4    S    
C67   H11   S    
C42   C46   A    
C8    C9    A    
C60   F10   S    
O19   V4    S    
C25   C66   S    
O8    C3    A    
