data_mof_unit_17182.cif
_audit_creation_date              2012-12-11T14:06:52-0500
_audit_creation_method            fapswitch 2.2
_symmetry_space_group_name_H-M    P1
_symmetry_Int_Tables_number       1
_space_group_crystal_system       triclinic
_cell_length_a                    6.92186
_cell_length_b                    17.289124
_cell_length_c                    24.146249
_cell_angle_alpha                 104.462137
_cell_angle_beta                  90.655211
_cell_angle_gamma                 89.961381
_cell_volume                      2797.89677324

loop_
_atom_site_label
_atom_site_type_symbol
_atom_type_description
_atom_site_fract_x
_atom_site_fract_y
_atom_site_fract_z
_atom_type_partial_charge
O1    O     O_R   0.494290 0.391990 0.999150 -0.532908
O2    O     O_R   0.827170 0.534410 0.082350 -0.545115
O3    O     O_R   0.994360 0.608010 0.000850 -0.536385
C1    C     C_R   0.659084 0.550110 0.105985 0.706162
O4    O     O_R   0.824210 0.388010 0.004470 -0.546503
O5    O     O_R   0.991370 0.460560 0.922410 -0.536298
C2    C     C_R   0.654526 0.354924 0.001663 0.811831
O6    O     O_R   0.497270 0.539440 0.077590 -0.541247
O7    O     O_3   0.659770 0.523970 0.973170 -0.368936
V1    V     V_3+5 0.935840 0.495550 0.004980 1.431096
O8    O     O_R   0.320910 0.465590 0.917650 -0.532743
C3    C     C_R   0.150775 0.448656 0.894020 0.716214
O9    O     O_R   0.323870 0.611990 0.995530 -0.550117
C4    C     C_R   0.154376 0.645099 0.998433 0.767220
V2    V     V_3+5 0.435470 0.504450 0.995020 1.436892
O10   O     O_3   0.161670 0.476030 0.026830 -0.374838
C5    C     C_2   0.142747 0.730199 0.997870 -0.347065
H1    H     H_    0.277114 0.760977 0.994328 0.149184
C6    C     C_2   0.972795 0.769745 0.001907 -0.340143
H2    H     H_    0.838414 0.738954 0.005399 0.149864
C7    C     C_R   0.176552 0.257685 0.623542 0.578226
N1    N     N_R   0.113326 0.333482 0.648066 -0.561402
C8    C     C_R   0.034572 0.380228 0.615444 0.579815
C9    C     C_R   0.013256 0.350445 0.555741 -0.032738
C10   C     C_R   0.073430 0.272154 0.530007 -0.015439
C11   C     C_R   0.156432 0.225280 0.564188 -0.032935
C12   C     C_R   0.928441 0.396367 0.521691 -0.195701
C13   C     C_R   0.904601 0.365981 0.462508 -0.061630
C14   C     C_R   0.968122 0.287330 0.435549 -0.064610
C15   C     C_R   0.049213 0.240294 0.470181 -0.018711
C16   C     C_R   0.105117 0.160929 0.445318 -0.027262
C17   C     C_R   0.187460 0.114874 0.479926 -0.142392
C18   C     C_R   0.213807 0.146765 0.538528 -0.138675
C19   C     C_R   0.955814 0.253697 0.375464 0.571471
N2    N     N_R   0.008383 0.175705 0.352127 -0.552677
C20   C     C_R   0.077450 0.129014 0.386307 0.581684
O11   O     O_2   0.255705 0.213383 0.656639 -0.509145
O12   O     O_2   0.974389 0.454761 0.640790 -0.511877
H3    H     H_    0.877809 0.456206 0.541274 0.180354
O13   O     O_2   0.896880 0.298982 0.340443 -0.516698
O14   O     O_2   0.118593 0.051385 0.363322 -0.503395
H4    H     H_    0.233352 0.054040 0.461788 0.187498
H5    H     H_    0.277762 0.109370 0.563705 0.181773
C21   C     C_R   0.159564 0.105963 0.260770 -0.077855
H6    H     H_    0.292578 0.103330 0.284326 0.135022
C22   C     C_R   0.152047 0.071913 0.201440 0.097336
C23   C     C_R   0.980118 0.078834 0.169953 -0.065175
C24   C     C_R   0.819182 0.116694 0.200264 -0.249091
H7    H     H_    0.687204 0.124061 0.177807 0.139226
C25   C     C_R   0.826453 0.146869 0.259702 -0.082887
H8    H     H_    0.698512 0.174127 0.281643 0.144281
C26   C     C_R   0.997620 0.142854 0.290569 0.331100
C27   C     C_R   0.274671 0.407354 0.736558 -0.138889
H9    H     H_    0.390693 0.421743 0.711101 0.134522
C28   C     C_R   0.284793 0.434099 0.796097 -0.200378
H10   H     H_    0.408923 0.469239 0.815302 0.145232
C29   C     C_R   0.136224 0.417017 0.830487 -0.120810
C30   C     C_R   0.975852 0.370509 0.803357 -0.086371
C31   C     C_R   0.965680 0.343394 0.742899 0.110939
C32   C     C_R   0.116985 0.362119 0.709577 0.389311
C33   C     C_R   0.612370 0.871107 0.614946 0.612067
N3    N     N_R   0.506252 0.831608 0.647360 -0.527517
C34   C     C_R   0.366683 0.780629 0.617396 0.599197
C35   C     C_R   0.394272 0.739348 0.559008 -0.120138
C36   C     C_R   0.537490 0.768045 0.528331 -0.013785
C37   C     C_R   0.643478 0.836310 0.556413 -0.017320
C38   C     C_R   0.284995 0.671051 0.531081 -0.056137
C39   C     C_R   0.319185 0.631880 0.472751 0.089234
C40   C     C_R   0.455261 0.665057 0.440557 -0.033242
C41   C     C_R   0.563882 0.733466 0.468964 -0.042265
C42   C     C_R   0.697266 0.768669 0.438006 -0.058046
C43   C     C_R   0.808050 0.835816 0.467867 -0.070033
C44   C     C_R   0.777685 0.869250 0.525925 -0.172554
C45   C     C_R   0.486556 0.633303 0.380726 0.595747
N4    N     N_R   0.609722 0.669972 0.351311 -0.556138
C46   C     C_R   0.711173 0.736698 0.378167 0.576633
O15   O     O_2   0.671045 0.946951 0.636694 -0.516230
O16   O     O_2   0.196145 0.774614 0.642293 -0.514442
O17   O     O_2   0.393859 0.567041 0.351316 -0.529215
O18   O     O_2   0.821248 0.772852 0.346366 -0.497484
H11   H     H_    0.863142 0.920684 0.547748 0.169087
C47   C     C_R   0.481842 0.658952 0.253235 -0.050926
C48   C     C_R   0.493052 0.628792 0.193825 -0.232315
H12   H     H_    0.380897 0.643866 0.166604 0.135711
C49   C     C_R   0.649681 0.581309 0.169186 -0.089163
C50   C     C_R   0.795529 0.564166 0.205268 -0.183107
H13   H     H_    0.916930 0.527512 0.186735 0.132593
C51   C     C_R   0.783458 0.592197 0.265209 0.169229
C52   C     C_R   0.625047 0.639975 0.289675 0.352702
C53   C     C_R   0.414546 0.805934 0.743874 0.187501
C54   C     C_R   0.370947 0.841532 0.802370 0.122535
C55   C     C_R   0.468399 0.912724 0.831281 -0.084425
C56   C     C_R   0.614776 0.941526 0.802130 -0.277493
H14   H     H_    0.711504 0.987774 0.825839 0.150033
C57   C     C_R   0.649533 0.907825 0.744125 -0.049419
C58   C     C_R   0.519454 0.850156 0.711057 0.255309
C59   C     C_2   0.642929 0.269736 0.002000 -0.330259
H15   H     H_    0.777621 0.238837 0.005374 0.146964
C60   C     C_2   0.472582 0.230267 0.997986 -0.332431
H16   H     H_    0.337901 0.261164 0.994592 0.149673
O19   O     O_R   0.618210 0.960470 0.922400 -0.539558
O20   O     O_R   0.291310 0.111960 0.995450 -0.544205
O21   O     O_R   0.124210 0.039530 0.077580 -0.538734
C61   C     C_R   0.460965 0.145105 0.998412 0.775571
O22   O     O_R   0.288310 0.965490 0.917650 -0.538572
O23   O     O_R   0.121180 0.892010 0.999220 -0.539760
C62   C     C_R   0.456160 0.947274 0.894283 0.727342
O24   O     O_R   0.621230 0.107990 0.000760 -0.535489
O25   O     O_3   0.455770 0.976060 0.026840 -0.375565
V3    V     V_3+5 0.179680 0.004440 0.995020 1.410366
O26   O     O_R   0.791670 0.888040 0.004570 -0.545115
C63   C     C_R   0.961151 0.854888 0.001510 0.769595
O27   O     O_R   0.794680 0.034510 0.082370 -0.544737
C64   C     C_R   0.965382 0.048738 0.106251 0.712168
V4    V     V_3+5 0.680070 0.995560 0.005010 1.404621
O28   O     O_3   0.953840 0.023940 0.973160 -0.366749
C65   C     C_1   0.822878 0.347907 0.836777 0.324257
N5    N     N_1   0.700053 0.329625 0.863089 -0.354377
C66   C     C_3   0.793523 0.294395 0.714613 -0.665149
H17   H     H_    0.797390 0.279222 0.667273 0.208307
H18   H     H_    0.787576 0.237601 0.728127 0.228299
H19   H     H_    0.658538 0.328337 0.727696 0.203541
C67   C     C_1   0.143968 0.638224 0.563095 0.385360
N6    N     N_1   0.031501 0.612126 0.588626 -0.308796
C68   C     C_3   0.210550 0.554959 0.445615 -0.646133
H20   H     H_    0.314598 0.506140 0.428696 0.251812
H21   H     H_    0.118356 0.532425 0.475254 0.173238
H22   H     H_    0.113062 0.564513 0.411257 0.228988
C69   C     C_1   0.959500 0.871206 0.441456 0.411485
N7    N     N_1   0.081288 0.899450 0.420488 -0.272691
C70   C     C_1   0.325231 0.711743 0.276229 0.326355
N8    N     N_1   0.200283 0.754562 0.294633 -0.251672
C71   C     C_3   0.937888 0.570069 0.302671 -0.679833
H23   H     H_    0.008509 0.624756 0.328984 0.228181
H24   H     H_    0.872155 0.536457 0.331255 0.233520
H25   H     H_    0.051047 0.532049 0.277139 0.222811
C72   C     C_3   0.391909 0.715964 0.722542 -0.665682
H26   H     H_    0.236952 0.698742 0.718194 0.250141
H27   H     H_    0.466865 0.691374 0.681619 0.203449
H28   H     H_    0.461801 0.686272 0.753323 0.180957
C73   C     C_3   0.234618 0.798294 0.833349 -0.782662
H29   H     H_    0.200671 0.831508 0.877360 0.212148
H30   H     H_    0.095431 0.786659 0.809369 0.220392
H31   H     H_    0.298117 0.740641 0.836556 0.199958
C74   C     C_1   0.843678 0.918050 0.725637 0.417953
N9    N     N_1   0.999766 0.926350 0.711360 -0.273533
C75   C     C_1   0.806423 0.416807 0.431972 0.387378
N10   N     N_1   0.727156 0.457768 0.407874 -0.333092
C76   C     C_3   0.327080 0.026794 0.173947 -0.702935
H32   H     H_    0.284573 0.965654 0.149753 0.208806
H33   H     H_    0.395297 0.059000 0.144900 0.210907
H34   H     H_    0.437916 0.020508 0.206174 0.199793

loop_
_geom_bond_atom_site_label_1
_geom_bond_atom_site_label_2
_ccdc_geom_bond_type
O19   C62   A    
C23   C64   S    
C28   H10   S    
C56   H14   S    
N3    C58   S    
C27   C28   A    
C57   C58   A    
C57   C74   S    
C9    C12   A    
C1    O6    A    
C59   H15   S    
C53   C54   A    
C67   N6    T    
O23   C63   A    
C27   H9    S    
C72   H27   S    
C14   C15   A    
C47   C52   A    
O21   V3    S    
C19   O13   S    
O24   V4    S    
C7    N1    A    
C13   C14   A    
O22   V3    S    
C51   C71   S    
C69   N7    T    
C73   H30   S    
N1    C32   S    
C15   C16   A    
C50   C51   A    
V4    O28   S    
C19   N2    A    
C11   C18   A    
C75   N10   T    
O8    V2    S    
C33   C37   A    
C23   C24   A    
C33   O15   S    
C39   C40   A    
C68   H22   S    
C25   C26   A    
C8    C9    A    
C41   C42   A    
O1    V2    S    
O7    V1    S    
C21   C26   A    
C24   C25   A    
C60   C61   S    
C31   C32   A    
C56   C57   A    
O9    C4    A    
C4    C5    S    
C20   O14   S    
C33   N3    A    
C44   H11   S    
C59   C60   D    
C27   C32   A    
C21   C22   A    
C74   N9    T    
C66   H18   S    
C72   H28   S    
C45   N4    A    
C38   C39   A    
C18   H5    S    
C35   C38   A    
C43   C69   S    
O21   C64   A    
C9    C10   A    
C76   H34   S    
C12   H3    S    
C54   C55   A    
O4    C2    A    
O25   V4    S    
C50   H13   S    
C1    C49   S    
C25   H8    S    
C10   C11   A    
C49   C50   A    
C37   C44   A    
C14   C19   A    
C30   C65   S    
N2    C20   A    
C36   C41   A    
O2    C1    A    
N4    C46   A    
N3    C34   A    
C71   H25   S    
O22   C62   A    
C55   C62   S    
C48   H12   S    
O9    V2    S    
C66   H17   S    
C5    H1    S    
C40   C45   A    
C6    C63   S    
O20   C61   A    
O3    C4    A    
C3    C29   S    
C24   H7    S    
C48   C49   A    
C47   C48   A    
O6    V2    S    
C45   O17   S    
C28   C29   A    
C71   H23   S    
O19   V4    S    
O20   V3    S    
C70   N8    T    
O2    V1    S    
V3    O28   S    
C42   C46   A    
C61   O24   A    
C53   C72   S    
C21   H6    S    
C71   H24   S    
O27   C64   A    
O23   V3    S    
C66   H19   S    
C10   C15   A    
C22   C23   A    
C13   C75   S    
C31   C66   S    
C2    C59   S    
O26   C63   A    
O1    C2    A    
C16   C17   A    
C46   O18   S    
C43   C44   A    
C38   C67   S    
O5    V1    S    
O8    C3    A    
C53   C58   A    
C73   H31   S    
C54   C73   S    
C8    O12   S    
C72   H26   S    
C65   N5    T    
C60   H16   S    
C35   C36   A    
C6    H2    S    
C76   H33   S    
O7    V2    S    
C42   C43   A    
O3    V1    S    
V1    O10   S    
C76   H32   S    
C17   C18   A    
O5    C3    A    
C29   C30   A    
C68   H20   S    
C7    C11   A    
C55   C56   A    
C5    C6    D    
N1    C8    A    
C40   C41   A    
C30   C31   A    
N4    C52   S    
C34   C35   A    
O4    V1    S    
C22   C76   S    
C7    O11   S    
C51   C52   A    
C36   C37   A    
O25   V3    S    
N2    C26   S    
C68   H21   S    
C17   H4    S    
C16   C20   A    
O26   V4    S    
O27   V4    S    
C47   C70   S    
C73   H29   S    
C39   C68   S    
V2    O10   S    
C12   C13   A    
C34   O16   S    
