data_mof_unit_65119.cif
_audit_creation_date              2012-10-26T17:34:11-0400
_audit_creation_method            fapswitch 2.2
_symmetry_space_group_name_H-M    P1
_symmetry_Int_Tables_number       1
_space_group_crystal_system       triclinic
_cell_length_a                    21.923789
_cell_length_b                    22.034521
_cell_length_c                    22.423821
_cell_angle_alpha                 120.151468
_cell_angle_beta                  119.667549
_cell_angle_gamma                 89.116354
_cell_volume                      7737.05881271

loop_
_atom_site_label
_atom_site_type_symbol
_atom_type_description
_atom_site_fract_x
_atom_site_fract_y
_atom_site_fract_z
_atom_type_partial_charge
C1    C     C_R   0.998892 0.381051 0.496212 0.562661
C2    C     C_1   0.838622 0.339755 0.175252 -0.086198
C3    C     C_1   0.124682 0.622736 0.749409 -0.059243
C4    C     C_1   0.875763 0.376676 0.250556 -0.058619
C5    C     C_2   0.031698 0.248772 0.561913 -0.154188
C6    C     C_2   0.963638 0.752578 0.440601 -0.152455
C7    C     C_2   0.982107 0.181872 0.500622 -0.134145
C8    C     C_2   0.016106 0.817885 0.499115 -0.131705
C9    C     C_2   0.018952 0.313932 0.559827 -0.027355
C10   C     C_2   0.975530 0.686418 0.440539 -0.026133
C11   C     C_2   0.000091 0.312483 0.491052 0.006474
C12   C     C_R   0.001336 0.619054 0.504199 0.562406
C13   C     C_2   0.000952 0.688201 0.510853 0.007522
C14   C     C_R   0.616035 0.998538 0.497538 0.546470
C15   C     C_R   0.384588 0.002437 0.503772 0.548846
C16   C     C_R   0.079913 0.579256 0.659883 0.538805
C17   C     C_R   0.920141 0.420569 0.340104 0.539772
C18   C     C_R   0.419997 0.919924 0.340165 0.549877
C19   C     C_R   0.579971 0.080002 0.659820 0.548903
C20   C     C_R   0.882283 0.997665 0.500158 0.561637
C21   C     C_R   0.117722 0.998035 0.499732 0.561606
C22   C     C_R   0.996084 0.117326 0.500258 0.564098
C23   C     C_3   0.270338 0.841535 0.047500 0.060221
C24   C     C_R   0.003379 0.882666 0.499747 0.559028
C25   C     C_2   0.750099 0.944698 0.432311 -0.146856
C26   C     C_2   0.249223 0.009048 0.565560 -0.149078
C27   C     C_2   0.817045 0.990862 0.501830 -0.136697
C28   C     C_2   0.182957 0.990346 0.497591 -0.136746
C29   C     C_2   0.683988 0.936978 0.434483 -0.030715
C30   C     C_2   0.314093 0.996749 0.561226 -0.031675
C31   C     C_2   0.679821 0.996960 0.492346 -0.107915
C32   C     C_2   0.322290 0.009292 0.511979 -0.112107
C33   C     C_3   0.285356 0.691253 0.951922 -0.096594
C34   C     C_3   0.749991 0.159200 0.952805 0.062589
C35   C     C_3   0.710888 0.291773 0.047491 -0.098434
C36   C     C_3   0.168769 0.688128 0.952401 -0.085352
C37   C     C_3   0.822703 0.322979 0.047311 -0.085752
C38   C     C_3   0.217178 0.740221 0.050139 -0.210739
C39   C     C_3   0.775891 0.270099 0.949692 -0.208172
C40   C     C_1   0.375037 0.874718 0.250511 -0.049081
C41   C     C_1   0.625603 0.124724 0.749429 -0.054862
C42   C     C_3   0.208300 0.704736 0.917081 0.061808
C43   C     C_3   0.793459 0.293778 0.082850 0.063230
C44   C     C_3   0.328741 0.735900 0.048875 -0.214886
C45   C     C_3   0.223858 0.787887 0.949287 -0.189792
C46   C     C_3   0.666538 0.246554 0.950500 -0.215462
C47   C     C_3   0.290317 0.791376 0.082891 0.073481
C48   C     C_3   0.712982 0.206472 0.916942 0.084148
C49   C     C_3   0.220959 0.886777 0.073624 -0.254512
C50   C     C_3   0.204783 0.945135 0.053484 -0.316892
C51   C     C_3   0.143845 0.972646 0.063283 -0.457305
C52   C     C_3   0.808744 0.130775 0.932566 -0.253502
C53   C     C_3   0.783582 0.085220 0.840455 -0.294457
C54   C     C_3   0.842374 0.051941 0.830863 -0.462318
C55   C     C_3   0.033900 0.385263 0.638465 -0.234422
C56   C     C_3   0.794509 0.212582 0.051257 -0.196940
C57   C     C_3   0.057829 0.380810 0.712817 -0.308280
C58   C     C_3   0.064149 0.452487 0.784494 -0.465116
C59   C     C_3   0.952456 0.613859 0.358501 -0.236084
C60   C     C_3   0.924421 0.618924 0.283823 -0.306823
C61   C     C_3   0.909223 0.545299 0.207731 -0.466109
C62   C     C_3   0.990956 0.244932 0.412868 -0.274269
C63   C     C_3   0.991064 0.259408 0.352438 -0.284384
C64   C     C_3   0.975188 0.187771 0.273918 -0.470068
C65   C     C_3   0.017763 0.756796 0.593101 -0.275082
C66   C     C_3   0.023452 0.742418 0.655950 -0.285654
C67   C     C_1   0.337062 0.836963 0.175182 -0.086912
C68   C     C_3   0.044695 0.814277 0.737292 -0.469628
C69   C     C_3   0.619517 0.865273 0.369254 -0.222244
C70   C     C_3   0.625557 0.805257 0.298934 -0.314773
C71   C     C_3   0.558778 0.735997 0.237723 -0.459545
C72   C     C_3   0.371689 0.974325 0.614027 -0.221050
C73   C     C_3   0.360643 0.972616 0.675749 -0.316616
C74   C     C_3   0.419162 0.946708 0.722798 -0.463032
C75   C     C_3   0.282505 0.608417 0.912206 -0.269122
C76   C     C_3   0.293562 0.577578 0.840847 -0.302949
C77   C     C_3   0.281230 0.494569 0.796798 -0.448273
C78   C     C_1   0.664728 0.161514 0.824731 -0.083751
C79   C     C_3   0.698706 0.368974 0.085868 -0.268890
C80   C     C_3   0.688258 0.388934 0.155848 -0.302765
C81   C     C_3   0.685734 0.467994 0.198867 -0.447374
C82   C     C_3   0.087273 0.688513 0.912851 -0.269468
C83   C     C_3   0.046620 0.657827 0.936250 -0.311897
C84   C     C_3   0.965625 0.654503 0.892306 -0.453742
C85   C     C_3   0.907402 0.339836 0.088600 -0.267789
C86   C     C_3   0.935374 0.376471 0.059933 -0.312722
C87   C     C_3   0.019590 0.402331 0.110891 -0.454428
C88   C     C_3   0.339437 0.901839 0.082783 -0.233991
C89   C     C_1   0.162561 0.659187 0.824695 -0.087495
C90   C     C_3   0.406645 0.880322 0.083704 -0.306327
C91   C     C_3   0.458015 0.941156 0.100273 -0.464634
C92   C     C_3   0.693821 0.087288 0.918019 -0.233663
C93   C     C_3   0.631624 0.093733 0.932551 -0.306782
C94   C     C_3   0.602701 0.025079 0.923789 -0.469423
Cu1   Cu    Cu3+1 0.061030 0.500010 0.499990 0.888210
Cu2   Cu    Cu3+1 0.938970 0.499990 0.500010 0.887482
Cu3   Cu    Cu3+1 0.499800 0.938990 0.500010 0.891105
Cu4   Cu    Cu3+1 0.500200 0.061010 0.499990 0.918032
Cu5   Cu    Cu3+1 0.041320 0.041320 0.582630 0.906698
Cu6   Cu    Cu3+1 0.958680 0.958680 0.417370 0.907170
H1    H     H_    0.331887 0.697663 0.068268 0.106540
H2    H     H_    0.254933 0.030928 0.624151 0.142774
H3    H     H_    0.915539 0.424871 0.067197 0.154813
H4    H     H_    0.936224 0.378796 0.157302 0.158755
H5    H     H_    0.923995 0.289478 0.076976 0.138437
H6    H     H_    0.165692 0.630937 0.935283 0.120425
H7    H     H_    0.813098 0.376947 0.062812 0.119763
H8    H     H_    0.186966 0.772555 0.075674 0.107967
H9    H     H_    0.810364 0.247715 0.925880 0.116071
H10   H     H_    0.252972 0.799033 0.925203 0.098362
H11   H     H_    0.772877 0.192347 0.075703 0.102225
H12   H     H_    0.170112 0.797706 0.920029 0.105611
H13   H     H_    0.825549 0.021699 0.562679 0.100210
H14   H     H_    0.852995 0.212936 0.081818 0.093196
H15   H     H_    0.429407 0.949376 0.049135 0.144407
H16   H     H_    0.476603 0.993880 0.160549 0.153678
H17   H     H_    0.507329 0.925241 0.103506 0.141295
H18   H     H_    0.389340 0.829460 0.023063 0.152039
H19   H     H_    0.439331 0.873649 0.135541 0.162303
H20   H     H_    0.319842 0.925908 0.045786 0.134525
H21   H     H_    0.360517 0.947535 0.148233 0.146608
H22   H     H_    0.585051 0.974480 0.862328 0.149046
H23   H     H_    0.646289 0.020898 0.974267 0.147573
H24   H     H_    0.175078 0.963904 0.437232 0.102753
H25   H     H_    0.554575 0.028757 0.928628 0.139802
H26   H     H_    0.650264 0.141671 0.995321 0.151775
H27   H     H_    0.584395 0.097624 0.884423 0.152657
H28   H     H_    0.666130 0.048820 0.849613 0.142304
H29   H     H_    0.726822 0.058518 0.945406 0.132986
H30   H     H_    0.720930 0.050325 0.531373 0.088541
H31   H     H_    0.285011 0.032904 0.482152 0.092103
H32   H     H_    0.230267 0.705433 0.074899 0.097973
H33   H     H_    0.751643 0.302667 0.923633 0.096167
H34   H     H_    0.316956 0.714630 0.937900 0.124278
H35   H     H_    0.688152 0.260943 0.062541 0.123588
H36   H     H_    0.091204 0.926579 0.018096 0.143815
H37   H     H_    0.649539 0.283725 0.929360 0.108597
H38   H     H_    0.159583 0.996552 0.127771 0.152414
H39   H     H_    0.135142 0.016012 0.050967 0.139701
H40   H     H_    0.255093 0.993631 0.096999 0.151846
H41   H     H_    0.187486 0.922009 0.988671 0.151630
H42   H     H_    0.166746 0.849303 0.042568 0.140332
H43   H     H_    0.247589 0.915677 0.141854 0.144278
H44   H     H_    0.895149 0.096219 0.869523 0.146317
H45   H     H_    0.851739 0.013235 0.850155 0.146617
H46   H     H_    0.823711 0.020945 0.764493 0.147386
H47   H     H_    0.731819 0.039359 0.799747 0.164867
H48   H     H_    0.387226 0.761441 0.077865 0.094072
H49   H     H_    0.774824 0.121181 0.817724 0.164057
H50   H     H_    0.858178 0.177036 0.967552 0.131261
H51   H     H_    0.830245 0.096911 0.957523 0.124566
H52   H     H_    0.102898 0.500148 0.803268 0.146347
H53   H     H_    0.009261 0.461240 0.765301 0.153117
H54   H     H_    0.085109 0.449616 0.839061 0.135865
H55   H     H_    0.016746 0.334531 0.693453 0.174366
H56   H     H_    0.112520 0.371346 0.735609 0.152197
H57   H     H_    0.077759 0.429874 0.659044 0.145237
H58   H     H_    0.982462 0.401128 0.621966 0.169392
H59   H     H_    0.613564 0.208602 0.922090 0.099242
H60   H     H_    0.960999 0.530607 0.220850 0.155312
H61   H     H_    0.868206 0.501062 0.191240 0.145647
H62   H     H_    0.886870 0.549350 0.153765 0.135551
H63   H     H_    0.872233 0.633343 0.267369 0.153771
H64   H     H_    0.966363 0.662060 0.299797 0.174509
H65   H     H_    0.001046 0.593454 0.368795 0.165192
H66   H     H_    0.908214 0.572372 0.341707 0.146565
H67   H     H_    0.017756 0.160507 0.290526 0.153263
H68   H     H_    0.919822 0.149536 0.239871 0.149234
H69   H     H_    0.976078 0.200136 0.232002 0.137252
H70   H     H_    0.083023 0.256079 0.614331 0.139264
H71   H     H_    0.947929 0.285354 0.333157 0.169830
H72   H     H_    0.045917 0.296683 0.383407 0.188144
H73   H     H_    0.036060 0.220876 0.432126 0.154496
H74   H     H_    0.937039 0.203450 0.376362 0.137652
H75   H     H_    0.099330 0.851255 0.767222 0.148166
H76   H     H_    0.002517 0.842943 0.725117 0.153351
H77   H     H_    0.048240 0.801933 0.781034 0.137054
H78   H     H_    0.969506 0.706334 0.628947 0.187697
H79   H     H_    0.066303 0.715005 0.670927 0.168200
H80   H     H_    0.071813 0.795870 0.625280 0.136900
H81   H     H_    0.910809 0.747293 0.391514 0.135884
H82   H     H_    0.974039 0.783611 0.579304 0.154901
H83   H     H_    0.555000 0.712940 0.270328 0.151624
H84   H     H_    0.507155 0.749030 0.208722 0.147660
H85   H     H_    0.564467 0.693637 0.187549 0.137645
H86   H     H_    0.627986 0.825995 0.263815 0.154587
H87   H     H_    0.676361 0.790270 0.325734 0.163427
H88   H     H_    0.614746 0.842425 0.401628 0.168395
H89   H     H_    0.567772 0.878177 0.340028 0.149553
H90   H     H_    0.414075 0.889138 0.678750 0.150592
H91   H     H_    0.475159 0.983239 0.756135 0.155009
H92   H     H_    0.928948 0.174074 0.450228 0.098304
H93   H     H_    0.411837 0.948536 0.769195 0.140837
H94   H     H_    0.365122 0.028939 0.722016 0.154278
H95   H     H_    0.305252 0.934318 0.641694 0.166198
H96   H     H_    0.370599 0.918240 0.571267 0.171950
H97   H     H_    0.427212 0.013657 0.650334 0.153149
H98   H     H_    0.320198 0.482280 0.841750 0.145725
H99   H     H_    0.223634 0.465050 0.768265 0.152884
H100  H     H_    0.290682 0.474150 0.746575 0.145854
H101  H     H_    0.254929 0.587956 0.794015 0.181496
H102  H     H_    0.350759 0.605615 0.866609 0.147653
H103  H     H_    0.070489 0.823997 0.546263 0.095033
H104  H     H_    0.327184 0.601805 0.959797 0.135305
H105  H     H_    0.229773 0.573540 0.888794 0.145045
H106  H     H_    0.738726 0.507616 0.228672 0.152977
H107  H     H_    0.639700 0.475212 0.152986 0.144642
H108  H     H_    0.676903 0.480305 0.247972 0.143964
H109  H     H_    0.635699 0.350565 0.128951 0.147604
H110  H     H_    0.733879 0.383332 0.203511 0.181997
H111  H     H_    0.745237 0.413212 0.110640 0.144287
H112  H     H_    0.648198 0.369795 0.037383 0.136031
H113  H     H_    0.961062 0.710591 0.910464 0.148106
H114  H     H_    0.744377 0.911239 0.373130 0.143414
H115  H     H_    0.937220 0.617601 0.823486 0.151271
H116  H     H_    0.937756 0.632450 0.910547 0.139490
H117  H     H_    0.049448 0.601197 0.917773 0.154021
H118  H     H_    0.072592 0.693094 0.004631 0.156713
H119  H     H_    0.083808 0.744543 0.930459 0.140316
H120  H     H_    0.056913 0.652831 0.843768 0.159879
H121  H     H_    0.042738 0.444142 0.177931 0.148631
H122  H     H_    0.040962 0.354807 0.104018 0.149571
H123  H     H_    0.038157 0.427774 0.088302 0.139598
H124  H     H_    0.914392 0.337012 0.993190 0.155403
O1    O     O_R   0.051550 0.410990 0.500010 -0.515316
O2    O     O_R   0.051530 0.589030 0.499970 -0.513879
O3    O     O_R   0.111820 0.560290 0.620550 -0.505303
O4    O     O_R   0.888180 0.439710 0.379450 -0.505271
O5    O     O_R   0.008740 0.560280 0.620570 -0.513583
O6    O     O_R   0.991260 0.439720 0.379430 -0.513313
O7    O     O_R   0.588860 0.948460 0.499990 -0.511211
O8    O     O_R   0.411140 0.051540 0.500010 -0.505157
O9    O     O_R   0.588880 0.051510 0.499970 -0.505231
O10   O     O_R   0.411120 0.948490 0.500030 -0.513377
O11   O     O_R   0.439520 0.888190 0.379450 -0.506268
O12   O     O_R   0.948450 0.589010 0.499990 -0.515227
O13   O     O_R   0.560480 0.111810 0.620550 -0.500846
O14   O     O_R   0.439550 0.991240 0.379430 -0.504609
O15   O     O_R   0.560450 0.008760 0.620570 -0.512815
O16   O     O_R   0.945840 0.034880 0.569800 -0.507673
O17   O     O_R   0.054160 0.965120 0.430200 -0.507049
O18   O     O_R   0.876060 0.965100 0.430240 -0.510997
O19   O     O_R   0.123940 0.034900 0.569760 -0.509929
O20   O     O_R   0.034880 0.123910 0.569760 -0.506069
O21   O     O_R   0.965120 0.876090 0.430240 -0.509224
O22   O     O_R   0.965100 0.054130 0.430200 -0.507919
O23   O     O_R   0.034900 0.945870 0.569800 -0.511455
O24   O     O_R   0.948470 0.410970 0.500030 -0.515122

loop_
_geom_bond_atom_site_label_1
_geom_bond_atom_site_label_2
_ccdc_geom_bond_type
C54   H44   S    
C16   O3    A    
C34   C56   S    
C93   C94   S    
C23   C45   S    
C17   O6    A    
C15   O8    A    
C76   H101  S    
C14   O7    A    
C73   C74   S    
C68   H77   S    
C66   C68   S    
Cu1   Cu2   S    
C1    C11   S    
Cu1   O6    S    
C14   C31   S    
C11   C62   S    
C22   O20   A    
Cu3   Cu4   S    
C68   H76   S    
C45   H12   S    
Cu6   O18   S    
C15   C32   S    
Cu4   O13   S    
C13   C65   S    
C53   C54   S    
C52   C53   S    
C20   O18   A    
C57   H55   S    
C38   H8    S    
C61   H61   S    
C33   C42   S    
C90   H18   S    
C37   C85   S    
C25   H114  S    
C37   H7    S    
C64   H67   S    
C32   H31   S    
C19   O13   A    
C83   H117  S    
C17   O4    A    
C76   H102  S    
C23   C49   S    
Cu3   O10   S    
C62   H74   S    
C16   O5    A    
C53   H47   S    
C60   H63   S    
C91   H16   S    
C84   H115  S    
C48   C78   S    
C64   H69   S    
C18   C40   S    
C93   H26   S    
Cu6   O21   S    
C58   H54   S    
C44   H48   S    
C72   H97   S    
C74   H90   S    
C36   C42   S    
C33   H34   S    
C33   C75   S    
C55   H58   S    
C82   H119  S    
Cu5   Cu6   S    
C36   C82   S    
C94   H22   S    
C40   C67   T    
C5    H70   S    
C91   H17   S    
C70   C71   S    
C9    C55   S    
C88   H20   S    
C35   C43   S    
C77   H98   S    
C56   H11   S    
C59   H65   S    
C44   C47   S    
C54   H46   S    
C94   H23   S    
C74   H93   S    
C59   C60   S    
C63   C64   S    
C90   C91   S    
C73   H94   S    
C53   H49   S    
C31   H30   S    
C24   O21   A    
C86   H124  S    
C71   H85   S    
C85   H5    S    
C86   H3    S    
C92   H28   S    
C47   C67   S    
C68   H75   S    
C58   H52   S    
C29   C69   S    
C65   H82   S    
C25   C29   S    
C79   H112  S    
Cu3   O15   S    
C57   H56   S    
C46   C48   S    
C23   C47   S    
Cu5   O20   S    
C6    H81   S    
C36   H6    S    
C61   H62   S    
C87   H122  S    
C71   H83   S    
C84   H116  S    
C76   C77   S    
C72   C73   S    
C61   H60   S    
C69   H89   S    
C41   C78   T    
C5    C7    D    
C83   H118  S    
C18   O11   A    
C88   H21   S    
C6    C8    D    
C81   H106  S    
C87   H121  S    
C85   C86   S    
C62   H73   S    
C10   C13   D    
C74   H91   S    
C60   C61   S    
C42   C45   S    
C87   H123  S    
C37   C43   S    
C60   H64   S    
C2    C4    T    
C75   C76   S    
C93   H27   S    
C5    C9    S    
C62   C63   S    
C58   H53   S    
C19   O15   A    
C37   C39   S    
C9    C11   D    
C51   H36   S    
C63   H71   S    
C83   C84   S    
Cu6   O17   S    
C39   H9    S    
C2    C43   S    
C75   H104  S    
C49   H42   S    
C28   H24   S    
C50   C51   S    
Cu2   O12   S    
C55   C57   S    
Cu2   O5    S    
C77   H99   S    
C69   H88   S    
C38   C47   S    
C85   H4    S    
C70   H87   S    
C54   H45   S    
Cu4   O8    S    
Cu5   O16   S    
C27   H13   S    
C52   H50   S    
C20   C27   S    
C21   C28   S    
C88   C90   S    
C26   C30   S    
C23   C88   S    
C46   H37   S    
C7    H92   S    
Cu1   O3    S    
C34   C48   S    
C4    C17   S    
Cu5   O23   S    
C36   C38   S    
Cu2   O4    S    
C12   O2    A    
C59   H66   S    
C84   H113  S    
C86   C87   S    
C80   H110  S    
C39   H33   S    
C94   H25   S    
C1    O1    A    
C12   O12   A    
C45   H10   S    
C33   C44   S    
C34   C52   S    
C71   H84   S    
C8    H103  S    
C35   H35   S    
C81   H107  S    
C80   C81   S    
C1    O24   A    
C72   H96   S    
C30   C72   S    
C44   H1    S    
C50   H41   S    
C51   H39   S    
Cu4   O14   S    
C65   H80   S    
C25   C27   D    
C7    C22   S    
C66   H79   S    
C35   C46   S    
C26   C28   D    
C21   O19   A    
C3    C89   T    
C42   C89   S    
C90   H19   S    
C73   H95   S    
C92   H29   S    
Cu1   O2    S    
C29   C31   D    
C20   O16   A    
C26   H2    S    
C30   C32   D    
C75   H105  S    
C63   H72   S    
Cu3   O7    S    
Cu4   O9    S    
C52   H51   S    
C46   H59   S    
C49   H43   S    
C15   O10   A    
C35   C79   S    
C92   C93   S    
C8    C24   S    
C91   H15   S    
C10   C59   S    
C50   H40   S    
C65   C66   S    
Cu5   O19   S    
C69   C70   S    
C77   H100  S    
C34   C92   S    
Cu6   O22   S    
C6    C10   S    
C70   H86   S    
C79   C80   S    
C51   H38   S    
C19   C41   S    
C43   C56   S    
C55   H57   S    
C82   H120  S    
C12   C13   S    
C81   H108  S    
C64   H68   S    
C49   C50   S    
C56   H14   S    
C80   H109  S    
C24   O23   A    
C82   C83   S    
C57   C58   S    
C79   H111  S    
C21   O17   A    
C22   O22   A    
Cu1   O1    S    
Cu2   O24   S    
C14   O9    A    
C3    C16   S    
C18   O14   A    
C38   H32   S    
C39   C48   S    
C66   H78   S    
Cu3   O11   S    
