data_mof_unit_43034.cif
_audit_creation_date              2012-12-10T17:01:28-0500
_audit_creation_method            fapswitch 2.2
_symmetry_space_group_name_H-M    P1
_symmetry_Int_Tables_number       1
_space_group_crystal_system       triclinic
_cell_length_a                    12.96186
_cell_length_b                    10.693482
_cell_length_c                    10.028574
_cell_angle_alpha                 91.809308
_cell_angle_beta                  96.611416
_cell_angle_gamma                 90.394901
_cell_volume                      1380.02480355

loop_
_atom_site_label
_atom_site_type_symbol
_atom_type_description
_atom_site_fract_x
_atom_site_fract_y
_atom_site_fract_z
_atom_type_partial_charge
C1    C     C_R   0.503891 0.262589 0.498148 0.805831
C2    C     C_2   0.517846 0.129614 0.491101 0.301424
C3    C     C_2   0.567006 0.563649 0.936044 0.534821
C4    C     C_R   0.298122 0.500300 0.474730 0.969418
C5    C     C_2   0.556530 0.578034 0.086359 0.515659
C6    C     C_R   0.491439 0.736887 0.500903 0.831368
C7    C     C_R   0.701346 0.496145 0.525895 0.887181
C8    C     C_R   0.812572 0.485389 0.541356 -0.162369
C9    C     C_R   0.185759 0.501637 0.462259 -0.412908
C10   C     C_R   0.021892 0.538497 0.330066 0.540742
C11   C     C_R   0.129054 0.533143 0.340143 0.479956
C12   C     C_R   0.026601 0.470905 0.561109 -0.076795
C13   C     C_R   0.134273 0.474544 0.575064 0.420786
C14   C     C_3   0.684256 0.143779 0.608063 -0.202723
C15   C     C_3   0.703141 0.701372 0.147552 -0.164539
C16   C     C_3   0.378388 0.357026 0.096841 -0.040018
C17   C     C_3   0.848945 0.460827 0.886185 -0.125920
C18   C     C_3   0.194504 0.557504 0.781606 -0.223795
C19   C     C_3   0.329792 0.909543 0.627159 -0.261577
C20   C     C_R   0.970688 0.508264 0.440289 -0.129167
C21   C     C_R   0.864209 0.515486 0.431939 -0.221504
C22   C     C_R   0.866940 0.442579 0.660679 0.475699
C23   C     C_R   0.974248 0.431789 0.667337 -0.225283
C24   C     C_2   0.459951 0.930240 0.390992 -0.304922
C25   C     C_2   0.461522 0.865520 0.503048 0.365496
C26   C     C_2   0.453785 0.064403 0.399016 0.534746
F1    F     F_    0.644641 0.625000 0.884582 -0.663410
F2    F     F_    0.968315 0.572696 0.212527 -0.676496
F3    F     F_    0.177014 0.562984 0.231718 -0.633586
F4    F     F_    0.382006 0.120718 0.311521 -0.696279
H1    H     H_    0.821304 0.546046 0.340106 0.210437
H2    H     H_    0.740806 0.744098 0.243317 0.174659
H3    H     H_    0.325624 0.436323 0.070162 0.130462
H4    H     H_    0.367463 0.326257 0.198160 0.251825
H5    H     H_    0.355004 0.278056 0.025110 0.166196
H6    H     H_    0.856881 0.563840 0.876125 0.187113
H7    H     H_    0.923213 0.420809 0.931356 0.162295
H8    H     H_    0.790977 0.445133 0.957249 0.198992
H9    H     H_    0.116980 0.584789 0.809215 0.160965
H10   H     H_    0.230057 0.637295 0.734187 0.146753
H11   H     H_    0.244360 0.538860 0.875964 0.179077
H12   H     H_    0.432102 0.475413 0.884486 0.148953
H13   H     H_    0.303447 0.810025 0.618096 0.125443
H14   H     H_    0.286189 0.964724 0.547351 0.174871
H15   H     H_    0.311154 0.947907 0.725517 0.204709
H16   H     H_    0.016454 0.392399 0.755300 0.191035
H17   H     H_    0.469248 0.886128 0.294082 0.189064
H18   H     H_    0.671884 0.214208 0.688184 0.223729
H19   H     H_    0.709349 0.189524 0.518693 0.118771
H20   H     H_    0.748555 0.082888 0.648614 0.198936
H21   H     H_    0.712668 0.768745 0.067807 0.222326
H22   H     H_    0.744767 0.612873 0.128685 0.157915
N1    N     N_2   0.501130 0.501330 0.852280 -0.209086
N2    N     N_2   0.501160 0.501360 0.147950 0.020173
O1    O     O_R   0.499980 0.319060 0.613040 -0.600942
O2    O     O_3   0.596728 0.683389 0.159482 -0.618180
O3    O     O_3   0.482932 0.387960 0.087011 -0.614488
O4    O     O_3   0.813505 0.399163 0.762618 -0.633275
O5    O     O_3   0.188850 0.447902 0.698080 -0.580346
O6    O     O_3   0.437831 0.920420 0.623016 -0.544227
O7    O     O_R   0.500020 0.319100 0.386900 -0.595063
O8    O     O_R   0.346340 0.499960 0.594380 -0.594123
O9    O     O_R   0.346380 0.500000 0.368250 -0.589598
O10   O     O_R   0.499980 0.680900 0.613100 -0.557839
O11   O     O_R   0.500020 0.680940 0.386960 -0.605097
O12   O     O_R   0.653620 0.500000 0.631750 -0.518495
O13   O     O_R   0.653660 0.500040 0.405620 -0.622271
O14   O     O_3   0.594340 0.068832 0.574657 -0.602714
Zn1   Zn    Zn3+2 0.499980 0.499970 0.650990 1.055138
Zn2   Zn    Zn3+2 0.500020 0.500030 0.349010 1.044068

loop_
_geom_bond_atom_site_label_1
_geom_bond_atom_site_label_2
_ccdc_geom_bond_type
O7    Zn2   S    
C22   O4    S    
C8    C22   A    
C18   H9    S    
C19   H15   S    
C6    O10   A    
C13   O5    S    
C17   H6    S    
C15   H21   S    
C16   H3    S    
C14   H19   S    
C21   H1    S    
C5    N2    D    
C5    O2    S    
C19   H14   S    
C12   C23   A    
O9    Zn2   S    
C17   O4    S    
C17   H8    S    
O13   Zn2   S    
N1    Zn1   S    
C15   O2    S    
C12   C20   A    
C3    F1    S    
C8    C21   A    
C1    O1    A    
C7    C8    S    
C2    C26   D    
C23   H16   S    
O1    Zn1   S    
O10   Zn1   S    
C24   C25   D    
C7    O12   A    
C12   C13   A    
C9    C11   A    
C4    O9    A    
C3    N1    D    
C14   H20   S    
C25   O6    S    
C19   H13   S    
C26   F4    S    
C2    O14   S    
C16   O3    S    
C16   H5    S    
C14   O14   S    
C19   O6    S    
H12   N1    S    
C6    C25   S    
C10   C11   A    
C17   H7    S    
C7    O13   A    
O11   Zn2   S    
O12   Zn1   S    
C4    O8    A    
C18   O5    S    
C15   H2    S    
C1    O7    A    
C20   C21   A    
C11   F3    S    
C1    C2    S    
C18   H11   S    
C10   F2    S    
C14   H18   S    
C9    C13   A    
C22   C23   A    
C18   H10   S    
C16   H4    S    
C4    C9    S    
C15   H22   S    
C24   H17   S    
C6    O11   A    
C24   C26   S    
O8    Zn1   S    
C10   C20   A    
C3    C5    S    
N2    O3    S    
N2    Zn2   S    
