data_mof_unit_48144.cif
_audit_creation_date              2013-03-05T15:39:27-0500
_audit_creation_method            fapswitch 2.2
_symmetry_space_group_name_H-M    P1
_symmetry_Int_Tables_number       1
_space_group_crystal_system       triclinic
_cell_length_a                    16.901812
_cell_length_b                    16.901405
_cell_length_c                    16.901698
_cell_angle_alpha                 67.90421
_cell_angle_beta                  67.908136
_cell_angle_gamma                 67.907037
_cell_volume                      3987.35009579

loop_
_atom_site_label
_atom_site_type_symbol
_atom_site_description
_atom_site_fract_x
_atom_site_fract_y
_atom_site_fract_z
_atom_type_partial_charge
O1    O     O_R   0.124540 0.978640 0.385460 -0.527687
O2    O     O_R   0.875460 0.021360 0.614540 -0.528104
O3    O     O_R   0.978640 0.385460 0.124540 -0.527991
O4    O     O_R   0.021360 0.614540 0.875460 -0.528078
O5    O     O_R   0.385460 0.124540 0.978640 -0.527738
O6    O     O_R   0.614540 0.875460 0.021360 -0.528030
O7    O     O_R   0.614540 0.021360 0.875460 -0.530740
O8    O     O_R   0.385460 0.978640 0.124540 -0.530711
O9    O     O_R   0.875460 0.614540 0.021360 -0.530844
O10   O     O_R   0.124540 0.385460 0.978640 -0.530757
O11   O     O_R   0.021360 0.875460 0.614540 -0.530815
O12   O     O_R   0.978640 0.124540 0.385460 -0.530693
C1    C     C_R   0.596077 0.017889 0.598366 -0.156761
C2    C     C_R   0.404303 0.980778 0.402062 -0.156657
C3    C     C_R   0.018402 0.598210 0.595924 -0.156765
C4    C     C_R   0.981481 0.401825 0.404110 -0.156741
C5    C     C_R   0.598348 0.596046 0.017965 -0.156700
C6    C     C_R   0.402069 0.404271 0.980845 -0.156605
Cu1   Cu    Cu3+1 0.995180 0.995180 0.424630 1.263378
Cu2   Cu    Cu3+1 0.004820 0.004820 0.575370 1.262997
Cu3   Cu    Cu3+1 0.995180 0.424630 0.995180 1.263199
Cu4   Cu    Cu3+1 0.004820 0.575370 0.004820 1.263078
Cu5   Cu    Cu3+1 0.424630 0.995180 0.995180 1.263236
Cu6   Cu    Cu3+1 0.575370 0.004820 0.004820 1.262985
C7    C     C_R   0.026705 0.829053 0.565171 0.815366
C8    C     C_R   0.973291 0.170947 0.434830 0.815184
C9    C     C_R   0.829057 0.565179 0.026674 0.815372
C10   C     C_R   0.170938 0.434810 0.973351 0.815175
C11   C     C_R   0.565178 0.026676 0.829054 0.815374
C12   C     C_R   0.434813 0.973327 0.170938 0.814887
C13   C     C_R   0.432794 0.170145 0.978494 0.814758
C14   C     C_R   0.567297 0.829907 0.021261 0.815134
C15   C     C_R   0.978688 0.432720 0.170105 0.815225
C16   C     C_R   0.021301 0.567285 0.829898 0.815082
C17   C     C_R   0.170122 0.978595 0.432758 0.814965
C18   C     C_R   0.829912 0.021240 0.567306 0.815320
O13   O     O_R   0.013780 0.867370 0.487190 -0.530737
O14   O     O_R   0.986220 0.132630 0.512810 -0.531098
O15   O     O_R   0.867370 0.487190 0.013780 -0.530819
O16   O     O_R   0.132630 0.512810 0.986220 -0.530838
O17   O     O_R   0.487190 0.013780 0.867370 -0.530799
O18   O     O_R   0.512810 0.986220 0.132630 -0.531134
O19   O     O_R   0.512810 0.132630 0.986220 -0.534089
O20   O     O_R   0.487190 0.867370 0.013780 -0.534093
O21   O     O_R   0.986220 0.512810 0.132630 -0.533975
O22   O     O_R   0.013780 0.487190 0.867370 -0.534025
O23   O     O_R   0.132630 0.986220 0.512810 -0.534137
O24   O     O_R   0.867370 0.013780 0.487190 -0.533972
H1    H     H_    0.473280 0.146879 0.519056 0.164800
H2    H     H_    0.527166 0.851687 0.481339 0.164835
H3    H     H_    0.147509 0.518850 0.473208 0.164762
H4    H     H_    0.852363 0.481181 0.526835 0.164838
H5    H     H_    0.519157 0.473151 0.146931 0.164834
H6    H     H_    0.481262 0.527188 0.851778 0.164957
H7    H     H_    0.392016 0.131212 0.434104 0.161687
H8    H     H_    0.608435 0.867347 0.566322 0.161833
H9    H     H_    0.434222 0.391864 0.131254 0.161848
H10   H     H_    0.566231 0.608478 0.867445 0.161883
H11   H     H_    0.131931 0.433848 0.391914 0.161763
H12   H     H_    0.867941 0.566187 0.608130 0.161848
C19   C     C_R   0.546435 0.008222 0.548513 0.164566
C20   C     C_R   0.454006 0.990340 0.451918 0.164428
C21   C     C_R   0.008828 0.548334 0.546249 0.164501
C22   C     C_R   0.991045 0.451701 0.453793 0.164535
C23   C     C_R   0.548506 0.546395 0.008298 0.164466
C24   C     C_R   0.451950 0.453940 0.990403 0.163977
C25   C     C_R   0.561357 0.925095 0.537472 -0.056552
C26   C     C_R   0.439091 0.073459 0.462954 -0.056929
C27   C     C_R   0.925715 0.537308 0.561096 -0.056418
C28   C     C_R   0.074157 0.462726 0.438947 -0.056676
C29   C     C_R   0.537424 0.561356 0.925178 -0.056558
C30   C     C_R   0.463037 0.438977 0.073514 -0.056692
C31   C     C_R   0.515385 0.916208 0.489252 -0.059326
C32   C     C_R   0.485064 0.082344 0.511161 -0.059662
C33   C     C_R   0.489222 0.515371 0.916289 -0.059427
C34   C     C_R   0.511224 0.484964 0.082406 -0.059733
C35   C     C_R   0.916881 0.489077 0.515112 -0.059518
C36   C     C_R   0.082991 0.510955 0.484932 -0.059699
C37   C     C_R   0.552780 0.031877 0.682850 0.235023
C38   C     C_R   0.447406 0.967380 0.317332 0.234899
C39   C     C_R   0.032215 0.682774 0.552686 0.235121
C40   C     C_R   0.967708 0.317245 0.447334 0.234771
C41   C     C_R   0.682859 0.552768 0.031892 0.234990
C42   C     C_R   0.317270 0.447355 0.967625 0.235188
C43   C     C_R   0.313356 0.987465 0.438970 0.234603
C44   C     C_R   0.687065 0.011054 0.561608 0.234725
C45   C     C_R   0.439079 0.313391 0.987246 0.234705
C46   C     C_R   0.561560 0.687026 0.011179 0.234619
C47   C     C_R   0.988343 0.438611 0.313115 0.234688
C48   C     C_R   0.011543 0.561431 0.686919 0.234657
C49   C     C_R   0.601802 0.036927 0.732105 -0.247163
C50   C     C_R   0.398199 0.962914 0.267903 -0.248024
C51   C     C_R   0.037056 0.732087 0.601775 -0.247299
C52   C     C_R   0.962921 0.267916 0.398228 -0.247422
C53   C     C_R   0.732112 0.601800 0.036928 -0.247277
C54   C     C_R   0.267903 0.398211 0.962953 -0.247902
C55   C     C_R   0.265897 0.973575 0.393859 -0.261768
C56   C     C_R   0.734229 0.025890 0.606340 -0.261962
C57   C     C_R   0.393932 0.265943 0.973395 -0.261911
C58   C     C_R   0.606321 0.734214 0.025944 -0.262017
C59   C     C_R   0.973867 0.393740 0.265832 -0.261956
C60   C     C_R   0.026092 0.606275 0.734178 -0.261988
C61   C     C_R   0.689857 0.042225 0.690357 0.211499
C62   C     C_R   0.310030 0.957927 0.309545 0.211526
C63   C     C_R   0.042274 0.690364 0.689861 0.211498
C64   C     C_R   0.957731 0.309630 0.310132 0.211707
C65   C     C_R   0.690362 0.689857 0.042227 0.211606
C66   C     C_R   0.309614 0.310105 0.957745 0.211684
N1    N     N_R   0.459013 0.041225 0.717784 0.155136
O25   O     O_R   0.405025 0.115648 0.733664 -0.274013
O26   O     O_R   0.427038 0.977581 0.728904 -0.261666
N2    N     N_R   0.541170 0.958015 0.282331 0.155031
O27   O     O_R   0.573206 0.021554 0.271398 -0.262791
O28   O     O_R   0.595102 0.883673 0.266210 -0.273708
N3    N     N_R   0.041621 0.717720 0.458906 0.155169
O29   O     O_R   0.116002 0.733751 0.404978 -0.273973
O30   O     O_R   0.978072 0.728717 0.426858 -0.261682
N4    N     N_R   0.958295 0.282295 0.541114 0.155074
O31   O     O_R   0.021839 0.271294 0.573170 -0.262459
O32   O     O_R   0.883917 0.266247 0.595034 -0.273562
N5    N     N_R   0.717815 0.459004 0.041201 0.155086
O33   O     O_R   0.733691 0.404981 0.115617 -0.274010
O34   O     O_R   0.728950 0.427065 0.977526 -0.261885
N6    N     N_R   0.282188 0.541070 0.958551 0.155255
O35   O     O_R   0.271231 0.572852 0.022277 -0.262059
O36   O     O_R   0.266178 0.595221 0.884232 -0.273646
N7    N     N_R   0.270296 0.007873 0.522788 0.153950
O37   O     O_R   0.288700 0.949949 0.594707 -0.259372
O38   O     O_R   0.221422 0.087966 0.525421 -0.304611
N8    N     N_R   0.730500 0.989461 0.478373 0.153497
O39   O     O_R   0.780155 0.909379 0.476740 -0.305512
O40   O     O_R   0.711968 0.046221 0.406039 -0.259492
N9    N     N_R   0.523126 0.270429 0.007164 0.154087
O41   O     O_R   0.594948 0.288381 0.948591 -0.259108
O42   O     O_R   0.526171 0.222048 0.087295 -0.304431
N10   N     N_R   0.478250 0.730421 0.989730 0.153528
O43   O     O_R   0.476488 0.779990 0.909649 -0.305252
O44   O     O_R   0.405970 0.711916 0.046640 -0.259557
N11   N     N_R   0.009573 0.522035 0.269805 0.153661
O45   O     O_R   0.952434 0.594245 0.288260 -0.259386
O46   O     O_R   0.089670 0.523977 0.220438 -0.305095
N12   N     N_R   0.990245 0.478041 0.730254 0.153629
O47   O     O_R   0.910147 0.476158 0.779664 -0.305021
O48   O     O_R   0.047320 0.405805 0.711801 -0.259517
N13   N     N_R   0.733026 0.067229 0.732380 0.168760
O49   O     O_R   0.713642 0.150075 0.729984 -0.274318
O50   O     O_R   0.783572 0.006606 0.781230 -0.262430
N14   N     N_R   0.266383 0.934134 0.267006 0.168763
O51   O     O_R   0.284131 0.851432 0.269779 -0.273967
O52   O     O_R   0.216146 0.995537 0.218247 -0.262982
N15   N     N_R   0.067022 0.732497 0.733132 0.168765
O53   O     O_R   0.149822 0.730121 0.714001 -0.274504
O54   O     O_R   0.006236 0.781312 0.783621 -0.262647
N16   N     N_R   0.933074 0.267459 0.266824 0.168711
O55   O     O_R   0.850284 0.269859 0.285836 -0.274918
O56   O     O_R   0.993918 0.218650 0.216358 -0.262255
N17   N     N_R   0.732408 0.733047 0.067177 0.168741
O57   O     O_R   0.729953 0.713771 0.150023 -0.274814
O58   O     O_R   0.781253 0.783580 0.006524 -0.262524
N18   N     N_R   0.267225 0.266636 0.933546 0.168758
O59   O     O_R   0.269690 0.285115 0.850817 -0.274409
O60   O     O_R   0.218467 0.216267 0.994691 -0.262599

loop_
_geom_bond_atom_site_label_1
_geom_bond_atom_site_label_2
_geom_bond_distance
_ccdc_geom_bond_type
Cu2   O14   1.975862 S    
C8    C52   1.483979 S    
O6    C14   1.301829 A    
C1    C37   1.402932 A    
O3    Cu3   1.971628 S    
C7    C51   1.483975 S    
N17   O57   1.300701 A    
C40   C52   1.418566 A    
O10   C10   1.304557 A    
C28   C36   1.395084 A    
C5    C46   1.402149 A    
Cu6   O18   1.975955 S    
C22   C35   1.401480 A    
C45   N9    1.434720 S    
C27   C35   1.395107 A    
Cu1   Cu2   2.681171 S    
C30   C34   1.395042 A    
C17   O23   1.293703 A    
N2    O28   1.301197 A    
H7    C26   1.083129 S    
C3    C39   1.402924 A    
C57   C66   1.411718 A    
C61   N13   1.436307 S    
C16   C60   1.482469 S    
C23   C34   1.401448 A    
C13   O19   1.293682 A    
O7    C11   1.304656 A    
N6    O36   1.301228 A    
C47   C59   1.419970 A    
N14   O52   1.302773 A    
N1    O26   1.301265 A    
O9    Cu4   1.971678 S    
O3    C15   1.301857 A    
C26   C32   1.395079 A    
C56   C61   1.411833 A    
C2    C20   1.476119 S    
O8    Cu5   1.971655 S    
C15   O21   1.293712 A    
C60   C63   1.411785 A    
C42   C54   1.418666 A    
C62   N14   1.436132 S    
N4    O31   1.301278 A    
C48   C60   1.419971 A    
Cu1   O13   1.975863 S    
C51   C63   1.408455 A    
C9    C53   1.483975 S    
C13   C57   1.482581 S    
C65   N17   1.436285 S    
C24   C30   1.402630 A    
C21   C27   1.402720 A    
C9    O15   1.293117 A    
C64   N16   1.436277 S    
O5    Cu5   1.971603 S    
C1    C44   1.402159 A    
C6    C42   1.402782 A    
Cu5   Cu6   2.681184 S    
C20   C31   1.401466 A    
C25   C31   1.395260 A    
C2    C38   1.402852 A    
C37   C49   1.418557 A    
C7    O13   1.293167 A    
O4    Cu4   1.971629 S    
C54   C66   1.408699 A    
C41   C53   1.418569 A    
C4    C47   1.402159 A    
N17   O58   1.302710 A    
Cu3   Cu4   2.681132 S    
C39   N3    1.436401 S    
N2    O27   1.301326 A    
N13   O50   1.302710 A    
N13   O49   1.300700 A    
C45   C57   1.419889 A    
O10   Cu3   1.971678 S    
C63   N15   1.436284 S    
O4    C16   1.301844 A    
O11   Cu2   1.971585 S    
O1    Cu1   1.971686 S    
N5    O33   1.301244 A    
C37   N1    1.436410 S    
O2    Cu2   1.971686 S    
Cu2   O23   1.975992 S    
N14   O51   1.300720 A    
C46   N10   1.434971 S    
N10   O44   1.301031 A    
H2    C31   1.083081 S    
O1    C17   1.301913 A    
Cu1   O24   1.975992 S    
C8    O14   1.293180 A    
N3    O30   1.301280 A    
C23   C29   1.402759 A    
Cu5   O20   1.975903 S    
C14   C58   1.482442 S    
O12   C8    1.304586 A    
C5    C41   1.402910 A    
N18   O60   1.302736 A    
C38   C50   1.418663 A    
N8    O40   1.301059 A    
N7    O38   1.301277 A    
C39   C51   1.418571 A    
C19   C25   1.402728 A    
Cu3   O15   1.975974 S    
N15   O53   1.300695 A    
Cu4   O16   1.975973 S    
C38   N2    1.436357 S    
C4    C40   1.402921 A    
O7    Cu6   1.971657 S    
C14   O20   1.293744 A    
C48   N12   1.434977 S    
C41   N5    1.436404 S    
N16   O55   1.300693 A    
C46   C58   1.419971 A    
C53   C65   1.408441 A    
C16   O22   1.293718 A    
C12   C50   1.483879 S    
C22   C28   1.402713 A    
N9    O41   1.301108 A    
C15   C59   1.482477 S    
C43   N7    1.434875 S    
H5    C34   1.083157 S    
C6    C24   1.475956 S    
C40   N4    1.436397 S    
H4    C35   1.083165 S    
C11   C49   1.484032 S    
O9    C9    1.304620 A    
C47   N11   1.434981 S    
Cu3   O22   1.975900 S    
O2    C18   1.301804 A    
C59   C64   1.411783 A    
C52   C64   1.408457 A    
C58   C65   1.411814 A    
C3    C21   1.476144 S    
C11   O17   1.293148 A    
N12   O47   1.301234 A    
N16   O56   1.302713 A    
C44   N8    1.434966 S    
C2    C43   1.402099 A    
C49   C61   1.408447 A    
N10   O43   1.301243 A    
N11   O45   1.301021 A    
O6    Cu6   1.971603 S    
C66   N18   1.436241 S    
C19   C32   1.401427 A    
C42   N6    1.436335 S    
H8    C25   1.083107 S    
C5    C23   1.476162 S    
C6    C45   1.401937 A    
Cu5   O17   1.975957 S    
C20   C26   1.402588 A    
C10   C54   1.483918 S    
O8    C12   1.304452 A    
N18   O59   1.300710 A    
N8    O39   1.301262 A    
H3    C36   1.083163 S    
N1    O25   1.301251 A    
C3    C48   1.402162 A    
C29   C33   1.395216 A    
N11   O46   1.301231 A    
N3    O29   1.301243 A    
H12   C27   1.083138 S    
C24   C33   1.401424 A    
O12   Cu1   1.971585 S    
C18   O24   1.293770 A    
N12   O48   1.301029 A    
N15   O54   1.302709 A    
H9    C30   1.083160 S    
C44   C56   1.419948 A    
N4    O32   1.301246 A    
N5    O34   1.301284 A    
C55   C62   1.411635 A    
C43   C55   1.419928 A    
H10   C29   1.083137 S    
C50   C62   1.408601 A    
H11   C28   1.083138 S    
H6    C33   1.083107 S    
O11   C7    1.304603 A    
Cu4   O21   1.975899 S    
C1    C19   1.476190 S    
N9    O42   1.301217 A    
Cu6   O19   1.975904 S    
C10   O16   1.293138 A    
H1    C32   1.083160 S    
C12   O18   1.293257 A    
C18   C56   1.482466 S    
C4    C22   1.476146 S    
C17   C55   1.482560 S    
N7    O37   1.301094 A    
N6    O35   1.301275 A    
O5    C13   1.301963 A    
C21   C36   1.401474 A    
