data_mof_unit_65172.cif
_audit_creation_date              2012-10-26T18:11:54-0400
_audit_creation_method            fapswitch 2.2
_symmetry_space_group_name_H-M    P1
_symmetry_Int_Tables_number       1
_space_group_crystal_system       triclinic
_cell_length_a                    18.835813
_cell_length_b                    18.764637
_cell_length_c                    18.781904
_cell_angle_alpha                 109.396075
_cell_angle_beta                  109.54545
_cell_angle_gamma                 109.45786
_cell_volume                      5111.14499792

loop_
_atom_site_label
_atom_site_type_symbol
_atom_type_description
_atom_site_fract_x
_atom_site_fract_y
_atom_site_fract_z
_atom_type_partial_charge
C1    C     C_R   0.380455 0.499352 0.381114 0.610768
C2    C     C_R   0.312858 0.498982 0.314302 0.042630
C3    C     C_R   0.333260 0.256963 0.526140 0.221551
C4    C     C_R   0.618151 0.619014 0.499169 0.561860
C5    C     C_R   0.268693 0.193407 0.526192 -0.078207
C6    C     C_R   0.186218 0.185742 0.499465 -0.011721
C7    C     C_R   0.168781 0.242644 0.473281 -0.134378
C8    C     C_R   0.233616 0.307333 0.474795 -0.147355
C9    C     C_R   0.315501 0.314236 0.500576 0.049993
C10   C     C_R   0.757745 0.500985 0.678713 -0.125690
C11   C     C_R   0.822653 0.502620 0.743634 -0.127449
C12   C     C_R   0.812066 0.829217 0.575670 0.040463
C13   C     C_R   0.814319 0.500387 0.814321 0.025573
C14   C     C_R   0.741655 0.498002 0.820685 -0.121990
C15   C     C_R   0.678216 0.499360 0.757285 -0.100725
C16   C     C_R   0.618924 0.500028 0.618949 0.558601
C17   C     C_R   0.685864 0.500129 0.685889 0.042909
C18   C     C_R   0.000255 0.881578 0.381103 0.582383
C19   C     C_R   0.881610 0.881264 0.500066 0.549324
C20   C     C_R   0.999923 0.118919 0.619178 0.552305
C21   C     C_R   0.118987 0.118953 0.499776 0.566233
C22   C     C_R   0.000082 0.619156 0.119062 0.541332
C23   C     C_3   0.809509 0.904029 0.634157 0.144335
C24   C     C_R   0.118773 0.499715 0.118684 0.576258
C25   C     C_R   0.000267 0.381251 0.881716 0.588828
C26   C     C_R   0.881136 0.500186 0.881182 0.536770
C27   C     C_R   0.013750 0.829365 0.249375 0.265015
C28   C     C_R   0.381462 0.381156 0.500131 0.596414
C29   C     C_R   0.016258 0.765389 0.186939 -0.113097
C30   C     C_R   0.999990 0.686415 0.185804 -0.021306
C31   C     C_R   0.984144 0.672205 0.248931 -0.149429
C32   C     C_R   0.986034 0.737206 0.313817 -0.185584
C33   C     C_R   0.000601 0.815418 0.314047 0.041497
C34   C     C_3   0.734783 0.834728 0.631842 0.178978
C35   C     C_R   0.926322 0.195252 0.668675 -0.159512
C36   C     C_R   0.926472 0.258642 0.733495 -0.183531
C37   C     C_R   0.001003 0.314362 0.815982 0.036157
C38   C     C_R   0.075299 0.305617 0.834601 0.219456
C39   C     C_R   0.074265 0.240894 0.770031 -0.088980
C40   C     C_R   0.746171 0.766732 0.574562 -0.011620
C41   C     C_R   0.000169 0.186004 0.686731 -0.023212
C42   C     C_R   0.686327 0.685138 0.499580 0.013217
C43   C     C_R   0.698005 0.665502 0.426544 -0.153924
C44   C     C_R   0.762227 0.729989 0.426309 -0.166539
C45   C     C_R   0.237477 0.419751 0.245690 0.178947
C46   C     C_R   0.816828 0.813564 0.500030 -0.013293
C47   C     C_3   0.372991 0.705006 0.441459 -0.103735
C48   C     C_3   0.965016 0.896821 0.180317 -0.091601
C49   C     C_3   0.886951 0.029478 0.767192 -0.105552
C50   C     C_3   0.629379 0.840712 0.522408 -0.103031
C51   C     C_R   0.173502 0.420623 0.182406 -0.081791
C52   C     C_R   0.185256 0.499397 0.185532 -0.045336
C53   C     C_R   0.260039 0.578055 0.253311 -0.125798
C54   C     C_R   0.322657 0.578777 0.320031 0.227222
Cl1   Cl    Cl    0.436327 0.265104 0.561189 -0.587933
Cl2   Cl    Cl    0.169356 0.372772 0.938642 -0.573454
Cl3   Cl    Cl    0.218680 0.318674 0.239238 -0.574882
Cu1   Cu    Cu3+1 0.499970 0.561780 0.561770 0.995894
Cu2   Cu    Cu3+1 0.500030 0.438220 0.438230 1.065685
Cu3   Cu    Cu3+1 0.061810 0.000000 0.561760 0.998204
Cu4   Cu    Cu3+1 0.938190 0.000070 0.438240 0.950878
Cu5   Cu    Cu3+1 0.938200 0.438300 0.000110 0.960390
Cu6   Cu    Cu3+1 0.061800 0.561880 0.000070 1.001592
H1    H     H_    0.655228 0.601799 0.368415 0.149386
H2    H     H_    0.030171 0.777006 0.139094 0.136375
H3    H     H_    0.972114 0.611630 0.249046 0.141737
H4    H     H_    0.974865 0.726125 0.363129 0.125696
H5    H     H_    0.868262 0.152798 0.604964 0.142398
H6    H     H_    0.868970 0.265117 0.719095 0.127630
H7    H     H_    0.131628 0.234178 0.784682 0.170323
H8    H     H_    0.795219 0.942129 0.602523 0.090936
H9    H     H_    0.752744 0.837722 0.695933 0.158287
H10   H     H_    0.115177 0.359710 0.130008 0.179131
H11   H     H_    0.268955 0.638941 0.255334 0.140690
H12   H     H_    0.282744 0.149612 0.546384 0.167909
H13   H     H_    0.432939 0.759786 0.502833 0.156876
H14   H     H_    0.331991 0.665055 0.459856 0.124872
H15   H     H_    0.339259 0.733523 0.409496 0.109871
H16   H     H_    0.900287 0.860937 0.173182 0.118714
H17   H     H_    0.965431 0.862765 0.119574 0.111330
H18   H     H_    0.975418 0.961820 0.189831 0.161286
H19   H     H_    0.828706 0.012327 0.775280 0.122468
H20   H     H_    0.891396 0.072826 0.738451 0.124911
H21   H     H_    0.945338 0.066534 0.832980 0.171076
H22   H     H_    0.651188 0.813016 0.477550 0.118762
H23   H     H_    0.105586 0.237902 0.452934 0.144701
H24   H     H_    0.655735 0.911665 0.546662 0.105624
H25   H     H_    0.557779 0.809029 0.483330 0.184846
H26   H     H_    0.219742 0.351383 0.454910 0.139629
H27   H     H_    0.764208 0.501878 0.623775 0.123239
H28   H     H_    0.878455 0.504043 0.738023 0.126819
H29   H     H_    0.734865 0.496545 0.875313 0.128832
H30   H     H_    0.622556 0.498273 0.763025 0.142358
H31   H     H_    0.768180 0.715300 0.368420 0.127186
O1    O     O_R   0.409790 0.552170 0.461990 -0.499017
O2    O     O_R   0.052170 0.642450 0.090210 -0.515340
O3    O     O_R   0.038000 0.447920 0.090280 -0.514904
O4    O     O_R   0.409840 0.447810 0.357660 -0.468343
O5    O     O_R   0.142370 0.552280 0.090250 -0.482180
O6    O     O_R   0.947830 0.357730 0.909970 -0.513088
O7    O     O_R   0.052200 0.462090 0.909940 -0.471730
O8    O     O_R   0.857630 0.447900 0.909930 -0.509191
O9    O     O_R   0.962000 0.552260 0.909900 -0.517409
O10   O     O_R   0.590140 0.642360 0.552170 -0.469943
O11   O     O_R   0.590190 0.538010 0.447840 -0.534710
O12   O     O_R   0.947790 0.909920 0.357650 -0.495715
O13   O     O_R   0.590160 0.552190 0.642340 -0.524477
O14   O     O_R   0.590210 0.447830 0.538010 -0.494240
O15   O     O_R   0.409810 0.461990 0.552160 -0.528111
O16   O     O_R   0.409860 0.357640 0.447830 -0.446342
O17   O     O_R   0.052180 0.909860 0.461960 -0.514760
O18   O     O_3   0.396548 0.656603 0.387905 -0.559058
O19   O     O_3   0.032813 0.909000 0.253344 -0.547842
O20   O     O_3   0.886212 0.954267 0.716364 -0.561330
O21   O     O_3   0.650202 0.824996 0.593300 -0.562305
O22   O     O_R   0.962030 0.909820 0.552150 -0.485225
O23   O     O_R   0.857630 0.909880 0.447840 -0.524639
O24   O     O_R   0.052210 0.090150 0.642360 -0.500102
O25   O     O_R   0.947820 0.090210 0.538040 -0.517436
O26   O     O_R   0.142360 0.090190 0.552160 -0.512885
O27   O     O_R   0.037970 0.090250 0.447850 -0.501155
O28   O     O_R   0.947800 0.538090 0.090240 -0.513427

loop_
_geom_bond_atom_site_label_1
_geom_bond_atom_site_label_2
_ccdc_geom_bond_type
C24   C52   S    
C31   H3    S    
C5    H12   S    
Cu4   O25   S    
C24   O5    A    
C53   H11   S    
Cu1   O1    S    
C25   O7    A    
C20   O24   A    
C20   C41   S    
C19   C46   S    
C7    C8    A    
C39   C41   A    
C53   C54   A    
C27   C33   A    
C12   C23   S    
C45   Cl3   S    
Cu5   Cu6   S    
C34   C40   S    
C19   O22   A    
C48   H16   S    
C36   C37   A    
C37   C38   A    
C47   H13   S    
Cu1   O13   S    
C21   O26   A    
C30   C31   A    
C7    H23   S    
C27   C29   A    
C45   C51   A    
C10   C17   A    
C47   O18   S    
Cu1   O15   S    
C4    O10   A    
Cu2   O16   S    
C48   H18   S    
Cu4   O27   S    
C50   O21   S    
Cu6   O5    S    
C50   H22   S    
C25   C37   S    
C3    Cl1   S    
C35   C36   A    
C8    C9    A    
Cu3   O24   S    
C16   O13   A    
C50   H25   S    
C40   C42   A    
C49   O20   S    
C13   C14   A    
C44   C46   A    
C43   H1    S    
C22   O28   A    
C2    C45   A    
C38   C39   A    
Cu4   O23   S    
C24   O3    A    
C23   H8    S    
C18   O17   A    
Cu6   O9    S    
C2    C54   A    
C16   C17   S    
C28   O16   A    
Cu1   Cu2   S    
C6    C21   S    
Cu6   O2    S    
C51   C52   A    
Cu3   Cu4   S    
C49   H19   S    
C12   C40   A    
C43   C44   A    
C18   O12   A    
C29   C30   A    
C3    C9    A    
C26   O9    A    
Cu5   O3    S    
C25   O6    A    
C31   C32   A    
C1    O1    A    
C23   C34   S    
C54   O18   S    
Cu2   O11   S    
C52   C53   A    
Cu4   O12   S    
C14   H29   S    
C50   H24   S    
C32   H4    S    
C29   H2    S    
C27   O19   S    
C12   C46   A    
Cu5   O6    S    
C13   C26   S    
Cu3   O22   S    
Cu1   O10   S    
C42   C43   A    
C47   H14   S    
C34   H9    S    
Cu5   O28   S    
C36   H6    S    
C49   H21   S    
C15   C17   A    
C22   C30   S    
C22   O2    A    
C51   H10   S    
C3    C5    A    
C1    O4    A    
C15   H30   S    
C6    C7    A    
C28   O15   A    
C4    O11   A    
Cu2   O14   S    
C32   C33   A    
C49   H20   S    
C34   O21   S    
Cu6   O7    S    
Cu3   O17   S    
C26   O8    A    
C23   O20   S    
C11   C13   A    
C48   H17   S    
C5    C6    A    
C4    C42   S    
C35   H5    S    
C1    C2    S    
C39   H7    S    
Cu3   O26   S    
C21   O27   A    
C35   C41   A    
C18   C33   S    
C44   H31   S    
C10   C11   A    
C16   O14   A    
C11   H28   S    
C10   H27   S    
C38   Cl2   S    
C19   O23   A    
Cu2   O4    S    
C14   C15   A    
C8    H26   S    
C47   H15   S    
C20   O25   A    
C9    C28   S    
C48   O19   S    
Cu5   O8    S    
