data_mof_unit_21161.cif
_audit_creation_date              2013-03-05T16:13:23-0500
_audit_creation_method            fapswitch 2.2
_symmetry_space_group_name_H-M    P1
_symmetry_Int_Tables_number       1
_space_group_crystal_system       triclinic
_cell_length_a                    10.832033
_cell_length_b                    9.750828
_cell_length_c                    19.273219
_cell_angle_alpha                 89.918686
_cell_angle_beta                  90.906183
_cell_angle_gamma                 88.294169
_cell_volume                      2034.50201164

loop_
_atom_site_label
_atom_site_type_symbol
_atom_site_description
_atom_site_fract_x
_atom_site_fract_y
_atom_site_fract_z
_atom_type_partial_charge
O1    O     O_R   0.316770 0.614620 0.500000 -0.618754
O2    O     O_R   0.683230 0.385380 0.500000 -0.617707
O3    O     O_R   0.683230 0.614620 0.500000 -0.615688
O4    O     O_R   0.316770 0.385380 0.500000 -0.618129
C1    C     C_R   0.873028 0.494404 0.488921 -0.168198
C2    C     C_R   0.126371 0.505007 0.508498 -0.167458
C3    C     C_R   0.259726 0.501995 0.504715 0.868393
C4    C     C_R   0.739993 0.497930 0.494525 0.893105
O5    O     O_R   0.500030 0.614710 0.398180 -0.616655
O6    O     O_R   0.499970 0.385290 0.601820 -0.609711
O7    O     O_R   0.499970 0.614710 0.601820 -0.615139
O8    O     O_R   0.500030 0.385290 0.398180 -0.615679
C5    C     C_R   0.500388 0.500138 0.364400 0.875486
C6    C     C_R   0.492743 0.500767 0.635139 0.873683
Zn1   Zn    Zn3+2 0.500000 0.653120 0.500000 0.951913
Zn2   Zn    Zn3+2 0.500000 0.346880 0.500000 0.953353
H1    H     H_    0.651802 0.122148 0.569950 0.136822
H2    H     H_    0.351789 0.877432 0.427739 0.145585
H3    H     H_    0.348537 0.132568 0.429370 0.131274
H4    H     H_    0.651831 0.867317 0.570373 0.130206
C7    C     C_R   0.066337 0.380821 0.520662 -0.055242
C8    C     C_R   0.932939 0.618106 0.475970 -0.058554
C9    C     C_R   0.941613 0.373001 0.505313 -0.060600
C10   C     C_R   0.057854 0.626073 0.490963 -0.061511
C11   C     C_R   0.472678 0.380335 0.750863 0.072853
C12   C     C_R   0.547261 0.623579 0.251769 0.094196
C13   C     C_R   0.517406 0.372039 0.249997 0.088484
C14   C     C_R   0.503749 0.629666 0.749039 0.098248
C15   C     C_R   0.503955 0.378231 0.821988 -0.014639
C16   C     C_R   0.592793 0.614425 0.183806 -0.036110
C17   C     C_R   0.556189 0.369234 0.180617 -0.020173
C18   C     C_R   0.543907 0.622991 0.818752 -0.037953
C19   C     C_R   0.544709 0.497590 0.854373 -0.075234
C20   C     C_R   0.590573 0.489995 0.147973 -0.074963
C21   C     C_R   0.584550 0.069207 0.538953 -0.053932
C22   C     C_R   0.416965 0.930647 0.460001 -0.062530
C23   C     C_R   0.415762 0.075105 0.460672 -0.048048
C24   C     C_R   0.584410 0.924828 0.539201 -0.062741
C25   C     C_R   0.486870 0.503791 0.712294 -0.153440
C26   C     C_R   0.517627 0.499364 0.287570 -0.152077
C27   C     C_R   0.465987 0.549018 0.969686 -0.161039
C28   C     C_R   0.684357 0.444078 0.032353 -0.156988
C29   C     C_R   0.477808 0.547600 0.040975 -0.161012
C30   C     C_R   0.672344 0.445431 0.960283 -0.157525
H5    H     H_    0.381059 0.588641 0.945656 0.140413
H6    H     H_    0.767987 0.402483 0.056893 0.140293
H7    H     H_    0.401712 0.585847 0.072055 0.139968
H8    H     H_    0.746856 0.405183 0.928714 0.139670
N1    N     N_R   0.500000 0.857200 0.500000 -0.082761
N2    N     N_R   0.500000 0.142800 0.500000 -0.080430
C31   C     C_R   0.586547 0.495100 0.072310 0.137730
C32   C     C_R   0.562856 0.497889 0.929438 0.138159
C33   C     C_1   0.129733 0.261875 0.552377 0.200068
N3    N     N_1   0.179611 0.167322 0.577665 -0.206381
C34   C     C_1   0.868826 0.735932 0.443630 0.210937
N4    N     N_1   0.818142 0.829368 0.417764 -0.200625
C35   C     C_1   0.889649 0.237533 0.501044 0.212227
N5    N     N_1   0.851084 0.128475 0.496797 -0.207274
C36   C     C_1   0.109930 0.761579 0.493466 0.211826
N6    N     N_1   0.148445 0.870817 0.496256 -0.207117
C37   C     C_3   0.414511 0.254032 0.719277 -0.346039
C38   C     C_3   0.512253 0.142632 0.704103 -0.827005
H9    H     H_    0.471933 0.064186 0.669669 0.245252
H10   H     H_    0.593025 0.187187 0.678796 0.262095
H11   H     H_    0.545186 0.091821 0.752730 0.248570
H12   H     H_    0.345713 0.212200 0.755219 0.194898
H13   H     H_    0.358842 0.279336 0.672034 0.222359
C39   C     C_3   0.518597 0.767301 0.280909 -0.356930
C40   C     C_3   0.379007 0.795026 0.284358 -0.854046
H14   H     H_    0.336426 0.783803 0.231911 0.258244
H15   H     H_    0.334754 0.723089 0.320282 0.263056
H16   H     H_    0.359957 0.901642 0.302222 0.232550
H17   H     H_    0.566632 0.785930 0.330929 0.232199
H18   H     H_    0.553877 0.850367 0.248170 0.204412
C41   C     C_3   0.468024 0.239327 0.279844 -0.376235
C42   C     C_3   0.573245 0.145544 0.307892 -0.785265
H19   H     H_    0.631025 0.199107 0.346730 0.280558
H20   H     H_    0.534608 0.054213 0.332799 0.232532
H21   H     H_    0.633409 0.110080 0.265008 0.247036
H22   H     H_    0.395871 0.258368 0.318970 0.206278
H23   H     H_    0.416220 0.182390 0.239492 0.193797
C43   C     C_3   0.469714 0.770532 0.717493 -0.377733
C44   C     C_3   0.332939 0.782089 0.696173 -0.796475
H24   H     H_    0.312234 0.884436 0.672728 0.250526
H25   H     H_    0.307389 0.702883 0.657798 0.260947
H26   H     H_    0.274609 0.770698 0.742592 0.245990
H27   H     H_    0.483407 0.855003 0.754784 0.202897
H28   H     H_    0.530863 0.796362 0.674287 0.218448
C45   C     C_1   0.490990 0.254407 0.863032 0.172628
N7    N     N_1   0.480630 0.156084 0.895883 -0.179905
C46   C     C_1   0.637699 0.733992 0.147896 0.161865
N8    N     N_1   0.673636 0.828775 0.119139 -0.176706
C47   C     C_1   0.556200 0.242518 0.140812 0.166311
N9    N     N_1   0.556150 0.141908 0.109026 -0.174377
C48   C     C_1   0.584763 0.744730 0.854926 0.152699
N10   N     N_1   0.617432 0.841407 0.883845 -0.178305

loop_
_geom_bond_atom_site_label_1
_geom_bond_atom_site_label_2
_geom_bond_distance
_ccdc_geom_bond_type
C34   N4    1.157702 T    
C47   N9    1.157351 T    
C48   N10   1.157431 T    
C42   H21   1.109885 S    
C12   C26   1.440113 A    
C15   C45   1.454019 S    
C24   N1    1.362767 A    
C33   N3    1.157668 T    
C19   C32   1.456969 S    
C20   C31   1.458961 S    
C22   C23   1.408342 A    
Zn2   N2    1.989949 S    
O7    C6    1.287504 A    
C39   H18   1.106710 S    
C43   H27   1.105693 S    
C15   C19   1.401045 A    
C28   H6    1.082981 S    
C40   H15   1.109193 S    
O5    C5    1.293768 A    
C5    C26   1.495421 S    
C38   H10   1.107998 S    
H3    C23   1.081212 S    
C6    C25   1.489679 S    
O7    Zn1   1.997304 S    
C37   H12   1.111409 S    
C1    C8    1.410398 A    
O8    Zn2   1.997304 S    
C39   C40   1.530581 S    
O1    Zn1   2.030896 S    
O2    Zn2   2.030895 S    
C41   H22   1.106510 S    
C27   C32   1.395349 A    
C28   C31   1.399500 A    
C30   C32   1.400833 A    
C36   N6    1.156468 T    
C27   C29   1.377925 A    
C40   H14   1.111344 S    
C28   C30   1.393052 A    
O4    C3    1.281906 A    
C13   C41   1.529844 S    
C11   C15   1.406809 A    
C16   C20   1.397571 A    
C13   C17   1.408001 A    
C14   C18   1.406506 A    
C21   C24   1.407860 A    
C42   H19   1.109312 S    
O3    C4    1.282411 A    
O6    C6    1.297983 A    
C46   N8    1.157440 T    
C41   H23   1.110813 S    
C14   C25   1.432902 A    
C39   H17   1.106062 S    
C17   C47   1.455300 S    
C2    C7    1.412467 A    
C14   C43   1.533828 S    
O4    Zn2   2.008935 S    
C40   H16   1.110117 S    
C41   C42   1.531199 S    
C38   H9    1.108351 S    
H4    C24   1.081458 S    
C37   H13   1.107552 S    
C44   H24   1.110232 S    
C1    C9    1.411462 A    
C13   C26   1.438217 A    
C2    C10   1.413284 A    
C44   H26   1.110731 S    
C21   N2    1.361964 A    
C17   C20   1.397331 A    
C11   C37   1.523323 S    
C8    C34   1.458611 S    
C44   H25   1.108135 S    
C12   C16   1.408929 A    
C7    C9    1.382792 A    
C8    C10   1.383592 A    
O3    Zn1   2.008934 S    
C9    C35   1.453122 S    
C38   H11   1.108444 S    
O1    C3    1.279829 A    
O2    C4    1.278865 A    
C42   H20   1.107256 S    
C16   C46   1.454995 S    
C1    C4    1.446169 S    
C2    C3    1.446917 S    
C12   C39   1.535451 S    
C18   C19   1.401200 A    
O5    Zn1   1.998345 S    
O6    Zn2   1.998345 S    
C11   C25   1.427387 A    
C7    C33   1.458656 S    
C23   N2    1.363174 A    
C29   C31   1.398171 A    
C35   N5    1.156569 T    
C29   H7    1.084095 S    
C10   C36   1.452604 S    
C43   H28   1.105607 S    
Zn1   N1    1.989949 S    
C37   C38   1.525981 S    
C18   C48   1.454269 S    
O8    C5    1.294695 A    
C43   C44   1.532069 S    
C27   H5    1.083934 S    
H1    C21   1.078680 S    
C45   N7    1.157386 T    
H2    C22   1.078489 S    
C22   N1    1.361737 A    
C30   H8    1.083055 S    
