data_mof_unit_28221.cif
_audit_creation_date              2012-12-10T17:55:52-0500
_audit_creation_method            fapswitch 2.2
_symmetry_space_group_name_H-M    P1
_symmetry_Int_Tables_number       1
_space_group_crystal_system       triclinic
_cell_length_a                    11.048256
_cell_length_b                    10.819586
_cell_length_c                    9.52407
_cell_angle_alpha                 89.704989
_cell_angle_beta                  102.514224
_cell_angle_gamma                 90.47216
_cell_volume                      1111.39189032

loop_
_atom_site_label
_atom_site_type_symbol
_atom_type_description
_atom_site_fract_x
_atom_site_fract_y
_atom_site_fract_z
_atom_type_partial_charge
C1    C     C_R   0.499205 0.262107 0.500033 0.786964
C2    C     C_R   0.499441 0.737904 0.499727 0.783073
C3    C     C_R   0.262782 0.500909 0.441835 0.864685
C4    C     C_R   0.737237 0.501068 0.558100 0.869250
C5    C     C_R   0.424311 0.421662 0.056399 -0.246845
C6    C     C_R   0.577069 0.576882 0.943999 -0.239511
C7    C     C_R   0.421859 0.422196 0.905386 0.565705
C8    C     C_R   0.576218 0.579374 0.093798 0.563804
C9    C     C_2   0.127978 0.502655 0.408776 -0.357584
C10   C     C_2   0.872064 0.504621 0.590750 -0.367615
C11   C     C_2   0.067174 0.511167 0.515019 -0.169587
C12   C     C_2   0.932663 0.508138 0.483803 -0.138711
C13   C     C_R   0.472415 0.064389 0.369197 -0.185026
C14   C     C_R   0.522162 0.935643 0.630493 -0.193855
C15   C     C_R   0.471884 0.936527 0.369024 -0.203025
C16   C     C_R   0.521706 0.063495 0.630715 -0.177561
C17   C     C_R   0.498001 0.871755 0.499600 -0.009128
C18   C     C_R   0.497750 0.128267 0.500054 -0.011710
Cu1   Cu    Cu3+1 0.500000 0.500020 0.640660 0.975878
Cu2   Cu    Cu3+1 0.500000 0.499980 0.359340 0.973552
H1    H     H_    0.882983 0.507347 0.371899 0.201709
H2    H     H_    0.116765 0.518985 0.626485 0.176267
H3    H     H_    0.367403 0.358015 0.101819 0.159151
H4    H     H_    0.639895 0.635358 0.900808 0.157975
H5    H     H_    0.922055 0.504703 0.702473 0.141949
H6    H     H_    0.078152 0.496035 0.297286 0.146061
H7    H     H_    0.452214 0.113000 0.267140 0.143701
H8    H     H_    0.542364 0.887065 0.732583 0.143013
H9    H     H_    0.450463 0.888608 0.266965 0.140333
H10   H     H_    0.541413 0.111379 0.732869 0.161074
N1    N     N_R   0.500030 0.500030 0.852080 -0.207238
N2    N     N_R   0.499970 0.499970 0.147920 -0.206575
O1    O     O_R   0.499990 0.319660 0.618740 -0.537870
O2    O     O_R   0.500010 0.680340 0.381260 -0.560153
O3    O     O_R   0.499990 0.319630 0.381170 -0.597686
O4    O     O_R   0.500010 0.680370 0.618830 -0.596931
O5    O     O_R   0.320690 0.500020 0.575130 -0.548471
O6    O     O_R   0.679310 0.499980 0.424870 -0.532435
O7    O     O_R   0.320680 0.499990 0.337560 -0.592459
O8    O     O_R   0.679320 0.500010 0.662440 -0.591542
O9    O     O_3   0.351977 0.337640 0.810903 -0.580301
C19   C     C_3   0.233821 0.311500 0.839511 0.018598
H11   H     H_    0.165479 0.314013 0.735199 0.175255
H12   H     H_    0.201418 0.381399 0.908493 0.110084
C20   C     C_3   0.231708 0.180546 0.901052 -0.352576
H13   H     H_    0.248975 0.112853 0.820283 0.228461
H14   H     H_    0.306334 0.169902 0.999101 0.202975
C21   C     C_3   0.107113 0.151035 0.938481 -0.913493
H15   H     H_    0.089514 0.215677 0.021973 0.255891
H16   H     H_    0.108100 0.055235 0.981068 0.253023
H17   H     H_    0.031023 0.158566 0.841226 0.258781
O10   O     O_3   0.659948 0.651348 0.190105 -0.585519
C22   C     C_3   0.668543 0.774471 0.141514 0.025105
H18   H     H_    0.658054 0.836797 0.230213 0.177449
H19   H     H_    0.593954 0.800779 0.047323 0.106288
C23   C     C_3   0.797245 0.798020 0.110841 -0.358925
H20   H     H_    0.868695 0.784331 0.211473 0.229691
H21   H     H_    0.815715 0.731310 0.029996 0.208246
C24   C     C_3   0.808692 0.929184 0.055151 -0.909090
H22   H     H_    0.740152 0.943830 0.952466 0.251158
H23   H     H_    0.903231 0.943861 0.035522 0.257676
H24   H     H_    0.792819 0.997831 0.135499 0.258596

loop_
_geom_bond_atom_site_label_1
_geom_bond_atom_site_label_2
_ccdc_geom_bond_type
C11   C12   S    
C6    H4    S    
C3    C9    S    
Cu2   O6    S    
O9    C19   S    
C8    O10   S    
C11   H2    S    
Cu1   Cu2   S    
C5    H3    S    
C23   C24   S    
C5    N2    A    
Cu1   N1    S    
C2    O2    A    
C21   H16   S    
C6    N1    A    
C3    O7    A    
C24   H22   S    
C22   H18   S    
C23   H20   S    
C2    C17   S    
C9    C11   D    
C14   C17   A    
C3    O5    A    
C1    C18   S    
C19   H12   S    
C13   C18   A    
C10   C12   D    
C10   H5    S    
C7    O9    S    
C21   H15   S    
C23   H21   S    
C9    H6    S    
C15   H9    S    
C5    C7    A    
Cu1   O4    S    
C13   C15   A    
Cu1   O1    S    
C14   C16   A    
C20   C21   S    
C7    N1    A    
Cu1   O8    S    
C22   H19   S    
C1    O1    A    
Cu2   O2    S    
C8    N2    A    
C16   H10   S    
C2    O4    A    
O10   C22   S    
C1    O3    A    
C16   C18   A    
Cu2   N2    S    
C20   H14   S    
C22   C23   S    
C15   C17   A    
Cu2   O7    S    
C13   H7    S    
C24   H24   S    
C6    C8    A    
Cu1   O5    S    
C14   H8    S    
C20   H13   S    
Cu2   O3    S    
C4    C10   S    
C12   H1    S    
C21   H17   S    
C4    O8    A    
C19   H11   S    
C4    O6    A    
C24   H23   S    
C19   C20   S    
