data_mof_unit_19765.cif
_audit_creation_date              2012-12-10T17:46:03-0500
_audit_creation_method            fapswitch 2.2
_symmetry_space_group_name_H-M    P1
_symmetry_Int_Tables_number       1
_space_group_crystal_system       triclinic
_cell_length_a                    14.982988
_cell_length_b                    13.835288
_cell_length_c                    27.800614
_cell_angle_alpha                 90.021075
_cell_angle_beta                  90.32054
_cell_angle_gamma                 90.070735
_cell_volume                      5762.80422172

loop_
_atom_site_label
_atom_site_type_symbol
_atom_type_description
_atom_site_fract_x
_atom_site_fract_y
_atom_site_fract_z
_atom_type_partial_charge
C1    C     C_R   0.329148 0.499948 0.499998 0.783108
C2    C     C_R   0.671118 0.500044 0.500738 0.796004
C3    C     C_R   0.492145 0.502993 0.101798 -0.045145
C4    C     C_R   0.489810 0.504336 0.897912 -0.045297
C5    C     C_R   0.414150 0.480136 0.127433 -0.018287
C6    C     C_R   0.564361 0.538412 0.872352 -0.020670
C7    C     C_R   0.335842 0.458087 0.102265 -0.151402
C8    C     C_R   0.638785 0.572620 0.897558 -0.150834
C9    C     C_R   0.570838 0.525272 0.127434 -0.017190
C10   C     C_R   0.414910 0.470125 0.872201 -0.015831
C11   C     C_R   0.497276 0.500599 0.354636 -0.032351
C12   C     C_R   0.496238 0.500733 0.645393 -0.028747
C13   C     C_R   0.413237 0.472985 0.974273 0.041896
C14   C     C_R   0.569879 0.530317 0.025412 0.042111
C15   C     C_R   0.567787 0.535408 0.974363 0.041995
C16   C     C_R   0.412397 0.477230 0.025365 0.042026
C17   C     C_R   0.490257 0.504284 0.949057 0.066902
C18   C     C_R   0.491463 0.503530 0.050651 0.066863
C19   C     C_R   0.339754 0.437588 0.947272 -0.207308
C20   C     C_R   0.648235 0.550260 0.052338 -0.206968
C21   C     C_R   0.340747 0.436318 0.897309 -0.152345
C22   C     C_R   0.648494 0.547784 0.102276 -0.153102
C23   C     C_R   0.499271 0.500072 0.407541 0.766886
C24   C     C_R   0.499158 0.500093 0.592476 0.759048
C25   C     C_R   0.334775 0.456647 0.052307 -0.207121
C26   C     C_R   0.640607 0.571346 0.947496 -0.206713
C27   C     C_R   0.813315 0.451381 0.464857 -0.201584
C28   C     C_R   0.188028 0.553301 0.535059 -0.219119
C29   C     C_R   0.767846 0.499951 0.501164 -0.056877
C30   C     C_R   0.232950 0.499921 0.500224 -0.079729
C31   C     C_R   0.814490 0.547983 0.537655 -0.196236
C32   C     C_R   0.186416 0.446967 0.465542 -0.205062
C33   C     C_R   0.907603 0.548579 0.537797 0.063792
C34   C     C_R   0.093548 0.448872 0.464773 0.068220
C35   C     C_R   0.953855 0.499848 0.500895 -0.007896
C36   C     C_R   0.047381 0.499995 0.500872 -0.004482
C37   C     C_R   0.906494 0.451233 0.463942 0.025057
C38   C     C_R   0.094885 0.551002 0.536949 0.015534
C39   C     C_R   0.955018 0.597021 0.574148 -0.296171
C40   C     C_R   0.046428 0.400929 0.428345 -0.302757
C41   C     C_R   0.048339 0.597898 0.574245 0.432064
C42   C     C_R   0.953084 0.404799 0.426570 0.453103
C43   C     C_R   0.421612 0.795669 0.493661 0.477860
C44   C     C_R   0.574152 0.205150 0.485514 0.497860
C45   C     C_R   0.578419 0.796080 0.505930 0.488080
C46   C     C_R   0.424659 0.205037 0.513541 0.475272
C47   C     C_R   0.416080 0.480714 0.177932 0.528346
C48   C     C_R   0.562653 0.537690 0.821878 0.532342
C49   C     C_R   0.580331 0.898068 0.499888 -0.081743
C50   C     C_R   0.420731 0.102855 0.508167 -0.097036
C51   C     C_R   0.419582 0.897668 0.500239 -0.097452
C52   C     C_R   0.579108 0.103302 0.492752 -0.108022
C53   C     C_R   0.499997 0.949126 0.500541 0.011402
C54   C     C_R   0.500082 0.051828 0.500950 0.022201
C55   C     C_R   0.660633 0.950346 0.494905 -0.167688
C56   C     C_R   0.339968 0.050583 0.510140 -0.182254
C57   C     C_R   0.339166 0.949621 0.504468 -0.170961
C58   C     C_R   0.659626 0.051389 0.489321 -0.188292
C59   C     C_R   0.570258 0.523667 0.177923 0.528247
C60   C     C_R   0.416234 0.469950 0.821694 0.523584
C61   C     C_R   0.479285 0.415478 0.278853 -0.113299
C62   C     C_R   0.483617 0.589189 0.720504 -0.124592
C63   C     C_R   0.480451 0.414978 0.328987 -0.229495
C64   C     C_R   0.486676 0.588442 0.670415 -0.231922
C65   C     C_R   0.511461 0.587065 0.329265 -0.237297
C66   C     C_R   0.502338 0.413920 0.671423 -0.238061
C67   C     C_R   0.509909 0.587501 0.279136 -0.114955
C68   C     C_R   0.498804 0.414839 0.721518 -0.121294
C69   C     C_R   0.494184 0.501663 0.253714 0.363986
C70   C     C_R   0.489784 0.502455 0.746179 0.367628
Cu1   Cu    Cu3+1 0.500000 0.597420 0.500000 0.978313
Cu2   Cu    Cu3+1 0.500000 0.402580 0.500000 0.990975
H1    H     H_    0.524160 0.654277 0.348086 0.153410
H2    H     H_    0.510434 0.345401 0.653203 0.149705
H3    H     H_    0.778257 0.582917 0.566335 0.132425
H4    H     H_    0.222748 0.406946 0.438397 0.142673
H5    H     H_    0.919802 0.634556 0.602502 0.167552
H6    H     H_    0.082002 0.361042 0.400913 0.154784
H7    H     H_    0.724007 0.912985 0.493375 0.171031
H8    H     H_    0.276975 0.087774 0.514478 0.171569
H9    H     H_    0.275663 0.912151 0.504668 0.176407
H10   H     H_    0.722049 0.089053 0.483492 0.174420
H11   H     H_    0.520925 0.654557 0.259980 0.141621
H12   H     H_    0.504100 0.347614 0.741253 0.138934
H13   H     H_    0.274585 0.441658 0.121126 0.183892
H14   H     H_    0.696421 0.600635 0.878742 0.184416
H15   H     H_    0.481587 0.656494 0.651363 0.153031
H16   H     H_    0.467891 0.347693 0.347599 0.149545
H17   H     H_    0.476594 0.657137 0.739440 0.135704
H18   H     H_    0.467058 0.348808 0.259481 0.139294
H19   H     H_    0.282755 0.408451 0.878396 0.183768
H20   H     H_    0.710267 0.563743 0.121127 0.183089
H21   H     H_    0.280713 0.408119 0.963608 0.139265
H22   H     H_    0.711516 0.566090 0.035951 0.139053
H23   H     H_    0.271105 0.440988 0.035931 0.138980
H24   H     H_    0.699792 0.601099 0.963927 0.139244
H25   H     H_    0.775438 0.415490 0.437021 0.169783
H26   H     H_    0.226339 0.593975 0.561362 0.177936
N1    N     N_R   0.493473 0.502018 0.202084 -0.465400
N2    N     N_R   0.489372 0.503595 0.797710 -0.466278
N3    N     N_R   0.500000 0.743810 0.500000 -0.265428
N4    N     N_R   0.500000 0.256190 0.500000 -0.256899
O1    O     O_R   0.370260 0.582280 0.500010 -0.526049
O2    O     O_R   0.629740 0.417720 0.499990 -0.529182
O3    O     O_R   0.629740 0.582280 0.499990 -0.531668
O4    O     O_R   0.370260 0.417720 0.500010 -0.524176
O5    O     O_R   0.500020 0.582260 0.430260 -0.589205
O6    O     O_R   0.499980 0.417740 0.569740 -0.586194
O7    O     O_R   0.499980 0.582260 0.569740 -0.599590
O8    O     O_R   0.500020 0.417740 0.430260 -0.578221
O9    O     O_2   0.341053 0.460892 0.202721 -0.551370
O10   O     O_2   0.633953 0.569933 0.797097 -0.546441
O11   O     O_2   0.344957 0.436891 0.796735 -0.560106
O12   O     O_2   0.645985 0.542848 0.202695 -0.559799
O13   O     O_3   0.093285 0.649883 0.609332 -0.603888
C71   C     C_3   0.120478 0.586274 0.646408 0.030730
H27   H     H_    0.150764 0.518579 0.632025 0.134112
H28   H     H_    0.061998 0.566789 0.668964 0.153756
C72   C     C_3   0.190350 0.637329 0.677701 -0.356843
H29   H     H_    0.245433 0.664114 0.654588 0.225881
H30   H     H_    0.159168 0.700431 0.695748 0.228869
C73   C     C_3   0.229461 0.569789 0.715729 -0.831473
H31   H     H_    0.175647 0.539144 0.738442 0.262750
H32   H     H_    0.276483 0.610656 0.739134 0.262266
H33   H     H_    0.266799 0.510117 0.698299 0.269972
O14   O     O_3   0.906924 0.356421 0.390566 -0.631745
C74   C     C_3   0.917096 0.404703 0.345994 0.036805
H34   H     H_    0.901188 0.351756 0.317131 0.179408
H35   H     H_    0.986824 0.429343 0.339433 0.137665
C75   C     C_3   0.852055 0.489943 0.341640 -0.397719
H36   H     H_    0.783102 0.464871 0.349004 0.226468
H37   H     H_    0.869880 0.546412 0.368463 0.216665
C76   C     C_3   0.854417 0.534414 0.291460 -0.828879
H38   H     H_    0.922565 0.561308 0.283322 0.246555
H39   H     H_    0.807113 0.596048 0.289619 0.269932
H40   H     H_    0.834339 0.480055 0.264025 0.266977
O15   O     O_3   0.344407 0.749993 0.478835 -0.578298
C77   C     C_3   0.337511 0.758781 0.428232 0.065329
H41   H     H_    0.400759 0.737297 0.410134 0.144524
H42   H     H_    0.321403 0.834797 0.418322 0.130576
C78   C     C_3   0.262804 0.693026 0.409702 -0.305245
H43   H     H_    0.279823 0.616611 0.417548 0.220545
H44   H     H_    0.199411 0.710994 0.428253 0.227334
C79   C     C_3   0.249723 0.703717 0.355500 -0.920806
H45   H     H_    0.231228 0.779264 0.346369 0.256482
H46   H     H_    0.195309 0.654854 0.343246 0.263016
H47   H     H_    0.311948 0.683968 0.336298 0.264390
O16   O     O_3   0.638784 0.250869 0.458491 -0.577742
C80   C     C_3   0.624649 0.225093 0.409619 0.048689
H48   H     H_    0.553820 0.236905 0.398521 0.137241
H49   H     H_    0.641868 0.147774 0.403678 0.142631
C81   C     C_3   0.683965 0.286311 0.377333 -0.328070
H50   H     H_    0.664318 0.363394 0.380661 0.212361
H51   H     H_    0.754279 0.277492 0.389060 0.265195
C82   C     C_3   0.676435 0.255626 0.324727 -0.902818
H52   H     H_    0.701327 0.180606 0.320184 0.255341
H53   H     H_    0.717319 0.304669 0.302147 0.266829
H54   H     H_    0.606087 0.259193 0.312199 0.253457
O17   O     O_3   0.655861 0.751610 0.520909 -0.586905
C83   C     C_3   0.660290 0.753001 0.571925 0.096243
H55   H     H_    0.652578 0.677763 0.585107 0.170610
H56   H     H_    0.607245 0.796875 0.589835 0.104911
C84   C     C_3   0.751185 0.792426 0.587898 -0.391361
H57   H     H_    0.805130 0.756828 0.567187 0.236804
H58   H     H_    0.754168 0.871230 0.580437 0.220235
C85   C     C_3   0.767242 0.775742 0.641503 -0.895583
H59   H     H_    0.714695 0.812061 0.662955 0.262881
H60   H     H_    0.833220 0.805993 0.651979 0.264367
H61   H     H_    0.766979 0.697137 0.649663 0.254463
O18   O     O_3   0.350323 0.253255 0.529997 -0.578697
C86   C     C_3   0.346209 0.244518 0.580588 0.071903
H62   H     H_    0.411505 0.262006 0.597890 0.138551
H63   H     H_    0.326812 0.169606 0.590707 0.131092
C87   C     C_3   0.275967 0.314628 0.599707 -0.320081
H64   H     H_    0.297323 0.390150 0.592453 0.214275
H65   H     H_    0.211405 0.301703 0.580856 0.227061
C88   C     C_3   0.262453 0.302316 0.653715 -0.920430
H66   H     H_    0.241297 0.227207 0.662007 0.260517
H67   H     H_    0.209600 0.352493 0.666104 0.255389
H68   H     H_    0.325196 0.318858 0.673513 0.271883

loop_
_geom_bond_atom_site_label_1
_geom_bond_atom_site_label_2
_ccdc_geom_bond_type
C66   C68   A    
C86   H62   S    
C67   H11   S    
O14   C74   S    
Cu1   O5    S    
C63   H16   S    
C82   H53   S    
C59   N1    A    
C14   C18   A    
C75   H37   S    
C35   C36   A    
C45   O17   S    
C28   C38   A    
C74   H35   S    
C47   N1    A    
C39   C41   A    
C7    H13   S    
C53   C54   A    
C71   H27   S    
C67   C69   A    
C46   N4    A    
C55   H7    S    
C33   C39   A    
C6    C48   A    
C2    C29   S    
C34   C40   A    
C39   H5    S    
C84   H58   S    
C11   C63   A    
C80   H49   S    
C12   C64   A    
C47   O9    S    
C9    C22   A    
C27   C29   A    
O18   C86   S    
C28   H26   S    
O13   C71   S    
C66   H2    S    
C62   H17   S    
C65   H1    S    
C56   C57   A    
C62   C70   A    
C3    C18   A    
C11   C23   S    
C37   C42   A    
C61   C63   A    
C87   H64   S    
C62   C64   A    
C44   O16   S    
Cu2   O6    S    
C52   C54   A    
C88   H67   S    
C76   H40   S    
C31   C33   A    
C51   C57   A    
C45   C49   A    
C1    O1    A    
C64   H15   S    
C34   C36   A    
C19   H21   S    
C1    O4    A    
C44   C52   A    
C40   C42   A    
Cu1   N3    S    
C82   H54   S    
C85   H60   S    
C60   O11   S    
C41   O13   S    
C79   H47   S    
C70   N2    S    
C46   C50   A    
C72   H30   S    
C10   C21   A    
C26   H24   S    
C8    C26   A    
C48   N2    A    
C86   C87   S    
Cu2   O8    S    
C13   C19   A    
C68   H12   S    
C83   C84   S    
C14   C20   A    
C84   C85   S    
O16   C80   S    
C38   C41   A    
C4    C6    A    
C80   C81   S    
C5    C7    A    
C44   N4    A    
C45   N3    A    
C15   C26   A    
C6    C8    A    
Cu2   O2    S    
C65   C67   A    
C49   C55   A    
C12   C66   A    
C50   C56   A    
C46   O18   S    
C9    C59   A    
C78   H44   S    
C32   C34   A    
C10   C60   A    
C43   N3    A    
C3    C9    A    
C5    C47   A    
C31   H3    S    
O17   C83   S    
C81   C82   S    
C2    O2    A    
C88   H68   S    
C23   O5    A    
C16   C18   A    
C50   C54   A    
C87   C88   S    
C52   C58   A    
C24   O6    A    
C4    C17   A    
C69   N1    S    
C79   H46   S    
C48   O10   S    
Cu2   O4    S    
C25   H23   S    
Cu1   O3    S    
C76   H38   S    
C40   H6    S    
C78   C79   S    
C75   C76   S    
C20   C22   A    
C73   H32   S    
C74   H34   S    
C3    C5    A    
C61   H18   S    
C21   H19   S    
C72   C73   S    
C61   C69   A    
C16   C25   A    
C15   C17   A    
C23   O8    A    
C20   H22   S    
C27   H25   S    
C35   C37   A    
C24   O7    A    
C4    C10   A    
C81   H51   S    
C79   H45   S    
C60   N2    A    
C77   C78   S    
C7    C25   A    
C32   H4    S    
C72   H29   S    
C77   H42   S    
C86   H63   S    
O15   C77   S    
C12   C24   S    
C2    O3    A    
C56   H8    S    
C71   C72   S    
C13   C17   A    
C83   H55   S    
C73   H33   S    
C58   H10   S    
C75   H36   S    
C13   C16   A    
C74   C75   S    
C28   C30   A    
C29   C31   A    
C78   H43   S    
C30   C32   A    
C43   C51   A    
C85   H59   S    
Cu2   N4    S    
C27   C37   A    
C59   O12   S    
C49   C53   A    
Cu1   O7    S    
C36   C38   A    
C1    C30   S    
C33   C35   A    
C71   H28   S    
C43   O15   S    
C8    H14   S    
C57   H9    S    
C87   H65   S    
C84   H57   S    
C77   H41   S    
C42   O14   S    
Cu1   Cu2   S    
C81   H50   S    
C85   H61   S    
C68   C70   A    
C88   H66   S    
C55   C58   A    
C82   H52   S    
C76   H39   S    
C22   H20   S    
C14   C15   A    
C51   C53   A    
C73   H31   S    
C80   H48   S    
Cu1   O1    S    
C11   C65   A    
C83   H56   S    
C19   C21   A    
