data_mof_unit_28451.cif
_audit_creation_date              2012-12-10T17:24:50-0500
_audit_creation_method            fapswitch 2.2
_symmetry_space_group_name_H-M    P1
_symmetry_Int_Tables_number       1
_space_group_crystal_system       triclinic
_cell_length_a                    10.283345
_cell_length_b                    10.757584
_cell_length_c                    19.184426
_cell_angle_alpha                 92.394491
_cell_angle_beta                  80.991678
_cell_angle_gamma                 95.759076
_cell_volume                      2084.76660929

loop_
_atom_site_label
_atom_site_type_symbol
_atom_type_description
_atom_site_fract_x
_atom_site_fract_y
_atom_site_fract_z
_atom_type_partial_charge
C1    C     C_R   0.555703 0.732283 0.493183 0.946448
C2    C     C_R   0.500295 0.499657 0.365729 0.873816
C3    C     C_R   0.382899 0.518494 0.756479 -0.230711
C4    C     C_R   0.620350 0.503185 0.243696 -0.220289
C5    C     C_R   0.381112 0.520218 0.829129 0.176452
C6    C     C_R   0.622317 0.507340 0.171199 0.178257
C7    C     C_R   0.499667 0.505769 0.855276 0.001956
C8    C     C_R   0.501267 0.508103 0.145238 -0.009086
C9    C     C_R   0.619273 0.491124 0.809291 0.144312
C10   C     C_R   0.379199 0.505065 0.191098 0.149107
C11   C     C_R   0.616991 0.489539 0.736597 -0.192368
C12   C     C_R   0.444288 0.267413 0.502099 0.947767
C13   C     C_R   0.381193 0.501793 0.263668 -0.190614
C14   C     C_R   0.499739 0.502749 0.710301 -0.123260
C15   C     C_R   0.500760 0.500967 0.289843 -0.122893
C16   C     C_R   0.501446 0.507891 0.070059 0.257200
C17   C     C_R   0.499201 0.506521 0.930636 0.269052
C18   C     C_3   0.251197 0.535734 0.877019 -0.419662
C19   C     C_3   0.185265 0.410513 0.905206 -0.853609
C20   C     C_3   0.755021 0.512495 0.123475 -0.420658
C21   C     C_3   0.805781 0.383459 0.113496 -0.853201
C22   C     C_3   0.746498 0.478941 0.839364 -0.380669
C23   C     C_2   0.586856 0.864121 0.481609 -0.376374
C24   C     C_3   0.872888 0.474325 0.785628 -0.913071
C25   C     C_3   0.250085 0.504295 0.160898 -0.377706
C26   C     C_3   0.122817 0.497643 0.214551 -0.918628
C27   C     C_3   0.108992 0.370492 0.450803 -0.350544
C28   C     C_3   0.062692 0.248950 0.489911 -0.890105
C29   C     C_3   0.891045 0.629601 0.549093 -0.348806
C30   C     C_3   0.937286 0.751013 0.509839 -0.892063
C31   C     C_2   0.413060 0.134228 0.495648 -0.379246
C32   C     C_2   0.488411 0.931438 0.473731 -0.145568
C33   C     C_2   0.511482 0.064468 0.471749 -0.148916
C34   C     C_2   0.929595 0.515782 0.503767 0.174085
C35   C     C_2   0.070417 0.484226 0.496214 0.174290
C36   C     C_R   0.499768 0.500726 0.634304 0.882731
H1    H     H_    0.292148 0.528372 0.736004 0.166148
H2    H     H_    0.902821 0.389781 0.078404 0.247877
H3    H     H_    0.749915 0.549198 0.070853 0.216890
H4    H     H_    0.827955 0.578070 0.146953 0.199775
H5    H     H_    0.865821 0.389990 0.750495 0.263208
H6    H     H_    0.891654 0.560071 0.753849 0.255912
H7    H     H_    0.958274 0.469056 0.814007 0.260348
H8    H     H_    0.762844 0.559805 0.876018 0.211267
H9    H     H_    0.733566 0.392488 0.870401 0.223302
H10   H     H_    0.111503 0.410406 0.244826 0.257585
H11   H     H_    0.122574 0.580528 0.251079 0.262156
H12   H     H_    0.713009 0.503257 0.263982 0.169306
H13   H     H_    0.036597 0.497170 0.186220 0.261976
H14   H     H_    0.253942 0.590410 0.130317 0.219006
H15   H     H_    0.242338 0.422759 0.123720 0.214783
H16   H     H_    0.706146 0.478122 0.699819 0.176681
H17   H     H_    0.290043 0.499247 0.300442 0.173243
H18   H     H_    0.612707 0.104929 0.456224 0.187153
H19   H     H_    0.387198 0.889854 0.474772 0.187736
H20   H     H_    0.312216 0.093114 0.511282 0.151751
H21   H     H_    0.687707 0.906361 0.480698 0.150510
H22   H     H_    0.103674 0.250007 0.540159 0.278286
H23   H     H_    0.167526 0.344804 0.860707 0.261788
H24   H     H_    0.953355 0.235030 0.502475 0.244038
H25   H     H_    0.097452 0.168424 0.456493 0.244516
H26   H     H_    0.070633 0.369210 0.399843 0.147291
H27   H     H_    0.214772 0.372634 0.433191 0.267374
H28   H     H_    0.046634 0.764960 0.497299 0.242734
H29   H     H_    0.896359 0.749705 0.459565 0.277880
H30   H     H_    0.902440 0.831641 0.543134 0.244717
H31   H     H_    0.785270 0.627420 0.566753 0.268211
H32   H     H_    0.929465 0.631062 0.600039 0.147693
H33   H     H_    0.132009 0.627141 0.559815 0.162305
H34   H     H_    0.247808 0.368687 0.938348 0.271970
H35   H     H_    0.868006 0.372900 0.440150 0.161303
H36   H     H_    0.088679 0.424700 0.938065 0.246756
H37   H     H_    0.266253 0.601951 0.921576 0.221483
H38   H     H_    0.181568 0.577148 0.847774 0.198676
H39   H     H_    0.818897 0.347173 0.165065 0.256782
H40   H     H_    0.735129 0.317236 0.088892 0.276254
N1    N     N_R   0.509309 0.399067 0.962795 -0.183031
N2    N     N_R   0.492124 0.615524 0.037922 -0.183751
N3    N     N_R   0.510308 0.399722 0.031833 -0.169528
N4    N     N_R   0.491328 0.614888 0.968842 -0.182880
N5    N     N_2   0.842710 0.448880 0.471430 -0.223681
N6    N     N_2   0.157290 0.551120 0.528570 -0.224092
O1    O     O_R   0.431050 0.692470 0.505750 -0.610153
O2    O     O_R   0.568950 0.307530 0.494250 -0.609037
O3    O     O_R   0.651120 0.659650 0.487410 -0.619591
O4    O     O_R   0.348880 0.340350 0.512590 -0.618483
O5    O     O_R   0.389930 0.516430 0.611030 -0.607499
O6    O     O_R   0.610070 0.483570 0.388970 -0.611243
O7    O     O_R   0.610000 0.483610 0.592700 -0.643518
O8    O     O_R   0.390000 0.516390 0.407300 -0.646198
Zn1   Zn    Zn3+2 0.353060 0.521920 0.512240 0.919546
Zn2   Zn    Zn3+2 0.646940 0.478080 0.487760 0.919050

loop_
_geom_bond_atom_site_label_1
_geom_bond_atom_site_label_2
_ccdc_geom_bond_type
C36   O7    A    
O5    Zn1   S    
C24   H6    S    
C21   H40   S    
C18   C19   S    
C30   H28   S    
O4    Zn1   S    
C14   C36   S    
C20   H4    S    
C11   C14   A    
N2    N4    A    
C9    C22   S    
C12   O2    A    
C23   H21   S    
C34   C35   S    
C8    C16   S    
C2    O8    A    
C25   H14   S    
H33   N6    S    
C29   H31   S    
N5    Zn2   S    
C35   N6    D    
C22   H8    S    
C21   H2    S    
O6    Zn2   S    
C7    C17   S    
C31   C33   D    
C2    O6    A    
C11   H16   S    
C34   N5    D    
C31   H20   S    
C32   H19   S    
C28   H25   S    
N1    N3    A    
C18   H38   S    
C24   H5    S    
C19   H36   S    
O3    Zn2   S    
C13   H17   S    
C28   H24   S    
C36   O5    A    
C1    O3    A    
C4    C6    A    
C26   H13   S    
C5    C7    A    
C20   H3    S    
C6    C8    A    
C5    C18   S    
C19   H23   S    
C25   C26   S    
C29   C34   S    
C17   N4    A    
N6    Zn1   S    
C25   H15   S    
C29   C30   S    
C27   H26   S    
C29   H32   S    
C17   N1    A    
O7    Zn2   S    
C2    C15   S    
C9    C11   A    
C30   H30   S    
C3    C14   A    
C27   H27   S    
C26   H11   S    
C10   C25   S    
C1    C23   S    
C18   H37   S    
C13   C15   A    
C12   C31   S    
C22   C24   S    
O1    Zn1   S    
C4    H12   S    
C33   H18   S    
C7    C9    A    
C3    C5    A    
C10   C13   A    
C28   H22   S    
C1    O1    A    
C6    C20   S    
C21   H39   S    
C12   O4    A    
C16   N3    A    
C27   C35   S    
C23   C32   D    
C4    C15   A    
C32   C33   S    
O8    Zn1   S    
C16   N2    A    
C30   H29   S    
C26   H10   S    
C22   H9    S    
C20   C21   S    
C3    H1    S    
C8    C10   A    
C27   C28   S    
C24   H7    S    
C19   H34   S    
O2    Zn2   S    
H35   N5    S    
