data_mof_unit_20404.cif
_audit_creation_date              2012-10-26T19:07:27-0400
_audit_creation_method            fapswitch 2.2
_symmetry_space_group_name_H-M    P1
_symmetry_Int_Tables_number       1
_space_group_crystal_system       triclinic
_cell_length_a                    14.98998
_cell_length_b                    13.735036
_cell_length_c                    10.652173
_cell_angle_alpha                 90.273264
_cell_angle_beta                  90.128542
_cell_angle_gamma                 90.084668
_cell_volume                      2193.12079635

loop_
_atom_site_label
_atom_site_type_symbol
_atom_type_description
_atom_site_fract_x
_atom_site_fract_y
_atom_site_fract_z
_atom_type_partial_charge
C1    C     C_R   0.328961 0.499957 0.498481 0.589268
C2    C     C_R   0.954158 0.515095 0.269333 0.287649
C3    C     C_R   0.444541 0.793608 0.579575 0.458310
C4    C     C_R   0.555421 0.206377 0.420385 0.463755
C5    C     C_R   0.555534 0.793216 0.420534 0.468385
C6    C     C_R   0.444500 0.206771 0.579505 0.473731
C7    C     C_R   0.556732 0.896230 0.418646 -0.014504
C8    C     C_R   0.443283 0.103750 0.581372 -0.013979
C9    C     C_R   0.443303 0.896639 0.581415 -0.011242
C10   C     C_R   0.556673 0.103340 0.418564 -0.010495
C11   C     C_R   0.500003 0.948188 0.500010 -0.039718
C12   C     C_R   0.671078 0.500087 0.500608 0.590672
C13   C     C_R   0.499991 0.051791 0.499989 -0.040528
C14   C     C_R   0.613101 0.948437 0.337645 -0.111796
C15   C     C_R   0.386910 0.051536 0.662370 -0.105557
C16   C     C_R   0.386921 0.949262 0.662395 -0.115343
C17   C     C_R   0.613056 0.050711 0.337586 -0.110134
C18   C     C_R   0.499755 0.499720 0.259269 0.595163
C19   C     C_R   0.499790 0.500306 0.740782 0.591116
C20   C     C_3   0.422691 0.539891 0.042181 -0.163250
C21   C     C_3   0.576319 0.460362 0.958173 -0.163169
C22   C     C_3   0.492857 0.593067 0.960265 -0.134073
C23   C     C_R   0.953191 0.506240 0.498662 -0.043878
C24   C     C_3   0.506054 0.407145 0.039958 -0.123961
C25   C     C_3   0.430777 0.448948 0.957835 0.418071
C26   C     C_3   0.568061 0.551318 0.042455 0.407655
C27   C     C_3   0.499934 0.501155 0.877452 -0.015669
C28   C     C_3   0.499033 0.499005 0.122705 -0.003517
C29   C     C_R   0.812471 0.503251 0.384871 0.403045
C30   C     C_R   0.187587 0.503546 0.613520 0.405353
C31   C     C_R   0.767391 0.500678 0.499454 0.020777
C32   C     C_R   0.232709 0.500309 0.499101 0.019832
C33   C     C_R   0.813605 0.502133 0.613121 -0.194432
C34   C     C_R   0.046964 0.506163 0.499578 -0.044551
C35   C     C_R   0.186622 0.501324 0.385318 -0.193763
C36   C     C_R   0.906520 0.505011 0.613613 -0.039533
C37   C     C_R   0.093693 0.504255 0.384692 -0.039515
C38   C     C_3   0.106298 0.634168 0.853000 0.037212
C39   C     C_3   0.156074 0.654617 0.974752 -0.326839
C40   C     C_3   0.896078 0.631475 0.143551 0.042708
C41   C     C_3   0.852180 0.651778 0.017567 -0.300042
C42   C     C_R   0.906100 0.507895 0.383062 0.022798
C43   C     C_R   0.094030 0.508490 0.615177 0.023665
C44   C     C_R   0.953159 0.509465 0.727341 -0.101680
C45   C     C_R   0.047110 0.508095 0.270962 -0.099796
C46   C     C_R   0.046093 0.516761 0.728883 0.292712
Cu1   Cu    Cu3+1 0.500000 0.597420 0.500000 1.145689
Cu2   Cu    Cu3+1 0.500000 0.402580 0.500000 1.166645
F1    F     F_    0.359606 0.396004 0.910645 -0.514961
F2    F     F_    0.638398 0.604799 0.090877 -0.562376
F3    F     F_    0.764420 0.499337 0.276512 -0.544416
F4    F     F_    0.235582 0.500277 0.721920 -0.540827
F5    F     F_    0.390182 0.743108 0.657499 -0.616945
F6    F     F_    0.609731 0.256870 0.342402 -0.598560
F7    F     F_    0.610085 0.742349 0.342850 -0.573380
F8    F     F_    0.390001 0.257635 0.657253 -0.555929
H1    H     H_    0.359952 0.571123 0.079852 0.116841
H2    H     H_    0.342621 0.089603 0.725986 0.188974
H3    H     H_    0.342636 0.911518 0.726019 0.170045
H4    H     H_    0.657326 0.088449 0.273944 0.179495
H5    H     H_    0.043201 0.676764 0.853563 0.092207
H6    H     H_    0.148721 0.660438 0.774351 0.169218
H7    H     H_    0.216161 0.607730 0.980865 0.207563
H8    H     H_    0.177115 0.732154 0.978047 0.100857
H9    H     H_    0.112014 0.640336 0.055962 0.126785
H10   H     H_    0.959646 0.673578 0.148466 0.086134
H11   H     H_    0.850507 0.658278 0.218564 0.190827
H12   H     H_    0.639541 0.429306 0.921654 0.141009
H13   H     H_    0.796558 0.599989 0.000255 0.240418
H14   H     H_    0.825838 0.727289 0.016362 0.123419
H15   H     H_    0.901795 0.644388 0.941442 0.106796
H16   H     H_    0.488561 0.669094 0.925841 0.173260
H17   H     H_    0.510311 0.331127 0.074419 0.178804
H18   H     H_    0.776942 0.501706 0.700870 0.106588
H19   H     H_    0.223373 0.500499 0.297645 0.112471
H20   H     H_    0.917318 0.509775 0.815385 0.144982
H21   H     H_    0.082965 0.508239 0.182893 0.151126
H22   H     H_    0.657404 0.910366 0.274046 0.177713
N1    N     N_R   0.500000 0.743810 0.500000 -0.238461
N2    N     N_R   0.500000 0.256190 0.500000 -0.242507
O1    O     O_R   0.370260 0.582280 0.500030 -0.473014
O2    O     O_3   0.911748 0.530344 0.155692 -0.488673
O3    O     O_R   0.629740 0.417720 0.499970 -0.460822
O4    O     O_R   0.629740 0.582280 0.499970 -0.463259
O5    O     O_R   0.370260 0.417720 0.500030 -0.449725
O6    O     O_R   0.499980 0.582260 0.316850 -0.445084
O7    O     O_R   0.500020 0.417740 0.683150 -0.445327
O8    O     O_R   0.500020 0.582260 0.683150 -0.479026
O9    O     O_R   0.499980 0.417740 0.316850 -0.477381
O10   O     O_3   0.088726 0.533151 0.842330 -0.478104

loop_
_geom_bond_atom_site_label_1
_geom_bond_atom_site_label_2
_ccdc_geom_bond_type
C21   C26   S    
C8    C13   A    
C29   C42   A    
C34   C37   A    
C3    F5    S    
Cu1   N1    S    
C3    N1    A    
C7    C11   A    
C39   H8    S    
C35   H19   S    
C18   O6    A    
C23   C42   A    
C35   C37   A    
C9    C16   A    
C4    N2    A    
C19   O7    A    
C26   F2    S    
C38   C39   S    
C24   H17   S    
C20   C25   S    
C10   C17   A    
C1    O1    A    
C15   C16   A    
C33   C36   A    
C12   O4    A    
C44   H20   S    
C7    C14   A    
C40   H11   S    
C31   C33   A    
C5    N1    A    
C19   C27   S    
C41   H15   S    
C38   H5    S    
Cu1   O1    S    
C21   C27   S    
C40   H10   S    
C39   H9    S    
C14   C17   A    
C22   H16   S    
C44   C46   A    
C2    C45   A    
C1    O5    A    
Cu1   O6    S    
C40   O2    S    
C18   C28   S    
C24   C25   S    
C19   O8    A    
C5    C7    A    
C6    C8    A    
C20   C28   S    
C1    C32   S    
C12   O3    A    
C16   H3    S    
C32   C35   A    
C3    C9    A    
C6    N2    A    
Cu1   Cu2   S    
C23   C34   A    
Cu2   O7    S    
Cu1   O4    S    
C9    C11   A    
C40   C41   S    
C20   C22   S    
C8    C15   A    
Cu2   O9    S    
C21   H12   S    
C15   H2    S    
C30   C43   A    
C2    O2    S    
C37   C45   A    
C41   H13   S    
C29   F3    S    
C30   F4    S    
C4    F6    S    
C18   O9    A    
C5    F7    S    
C34   C43   A    
C24   C28   S    
C6    F8    S    
C10   C13   A    
C46   O10   S    
C25   C27   S    
C39   H7    S    
C38   O10   S    
C26   C28   S    
Cu2   O3    S    
C22   C27   S    
Cu1   O8    S    
Cu2   N2    S    
C12   C31   S    
C30   C32   A    
C11   C13   A    
C2    C42   A    
C14   H22   S    
C43   C46   A    
C25   F1    S    
C36   C44   A    
C17   H4    S    
C33   H18   S    
C29   C31   A    
C23   C36   A    
C22   C26   S    
C21   C24   S    
Cu2   O5    S    
C45   H21   S    
C20   H1    S    
C4    C10   A    
C41   H14   S    
C38   H6    S    
