data_mof_unit_26080.cif
_audit_creation_date              2012-12-11T15:32:10-0500
_audit_creation_method            fapswitch 2.2
_symmetry_space_group_name_H-M    P1
_symmetry_Int_Tables_number       1
_space_group_crystal_system       triclinic
_cell_length_a                    13.641304
_cell_length_b                    13.676561
_cell_length_c                    27.691288
_cell_angle_alpha                 90.473436
_cell_angle_beta                  89.595557
_cell_angle_gamma                 120.289915
_cell_volume                      4460.80415474

loop_
_atom_site_label
_atom_site_type_symbol
_atom_type_description
_atom_site_fract_x
_atom_site_fract_y
_atom_site_fract_z
_atom_type_partial_charge
C1    C     C_R   0.619792 0.898715 0.431288 0.549230
C2    C     C_R   0.158015 0.916324 0.265879 -0.126461
C3    C     C_R   0.371724 0.254445 0.277068 -0.097104
C4    C     C_3   0.086593 0.563611 0.190910 -0.012290
C5    C     C_3   0.095873 0.478559 0.158314 -0.358519
C6    C     C_R   0.142145 0.909024 0.215738 -0.163737
C7    C     C_R   0.600053 0.218397 0.431332 0.549324
C8    C     C_R   0.173673 0.749403 0.212423 0.284033
C9    C     C_R   0.191268 0.758367 0.262613 -0.091570
C10   C     C_R   0.182164 0.840702 0.289504 -0.005443
C11   C     C_R   0.150731 0.826334 0.188754 0.044588
C12   C     C_1   0.125739 0.813385 0.137621 -0.017723
C13   C     C_1   0.205931 0.851883 0.340670 -0.051250
C14   C     C_1   0.096718 0.794525 0.095821 -0.003914
C15   C     C_R   0.588710 0.342868 0.215574 -0.111238
C16   C     C_1   0.635662 0.867011 0.383618 -0.016068
C17   C     C_R   0.628577 0.729172 0.271057 -0.103426
C18   C     C_R   0.632968 0.716114 0.221009 -0.099474
C19   C     C_R   0.280601 0.879129 0.430408 0.546508
C20   C     C_R   0.679133 0.910372 0.209424 -0.102127
C21   C     C_R   0.674818 0.923421 0.259382 -0.103334
C22   C     C_R   0.650370 0.833229 0.290361 0.035995
C23   C     C_R   0.658433 0.806793 0.190079 0.040408
C24   C     C_1   0.672714 0.796202 0.139066 -0.054650
C25   C     C_1   0.643914 0.848046 0.341623 -0.060648
C26   C     C_R   0.580467 0.331818 0.266038 0.007189
C27   C     C_1   0.691278 0.786119 0.097208 -0.011041
C28   C     C_R   0.628242 0.261499 0.619545 0.031368
C29   C     C_R   0.708781 0.245596 0.644088 -0.187220
C30   C     C_R   0.713963 0.250587 0.694077 -0.140615
C31   C     C_R   0.619586 0.901569 0.569698 0.543516
C32   C     C_R   0.643852 0.278663 0.720742 -0.010130
C33   C     C_R   0.570742 0.305215 0.695913 -0.123511
C34   C     C_R   0.559244 0.292357 0.645909 0.252359
C35   C     C_R   0.557118 0.272677 0.801306 -0.128336
C36   C     C_R   0.572043 0.308638 0.849091 -0.134434
C37   C     C_R   0.663884 0.320661 0.291458 0.029751
C38   C     C_R   0.764888 0.345542 0.846453 -0.098526
C39   C     C_R   0.752198 0.315318 0.797952 -0.085995
C40   C     C_R   0.650249 0.285782 0.774013 0.038771
C41   C     C_R   0.679136 0.353856 0.870599 0.018078
C42   C     C_R   0.206822 0.853007 0.611760 0.015686
C43   C     C_R   0.599204 0.219060 0.569754 0.563020
C44   C     C_R   0.171533 0.925933 0.630663 -0.150443
C45   C     C_R   0.131742 0.913493 0.678312 -0.137360
C46   C     C_R   0.124637 0.825772 0.706771 0.053053
C47   C     C_R   0.151099 0.747975 0.686112 -0.083903
C48   C     C_R   0.678300 0.343199 0.190513 0.024371
C49   C     C_R   0.186536 0.758858 0.638767 -0.140880
C50   C     C_R   0.024916 0.703810 0.776794 0.265360
C51   C     C_R   0.030142 0.684638 0.825724 0.292654
C52   C     C_R   0.133585 0.887356 0.840315 -0.161582
C53   C     C_R   0.147066 0.905493 0.790393 -0.178748
C54   C     C_R   0.093420 0.813384 0.758295 -0.017102
C55   C     C_R   0.276562 0.879758 0.567495 0.532790
C56   C     C_R   0.075012 0.776611 0.858410 0.009824
C57   C     C_R   0.636431 0.875440 0.619602 -0.022437
C58   C     C_R   0.565613 0.771806 0.644049 -0.041218
C59   C     C_1   0.689572 0.364147 0.139342 -0.062581
C60   C     C_R   0.574034 0.769123 0.693966 -0.174442
C61   C     C_R   0.652830 0.862622 0.719922 0.039421
C62   C     C_R   0.729625 0.963525 0.696434 0.262325
C63   C     C_R   0.719202 0.968442 0.646491 -0.134079
C64   C     C_R   0.774889 0.874304 0.785319 -0.085816
C65   C     C_R   0.793503 0.854760 0.832104 0.258930
C66   C     C_R   0.588751 0.753668 0.847198 -0.191816
C67   C     C_1   0.632994 0.266673 0.384095 -0.010316
C68   C     C_R   0.572893 0.784627 0.801370 -0.148114
C69   C     C_R   0.666649 0.844769 0.770417 0.020258
C70   C     C_1   0.651323 0.295748 0.342453 -0.056992
C71   C     C_R   0.698802 0.788530 0.862727 0.035727
C72   C     C_R   0.048357 0.760734 0.048339 0.538185
C73   C     C_R   0.713874 0.436098 0.049730 0.541073
C74   C     C_R   0.723256 0.770340 0.049572 0.543462
C75   C     C_R   0.041241 0.753827 0.909488 0.561643
C76   C     C_R   0.706303 0.425609 0.913635 0.551228
C77   C     C_R   0.721335 0.765181 0.911134 0.566287
C78   C     C_R   0.753416 0.321048 0.266065 -0.128881
C79   C     C_R   0.760914 0.332842 0.215850 -0.123044
C80   C     C_3   0.370689 0.212199 0.628727 0.008649
C81   C     C_1   0.699450 0.390430 0.097380 -0.015865
C82   C     C_3   0.292778 0.209259 0.588406 -0.351075
C83   C     C_3   0.858582 0.608959 0.734982 0.003861
C84   C     C_3   0.829121 0.572717 0.682523 -0.372236
C85   C     C_3   0.061551 0.535119 0.827670 0.006536
C86   C     C_3   0.107725 0.508072 0.872346 -0.378747
C87   C     C_R   0.476288 0.664229 0.622626 0.029434
C88   C     C_R   0.472141 0.563087 0.635693 -0.080368
C89   C     C_R   0.368911 0.461458 0.635141 -0.103190
C90   C     C_R   0.273090 0.455039 0.614416 -0.132699
C91   C     C_R   0.278071 0.553526 0.598476 -0.125348
C92   C     C_1   0.233703 0.862518 0.382619 -0.009266
C93   C     C_R   0.376982 0.657697 0.606100 -0.065998
C94   C     C_3   0.970361 0.014217 0.843640 -0.004323
C95   C     C_3   0.022236 0.066413 0.892384 -0.347206
C96   C     C_3   0.910662 0.125747 0.699945 -0.032522
C97   C     C_3   0.999996 0.203317 0.736144 -0.387575
C98   C     C_R   0.483849 0.331457 0.291098 0.032635
C99   C     C_R   0.503275 0.409426 0.328420 -0.091053
C100  C     C_R   0.411944 0.409633 0.351547 -0.104036
C101  C     C_R   0.300720 0.332319 0.337571 -0.094627
C102  C     C_R   0.280637 0.254843 0.300351 -0.111889
Cr1   Cr    Cr6+3 0.417720 0.831920 0.499820 1.017171
Cr2   Cr    Cr6+3 0.668190 0.085770 0.500360 1.011867
Cr3   Cr    Cr6+3 0.414060 0.082260 0.499840 1.012866
Cr4   Cr    Cr6+3 0.908000 0.821090 0.979770 1.021823
Cr5   Cr    Cr6+3 0.912420 0.571130 0.979880 1.026937
Cr6   Cr    Cr6+3 0.657970 0.566940 0.980940 1.022056
H1    H     H_    0.816788 0.310779 0.285071 0.107577
H2    H     H_    0.845107 0.371902 0.863787 0.154839
H3    H     H_    0.520358 0.334057 0.714934 0.101122
H4    H     H_    0.831102 0.334077 0.196832 0.101804
H5    H     H_    0.176511 0.992958 0.608943 0.109017
H6    H     H_    0.108497 0.972668 0.693028 0.094394
H7    H     H_    0.200301 0.990663 0.776950 0.111663
H8    H     H_    0.171184 0.959152 0.864711 0.114675
H9    H     H_    0.147818 0.679741 0.706975 0.140203
H10   H     H_    0.202867 0.695633 0.624406 0.112368
H11   H     H_    0.526153 0.353243 0.195851 0.109583
H12   H     H_    0.618032 0.635917 0.206494 0.113730
H13   H     H_    0.846523 0.913285 0.760686 0.136713
H14   H     H_    0.519069 0.691190 0.713167 0.113854
H15   H     H_    0.487752 0.759143 0.789516 0.116741
H16   H     H_    0.516437 0.705561 0.870710 0.117870
H17   H     H_    0.772515 0.048148 0.628869 0.123895
H18   H     H_    0.152180 0.981289 0.286145 0.120742
H19   H     H_    0.122497 0.967420 0.198055 0.115079
H20   H     H_    0.212801 0.701470 0.280448 0.119889
H21   H     H_    0.608738 0.658627 0.294589 0.109462
H22   H     H_    0.334831 0.215612 0.664473 0.092478
H23   H     H_    0.700086 0.981391 0.185988 0.111911
H24   H     H_    0.372577 0.131643 0.627386 0.154216
H25   H     H_    0.289027 0.153142 0.558470 0.160739
H26   H     H_    0.205613 0.177842 0.602586 0.062673
H27   H     H_    0.324344 0.294249 0.572653 0.183361
H28   H     H_    0.860999 0.691459 0.739646 0.119121
H29   H     H_    0.789838 0.545580 0.758481 0.165542
H30   H     H_    0.828247 0.492228 0.675808 0.175731
H31   H     H_    0.744161 0.560484 0.674082 0.104948
H32   H     H_    0.893189 0.638914 0.658397 0.160130
H33   H     H_    0.135333 0.594522 0.804740 0.106386
H34   H     H_    0.690950 0.004044 0.273886 0.113928
H35   H     H_    0.012832 0.456252 0.806224 0.138783
H36   H     H_    0.037011 0.448749 0.896115 0.153346
H37   H     H_    0.158135 0.468257 0.861400 0.081301
H38   H     H_    0.163592 0.587151 0.892692 0.160772
H39   H     H_    0.544723 0.565311 0.652548 0.118399
H40   H     H_    0.361843 0.389408 0.653231 0.146514
H41   H     H_    0.193922 0.375108 0.612994 0.100402
H42   H     H_    0.202480 0.549670 0.584347 0.110588
H43   H     H_    0.374627 0.734166 0.604726 0.167038
H44   H     H_    0.922556 0.055949 0.831423 0.129063
H45   H     H_    0.762450 0.220893 0.624993 0.131541
H46   H     H_    0.040156 0.035794 0.817438 0.125569
H47   H     H_    0.066746 0.025094 0.907917 0.167940
H48   H     H_    0.084177 0.158060 0.887875 0.067300
H49   H     H_    0.954977 0.057339 0.917841 0.160163
H50   H     H_    0.902052 0.181456 0.673456 0.118979
H51   H     H_    0.941929 0.073853 0.681469 0.120124
H52   H     H_    0.022641 0.153223 0.759938 0.121679
H53   H     H_    0.077832 0.266050 0.716700 0.094012
H54   H     H_    0.967755 0.249260 0.758320 0.150256
H55   H     H_    0.589051 0.470563 0.339311 0.104126
H56   H     H_    0.474576 0.241732 0.785122 0.094588
H57   H     H_    0.427433 0.469969 0.380218 0.112532
H58   H     H_    0.230114 0.332605 0.355509 0.108554
H59   H     H_    0.194461 0.195133 0.289509 0.099599
H60   H     H_    0.354863 0.193663 0.248385 0.108904
H61   H     H_    0.010029 0.567300 0.179890 0.135600
H62   H     H_    0.075828 0.533163 0.228822 0.120801
H63   H     H_    0.171266 0.472512 0.168458 0.162570
H64   H     H_    0.018770 0.393800 0.162061 0.084583
H65   H     H_    0.104358 0.505601 0.120057 0.171676
H66   H     H_    0.502072 0.308386 0.867945 0.127329
H67   H     H_    0.770985 0.229327 0.711587 0.161354
H68   H     H_    0.825391 0.323745 0.778952 0.109140
O1    O     O_R   0.302900 0.805360 0.446400 -0.506881
O2    O     O_R   0.638120 0.455970 0.034270 -0.509675
O3    O     O_R   0.667540 0.672320 0.030160 -0.495029
O4    O     O_R   0.522090 0.841370 0.450730 -0.491094
O5    O     O_R   0.814460 0.840990 0.926980 -0.475046
O6    O     O_R   0.001710 0.811400 0.930110 -0.487325
O7    O     O_R   0.023410 0.659800 0.926210 -0.478615
O8    O     O_R   0.806940 0.473170 0.931090 -0.483545
O9    O     O_R   0.633420 0.451310 0.927930 -0.523041
O10   O     O_R   0.663190 0.668000 0.931580 -0.507612
O11   O     O_3   0.826130 0.653050 0.980200 -0.250289
O12   O     O_R   0.657980 0.180990 0.549630 -0.520199
O13   O     O_R   0.693280 0.995650 0.447220 -0.506838
O14   O     O_R   0.657260 0.178740 0.451050 -0.496285
O15   O     O_R   0.502640 0.195380 0.446850 -0.501329
O16   O     O_R   0.319630 0.976590 0.450330 -0.494836
O17   O     O_R   0.303680 0.807790 0.552740 -0.542051
O18   O     O_R   0.522820 0.843620 0.549310 -0.502539
O19   O     O_R   0.694060 0.998080 0.553560 -0.529278
O20   O     O_3   0.479721 0.309134 0.622724 -0.561654
O21   O     O_3   0.961300 0.612557 0.746515 -0.571689
O22   O     O_3   0.987170 0.574903 0.841603 -0.530479
O23   O     O_R   0.503420 0.197810 0.553190 -0.477727
O24   O     O_3   0.904354 0.894248 0.847191 -0.533889
O25   O     O_3   0.806014 0.057027 0.724059 -0.575709
O26   O     O_3   0.186193 0.670195 0.185973 -0.551282
O27   O     O_R   0.320350 0.978840 0.548910 -0.520033
O28   O     O_3   0.499990 0.999990 0.500010 -0.248313
O29   O     O_R   0.819150 0.845650 0.033320 -0.515915
O30   O     O_R   0.006060 0.815720 0.028680 -0.504371
O31   O     O_R   0.028100 0.664460 0.032550 -0.510826
O32   O     O_R   0.811290 0.477490 0.029660 -0.501796

loop_
_geom_bond_atom_site_label_1
_geom_bond_atom_site_label_2
_ccdc_geom_bond_type
C89   H40   S    
C66   C68   A    
C87   C88   A    
C36   H66   S    
C101  C102  A    
C80   H24   S    
Cr3   O15   S    
Cr6   O11   S    
C96   H50   S    
C35   C36   A    
C24   C27   T    
C83   H29   S    
C14   C72   S    
C75   O7    A    
C58   C87   S    
C85   H35   S    
Cr4   O29   S    
C90   C91   A    
C86   H36   S    
C96   O25   S    
C47   C49   A    
C45   C46   A    
C52   C53   A    
C50   C54   A    
C4    H62   S    
C79   H4    S    
Cr2   O28   S    
C48   C79   A    
Cr6   O10   S    
C28   C29   A    
C6    H19   S    
C95   H48   S    
C38   C39   A    
C1    O4    A    
Cr3   O27   S    
C58   C60   A    
C64   H13   S    
Cr5   O11   S    
C17   C18   A    
Cr1   O4    S    
C82   H27   S    
Cr1   O28   S    
Cr4   O6    S    
C19   C92   S    
C45   H6    S    
Cr2   O19   S    
C74   O3    A    
C83   C84   S    
C84   H31   S    
C8    C9    A    
C22   C25   S    
C30   H67   S    
C76   O8    A    
C62   O25   S    
C77   O5    A    
C23   C24   S    
C7    O14   A    
C33   H3    S    
Cr1   O18   S    
C38   H2    S    
C27   C74   S    
C9    C10   A    
C19   O1    A    
Cr5   O31   S    
C61   C62   A    
C19   O16   A    
C84   H30   S    
C102  H59   S    
C21   C22   A    
C77   O10   A    
Cr3   O16   S    
C7    O15   A    
C36   C41   A    
C2    C6    A    
C42   C44   A    
C15   C48   A    
C90   H41   S    
Cr2   O12   S    
C86   H38   S    
C68   H15   S    
C73   C81   S    
C50   O21   S    
C3    H60   S    
C57   C63   A    
C72   O31   A    
C52   H8    S    
C80   O20   S    
C9    H20   S    
C80   H22   S    
C4    H61   S    
C17   H21   S    
C18   C23   A    
C30   C32   A    
C97   H52   S    
C59   C81   T    
Cr6   O9    S    
C33   C34   A    
C38   C41   A    
C80   C82   S    
C85   H33   S    
C6    C11   A    
C17   C22   A    
C78   C79   A    
C68   C69   A    
C15   C26   A    
C72   O30   A    
C85   C86   S    
Cr6   O3    S    
Cr5   O7    S    
C100  H57   S    
Cr1   O1    S    
C82   H26   S    
C66   C71   A    
C39   H68   S    
Cr4   O5    S    
Cr4   O30   S    
C29   C30   A    
C51   O22   S    
C42   C55   S    
C91   C93   A    
C65   O24   S    
C4    O26   S    
C99   C100  A    
C20   C23   A    
C47   H9    S    
C94   H46   S    
Cr2   O14   S    
C96   C97   S    
C46   C54   S    
C62   C63   A    
C50   C51   A    
C5    H63   S    
Cr6   O2    S    
C94   C95   S    
C1    C16   S    
C64   C69   A    
C88   C89   A    
C60   H14   S    
Cr5   O32   S    
C63   H17   S    
C26   C98   S    
C99   H55   S    
C73   O2    A    
C2    H18   S    
C3    C102  A    
C55   O17   A    
C73   O32   A    
C12   C14   T    
C44   H5    S    
C98   C99   A    
C97   H53   S    
C13   C92   T    
C66   H16   S    
C93   H43   S    
C83   O21   S    
C20   H23   S    
C2    C10   A    
C86   H37   S    
C18   H12   S    
C21   H34   S    
C71   C77   S    
C44   C45   A    
C48   C59   S    
C29   H45   S    
C34   O20   S    
C16   C25   T    
C46   C47   A    
C28   C34   A    
C95   H49   S    
C5    H65   S    
C55   O27   A    
C51   C56   A    
C4    C5    S    
Cr3   O28   S    
C10   C13   S    
Cr4   O11   S    
C91   H42   S    
C11   C12   S    
C26   C37   A    
C53   C54   A    
C37   C78   A    
C28   C43   S    
C35   H56   S    
Cr5   O8    S    
C67   C70   T    
C61   C69   S    
C32   C33   A    
C31   C57   S    
C82   H25   S    
C8    O26   S    
C35   C40   A    
C65   C71   A    
C64   C65   A    
C41   C76   S    
C31   O19   A    
C94   O24   S    
C3    C98   A    
C57   C58   A    
C43   O12   A    
C8    C11   A    
Cr2   O13   S    
C87   C93   A    
C100  C101  A    
C88   H39   S    
C15   H11   S    
C78   H1    S    
C95   H47   S    
C32   C40   S    
C101  H58   S    
C42   C49   A    
C7    C67   S    
C39   C40   A    
C49   H10   S    
C53   H7    S    
C85   O22   S    
Cr3   O23   S    
C96   H51   S    
C20   C21   A    
C84   H32   S    
C97   H54   S    
C56   C75   S    
C5    H64   S    
C60   C61   A    
C43   O23   A    
Cr1   O17   S    
C89   C90   A    
C37   C70   S    
C75   O6    A    
C94   H44   S    
C74   O29   A    
C76   O9    A    
C52   C56   A    
C1    O13   A    
C31   O18   A    
C83   H28   S    
