data_mof_unit_48756.cif
_audit_creation_date              2012-12-10T17:52:17-0500
_audit_creation_method            fapswitch 2.2
_symmetry_space_group_name_H-M    P1
_symmetry_Int_Tables_number       1
_space_group_crystal_system       triclinic
_cell_length_a                    19.035961
_cell_length_b                    10.751302
_cell_length_c                    10.029654
_cell_angle_alpha                 93.845824
_cell_angle_beta                  91.217678
_cell_angle_gamma                 98.09177
_cell_volume                      2026.69065187

loop_
_atom_site_label
_atom_site_type_symbol
_atom_type_description
_atom_site_fract_x
_atom_site_fract_y
_atom_site_fract_z
_atom_type_partial_charge
C1    C     C_R   0.506940 0.261998 0.496114 0.978919
C2    C     C_R   0.860317 0.566910 0.487012 -0.192459
C3    C     C_R   0.588945 0.150759 0.698578 0.451215
C4    C     C_R   0.366541 0.511905 0.499320 0.938717
C5    C     C_R   0.591907 0.115316 0.829405 -0.076885
C6    C     C_R   0.553087 0.000211 0.862508 0.518088
C7    C     C_R   0.510666 0.923609 0.762170 0.045864
C8    C     C_R   0.514076 0.955623 0.626380 -0.108512
C9    C     C_R   0.541723 0.079322 0.603489 -0.074949
C10   C     C_R   0.519479 0.130873 0.487877 -0.109011
C11   C     C_R   0.494220 0.052573 0.375541 -0.005262
C12   C     C_R   0.294600 0.550357 0.498082 -0.275055
C13   C     C_R   0.473475 0.924564 0.390385 0.092633
C14   C     C_R   0.488459 0.874077 0.512447 -0.102257
C15   C     C_R   0.413958 0.298173 0.118141 0.098132
C16   C     C_R   0.495534 0.739834 0.504511 0.851283
C17   C     C_R   0.390239 0.186233 0.039627 -0.103128
C18   C     C_R   0.394171 0.184973 0.901667 0.401047
C19   C     C_R   0.413178 0.299910 0.844560 0.452690
C20   C     C_R   0.457085 0.403151 0.918992 -0.097516
C21   C     C_R   0.457456 0.402588 0.063445 0.002172
C22   C     C_R   0.544625 0.584955 0.078407 0.164172
C23   C     C_R   0.937240 0.580695 0.488995 0.401297
C24   C     C_R   0.544621 0.584341 0.936344 0.086838
C25   C     C_R   0.634905 0.502262 0.501416 1.011142
C26   C     C_R   0.266045 0.594886 0.619189 0.459997
C27   C     C_R   0.196976 0.628332 0.618142 -0.001558
C28   C     C_R   0.156086 0.610334 0.497994 -0.060621
C29   C     C_R   0.186632 0.579475 0.376472 0.046193
C30   C     C_R   0.256152 0.552415 0.375600 0.059018
C31   C     C_3   0.280948 0.553783 0.841992 -0.248596
C32   C     C_3   0.693549 0.213076 0.603901 -0.345795
C33   C     C_3   0.615556 0.974846 0.058921 -0.358182
C34   C     C_R   0.079568 0.602514 0.499588 0.278031
C35   C     C_3   0.314835 0.006935 0.820991 -0.329832
C36   C     C_3   0.313009 0.271449 0.701690 -0.260218
C37   C     C_3   0.726807 0.537775 0.823183 -0.280104
C38   C     C_3   0.706729 0.427630 0.172676 -0.198997
C39   C     C_3   0.882015 0.521001 0.191913 -0.325845
C40   C     C_R   0.826867 0.616310 0.597450 -0.042092
C41   C     C_R   0.753555 0.583546 0.609913 0.413261
C42   C     C_R   0.712740 0.514585 0.503205 -0.350533
C43   C     C_R   0.746581 0.464794 0.392163 0.354228
C44   C     C_R   0.820689 0.490200 0.384310 0.413341
H1    H     H_    0.324035 0.512980 0.891891 0.179676
H2    H     H_    0.657953 0.950722 0.990952 0.166430
H3    H     H_    0.611450 0.909007 0.139094 0.207095
H4    H     H_    0.414249 0.810277 0.728764 0.244722
H5    H     H_    0.470413 0.757782 0.839203 0.218894
H6    H     H_    0.388258 0.886003 0.260564 0.181944
H7    H     H_    0.464300 0.835777 0.202478 0.228584
H8    H     H_    0.645450 0.667273 0.120716 0.151189
H9    H     H_    0.595309 0.663672 0.252986 0.244726
H10   H     H_    0.328811 0.306192 0.229780 0.159977
H11   H     H_    0.387832 0.228287 0.297476 0.225968
H12   H     H_    0.237388 0.475373 0.813047 0.139912
H13   H     H_    0.374980 0.998082 0.066735 0.224784
H14   H     H_    0.300783 0.070009 0.082484 0.173383
H15   H     H_    0.315128 0.923017 0.879329 0.189551
H16   H     H_    0.274195 0.064312 0.858652 0.126489
H17   H     H_    0.298073 0.970050 0.717546 0.184400
H18   H     H_    0.284254 0.273755 0.797205 0.097649
H19   H     H_    0.302382 0.177467 0.647203 0.182695
H20   H     H_    0.289579 0.335101 0.637342 0.157052
H21   H     H_    0.117770 0.697105 0.728590 0.199635
H22   H     H_    0.200434 0.767712 0.764230 0.185702
H23   H     H_    0.261503 0.620622 0.916853 0.173850
H24   H     H_    0.589210 0.664780 0.774048 0.269514
H25   H     H_    0.587272 0.761826 0.907970 0.203206
H26   H     H_    0.103723 0.503341 0.251775 0.203232
H27   H     H_    0.128699 0.660606 0.243586 0.191626
H28   H     H_    0.254629 0.455278 0.194643 0.178553
H29   H     H_    0.289562 0.609016 0.196222 0.197237
H30   H     H_    0.865300 0.653872 0.789078 0.192555
H31   H     H_    0.846187 0.780964 0.711606 0.217131
H32   H     H_    0.728313 0.589152 0.923067 0.163663
H33   H     H_    0.774917 0.489446 0.818170 0.124615
H34   H     H_    0.736727 0.293576 0.603358 0.193493
H35   H     H_    0.679014 0.465483 0.816802 0.230333
H36   H     H_    0.723252 0.531241 0.173429 0.099007
H37   H     H_    0.651868 0.407798 0.129769 0.169900
H38   H     H_    0.741378 0.378675 0.105821 0.182751
H39   H     H_    0.937585 0.559815 0.222234 0.182338
H40   H     H_    0.850054 0.599465 0.182518 0.128028
H41   H     H_    0.883182 0.472587 0.090935 0.181462
H42   H     H_    0.543000 0.148942 0.229964 0.225009
H43   H     H_    0.480760 0.034492 0.171528 0.249836
H44   H     H_    0.680313 0.176480 0.498711 0.200998
H45   H     H_    0.715170 0.140300 0.660537 0.149236
H46   H     H_    0.681729 0.222365 0.905304 0.192973
H47   H     H_    0.606104 0.286238 0.930095 0.193455
H48   H     H_    0.631246 0.068743 0.111590 0.210482
N1    N     N_R   0.047350 0.707225 0.503101 -0.191779
N2    N     N_3   0.594592 0.677840 0.152332 -0.468981
N3    N     N_3   0.383343 0.307934 0.245624 -0.327922
N4    N     N_3   0.355362 0.079325 0.102819 -0.473919
N5    N     N_3   0.170049 0.680013 0.739893 -0.457390
N6    N     N_3   0.596347 0.671763 0.876922 -0.441027
N7    N     N_3   0.147303 0.574331 0.251791 -0.479298
N8    N     N_3   0.287431 0.528126 0.249236 -0.412510
N9    N     N_3   0.868113 0.697247 0.698903 -0.421769
N10   N     N_3   0.491994 0.104467 0.247816 -0.423177
N11   N     N_R   0.976878 0.696354 0.498751 -0.167986
N12   N     N_R   0.969704 0.476482 0.484966 -0.141390
N13   N     N_R   0.039918 0.487314 0.490060 -0.176265
N14   N     N_R   0.499340 0.498800 0.142780 -0.110069
N15   N     N_R   0.499320 0.498720 0.857170 -0.116558
N16   N     N_3   0.628445 0.202764 0.930253 -0.455131
N17   N     N_3   0.452250 0.837395 0.805744 -0.366240
N18   N     N_3   0.433073 0.845631 0.285957 -0.433149
O1    O     O_R   0.500000 0.316780 0.614690 -0.541358
O2    O     O_3   0.633844 0.255175 0.663778 -0.617136
O3    O     O_3   0.548133 0.966130 0.993576 -0.630634
O4    O     O_3   0.384139 0.074557 0.817977 -0.571509
O5    O     O_3   0.387450 0.309530 0.716855 -0.534655
O6    O     O_3   0.722136 0.624789 0.724437 -0.596518
O7    O     O_3   0.707153 0.379148 0.300127 -0.575823
O8    O     O_3   0.853612 0.431381 0.280664 -0.566869
O9    O     O_R   0.499990 0.316750 0.385360 -0.613704
O10   O     O_R   0.398140 0.500000 0.614700 -0.508633
O11   O     O_R   0.398130 0.499970 0.385370 -0.576485
O12   O     O_R   0.500010 0.683250 0.614640 -0.673341
O13   O     O_R   0.500000 0.683220 0.385310 -0.611224
O14   O     O_R   0.601870 0.500030 0.614630 -0.580666
O15   O     O_R   0.601860 0.500000 0.385300 -0.633833
O16   O     O_3   0.309607 0.619996 0.733765 -0.608224
Zn1   Zn    Zn3+2 0.500000 0.500020 0.653130 0.999990
Zn2   Zn    Zn3+2 0.500000 0.499980 0.346870 0.959373

loop_
_geom_bond_atom_site_label_1
_geom_bond_atom_site_label_2
_ccdc_geom_bond_type
H29   N8    S    
C30   N8    S    
C41   C42   A    
C19   C20   A    
C34   N1    A    
C18   O4    S    
O10   Zn1   S    
C7    C8    A    
C37   O6    S    
C31   H23   S    
C37   H35   S    
C26   C27   A    
C29   C30   A    
C24   N6    S    
H22   N5    S    
C28   C29   A    
C16   O13   A    
C39   H40   S    
C26   O16   S    
C5    C6    A    
C32   H44   S    
N14   Zn2   S    
H6    N18   S    
C35   O4    S    
C35   H15   S    
C18   C19   A    
C1    O9    A    
O12   Zn1   S    
C16   O12   A    
H14   N4    S    
C40   N9    S    
C38   O7    S    
C23   N11   A    
C32   H45   S    
C2    C44   A    
C8    C9    A    
H13   N4    S    
O15   Zn2   S    
H8    N2    S    
C19   O5    S    
C31   H12   S    
C4    C12   S    
C36   H19   S    
C9    C10   A    
C21   N14   A    
C20   N15   A    
H25   N6    S    
H4    N17   S    
C28   C34   S    
C13   C14   A    
C38   H38   S    
C33   H2    S    
C22   N2    S    
N1    N11   A    
C36   H18   S    
N12   N13   A    
C29   N7    S    
O11   Zn2   S    
H11   N3    S    
C33   H48   S    
C24   N15   A    
C22   N14   A    
H27   N7    S    
C7    N17   S    
C12   C26   A    
C35   H16   S    
C43   C44   A    
C6    O3    S    
C13   N18   S    
C3    C9    A    
H43   N10   S    
C23   N12   A    
C44   O8    S    
C3    O2    S    
C17   C18   A    
C35   H17   S    
C17   N4    S    
H10   N3    S    
C43   O7    S    
H30   N9    S    
C40   C41   A    
C37   H32   S    
H7    N18   S    
O14   Zn1   S    
C38   H37   S    
O1    Zn1   S    
C33   H3    S    
C14   C16   S    
C42   C43   A    
C39   H41   S    
C41   O6    S    
H42   N10   S    
C2    C23   S    
H26   N7    S    
H5    N17   S    
H28   N8    S    
C15   C17   A    
C37   H33   S    
C27   N5    S    
C8    C14   A    
C32   O2    S    
C12   C30   A    
H9    N2    S    
C34   N13   A    
H47   N16   S    
C1    C10   S    
C3    C5    A    
C25   C42   S    
C6    C7    A    
C39   O8    S    
C33   O3    S    
H46   N16   S    
O9    Zn2   S    
C15   N3    S    
C11   C13   A    
O13   Zn2   S    
C38   H36   S    
C25   O15   A    
C4    O11   A    
C11   N10   S    
C22   C24   A    
C25   O14   A    
H24   N6    S    
C39   H39   S    
C10   C11   A    
C32   H34   S    
C2    C40   A    
C15   C21   A    
C20   C21   A    
H21   N5    S    
C31   H1    S    
C27   C28   A    
H31   N9    S    
C4    O10   A    
N15   Zn1   S    
C31   O16   S    
C36   H20   S    
C36   O5    S    
C1    O1    A    
C5    N16   S    
