data_mof_unit_62924.cif
_audit_creation_date              2012-12-10T18:53:49-0500
_audit_creation_method            fapswitch 2.2
_symmetry_space_group_name_H-M    P1
_symmetry_Int_Tables_number       1
_space_group_crystal_system       monoclinic
_cell_length_a                    19.418426
_cell_length_b                    18.11409
_cell_length_c                    10.861384
_cell_angle_alpha                 90.0
_cell_angle_beta                  89.669743
_cell_angle_gamma                 90.0
_cell_volume                      3820.39703386

loop_
_atom_site_label
_atom_site_type_symbol
_atom_type_description
_atom_site_fract_x
_atom_site_fract_y
_atom_site_fract_z
_atom_type_partial_charge
C1    C     C_R   0.367715 0.499985 0.497854 0.887742
C2    C     C_R   0.632285 0.499985 0.502147 0.887741
C3    C     C_R   0.815751 0.545282 0.422437 -0.209321
C4    C     C_R   0.184249 0.545282 0.577564 -0.209321
C5    C     C_R   0.744052 0.546018 0.423579 0.586254
C6    C     C_R   0.255948 0.546018 0.576421 0.586254
C7    C     C_R   0.707501 0.499853 0.504699 -0.213745
C8    C     C_R   0.292498 0.499853 0.495301 -0.213744
C9    C     C_R   0.964162 0.565021 0.500548 -0.234835
C10   C     C_R   0.035838 0.565021 0.499453 -0.234835
C11   C     C_R   0.072286 0.498164 0.498914 -0.090164
C12   C     C_R   0.927714 0.498164 0.501087 -0.090165
C13   C     C_R   0.035904 0.431041 0.499804 0.565525
C14   C     C_R   0.964096 0.431041 0.500197 0.565526
C15   C     C_R   0.457441 0.721122 0.578398 0.137375
C16   C     C_R   0.542559 0.721122 0.421602 0.137375
C17   C     C_R   0.456618 0.798695 0.579791 -0.202145
C18   C     C_R   0.543381 0.798695 0.420209 -0.202145
C19   C     C_R   0.500000 0.838498 0.500000 0.186992
C20   C     C_R   0.530725 0.961086 0.597187 0.088343
C21   C     C_R   0.469275 0.961086 0.402813 0.088343
C22   C     C_R   0.500037 0.499919 0.262438 0.840122
C23   C     C_R   0.499963 0.499919 0.737562 0.840122
C24   C     C_R   0.530731 0.038893 0.596554 0.564388
C25   C     C_R   0.469269 0.038893 0.403446 0.564388
C26   C     C_R   0.500000 0.078453 0.500000 -0.204720
C27   C     C_R   0.500000 0.921163 0.500000 -0.214088
C28   C     C_R   0.544917 0.201339 0.422332 0.103680
C29   C     C_R   0.455083 0.201339 0.577668 0.103680
C30   C     C_R   0.543828 0.278956 0.424057 0.046670
C31   C     C_R   0.456172 0.278956 0.575943 0.046670
C32   C     C_R   0.500000 0.161200 0.500000 0.139020
C33   C     C_R   0.500025 0.563816 0.062011 -0.031308
C34   C     C_R   0.499974 0.563816 0.937989 -0.031308
C35   C     C_R   0.500004 0.499025 0.129987 -0.068895
C36   C     C_R   0.499996 0.499025 0.870013 -0.068894
C37   C     C_R   0.499981 0.431676 0.064553 -0.149406
C38   C     C_R   0.500019 0.431676 0.935447 -0.149406
C39   C     C_3   0.499844 0.645909 0.929105 0.404154
C40   C     C_3   0.500156 0.645909 0.070895 0.404155
C41   C     C_R   0.743615 0.454023 0.587055 0.076630
C42   C     C_R   0.256385 0.454023 0.412946 0.076630
C43   C     C_R   0.815417 0.454121 0.585719 -0.072798
C44   C     C_R   0.184583 0.454121 0.414282 -0.072798
C45   C     C_R   0.851887 0.498954 0.502753 0.035769
C46   C     C_R   0.148113 0.498954 0.497248 0.035770
Cu1   Cu    Cu3+1 0.500000 0.573360 0.500000 1.053198
Cu2   Cu    Cu3+1 0.500000 0.426640 0.500000 1.000358
H1    H     H_    0.499952 0.379200 0.112363 0.184565
H2    H     H_    0.500048 0.379200 0.887637 0.184565
H3    H     H_    0.423891 0.690852 0.640157 0.156715
H4    H     H_    0.576109 0.690852 0.359843 0.156714
H5    H     H_    0.422411 0.827470 0.642574 0.168729
H6    H     H_    0.577589 0.827470 0.357426 0.168729
H7    H     H_    0.578375 0.309561 0.364561 0.154537
H8    H     H_    0.421625 0.309561 0.635439 0.154537
H9    H     H_    0.452499 0.668708 0.886429 0.124279
H10   H     H_    0.547500 0.668708 0.113571 0.124280
H11   H     H_    0.842808 0.419924 0.650946 0.205245
H12   H     H_    0.157192 0.419923 0.349055 0.205246
H13   H     H_    0.843108 0.580141 0.357540 0.183118
H14   H     H_    0.156892 0.580141 0.642460 0.183118
H15   H     H_    0.937110 0.617313 0.502009 0.194559
H16   H     H_    0.062890 0.617313 0.497991 0.194558
N1    N     N_R   0.500000 0.683620 0.500000 -0.188708
N2    N     N_R   0.500000 0.316380 0.500000 -0.205374
O1    O     O_R   0.400190 0.561980 0.499980 -0.546998
O2    O     O_R   0.599810 0.561980 0.500020 -0.546997
O3    O     O_R   0.400190 0.438070 0.500040 -0.577165
O4    O     O_R   0.599810 0.438070 0.499960 -0.577165
O5    O     O_R   0.500000 0.561960 0.319660 -0.568392
O6    O     O_R   0.500000 0.561960 0.680340 -0.568393
O7    O     O_R   0.500000 0.438060 0.319720 -0.595378
O8    O     O_R   0.500000 0.438060 0.680280 -0.595378
I1    I     I_    0.579758 0.906200 0.745921 -0.082496
I2    I     I_    0.420243 0.906200 0.254079 -0.082496
F1    F     F_    0.561168 0.076216 0.690026 -0.587044
F2    F     F_    0.438832 0.076216 0.309974 -0.587044
I3    I     I_    0.616460 0.148496 0.303322 -0.160564
I4    I     I_    0.383540 0.148496 0.696679 -0.160564
F3    F     F_    0.560758 0.672350 0.879152 -0.629715
F4    F     F_    0.439242 0.672350 0.120848 -0.629715
I5    I     I_    0.693962 0.387199 0.721888 -0.220394
I6    I     I_    0.306037 0.387199 0.278112 -0.220394
F5    F     F_    0.710324 0.590337 0.343075 -0.656938
F6    F     F_    0.289677 0.590337 0.656924 -0.656938
F7    F     F_    0.069787 0.365491 0.502816 -0.594037
F8    F     F_    0.930213 0.365491 0.497185 -0.594037

loop_
_geom_bond_atom_site_label_1
_geom_bond_atom_site_label_2
_ccdc_geom_bond_type
C31   N2    A    
C26   C32   S    
C1    C8    S    
Cu1   O2    S    
C2    C7    S    
Cu2   O3    S    
C4    C46   A    
C22   C35   S    
C21   I2    S    
C35   C37   A    
C8    C42   A    
C29   C32   A    
C2    O2    A    
C41   I5    S    
C4    H14   S    
C18   C19   A    
C28   I3    S    
C33   C35   A    
C20   C24   A    
C15   H3    S    
C31   H8    S    
C19   C27   S    
C9    C10   A    
C43   H11   S    
C5    F5    S    
C21   C27   A    
C13   C14   A    
C41   C43   A    
C42   C44   A    
C23   O6    A    
Cu1   O1    S    
C44   C46   A    
C3    H13   S    
C33   C40   S    
C40   H10   S    
C25   F2    S    
C40   F4    S    
C28   C32   A    
C42   I6    S    
C39   F3    S    
C4    C6    A    
Cu2   O4    S    
C39   C40   S    
C5    C7    A    
C6    C8    A    
C25   C26   A    
C3    C45   A    
C1    O3    A    
C1    O1    A    
C34   C39   S    
C20   I1    S    
C37   C38   A    
Cu2   O8    S    
C37   H1    S    
Cu1   Cu2   S    
C13   F7    S    
C33   C34   A    
C43   C45   A    
C39   H9    S    
Cu1   O5    S    
C30   N2    A    
C12   C14   A    
C23   O8    A    
C17   H5    S    
C22   O5    A    
C15   C17   A    
C21   C25   A    
C9    H15   S    
Cu2   O7    S    
C10   H16   S    
C16   H4    S    
C24   C26   A    
C12   C45   S    
C3    C5    A    
C38   H2    S    
C20   C27   A    
C30   H7    S    
C6    F6    S    
C28   C30   A    
C14   F8    S    
C29   C31   A    
C11   C13   A    
C29   I4    S    
C44   H12   S    
C36   C38   A    
C17   C19   A    
C34   C36   A    
C7    C41   A    
C9    C12   A    
Cu1   O6    S    
C10   C11   A    
C18   H6    S    
C24   F1    S    
C16   C18   A    
C23   C36   S    
C11   C46   S    
C16   N1    A    
C22   O7    A    
Cu2   N2    S    
C2    O4    A    
Cu1   N1    S    
C15   N1    A    
