data_mof_unit_22534.cif
_audit_creation_date              2012-12-10T18:58:13-0500
_audit_creation_method            fapswitch 2.2
_symmetry_space_group_name_H-M    P1
_symmetry_Int_Tables_number       1
_space_group_crystal_system       triclinic
_cell_length_a                    11.104598
_cell_length_b                    10.868349
_cell_length_c                    9.543226
_cell_angle_alpha                 90.521339
_cell_angle_beta                  101.76449
_cell_angle_gamma                 90.168554
_cell_volume                      1127.50489743

loop_
_atom_site_label
_atom_site_type_symbol
_atom_type_description
_atom_site_fract_x
_atom_site_fract_y
_atom_site_fract_z
_atom_type_partial_charge
C1    C     C_R   0.498615 0.262790 0.498970 0.807415
C2    C     C_R   0.497472 0.130336 0.496490 -0.065364
C3    C     C_R   0.489229 0.063264 0.367692 -0.223909
C4    C     C_R   0.490991 0.934235 0.369316 -0.220065
C5    C     C_R   0.502763 0.870408 0.499847 -0.121443
C6    C     C_R   0.514251 0.940595 0.624714 0.078591
C7    C     C_3   0.530814 0.935715 0.785238 0.443471
C8    C     C_3   0.518948 0.078780 0.778347 -0.565230
C9    C     C_R   0.582940 0.570339 0.093994 0.259153
C10   C     C_R   0.414286 0.435750 0.053377 -0.099876
C11   C     C_R   0.414105 0.435969 0.904544 -0.065589
C12   C     C_R   0.263189 0.502098 0.443578 0.878211
C13   C     C_R   0.583377 0.569574 0.946265 0.311575
C14   C     C_3   0.719119 0.552921 0.972876 -0.506864
C15   C     C_3   0.719032 0.555378 0.130834 -0.523025
C16   C     C_R   0.501576 0.737464 0.500760 0.797608
C17   C     C_R   0.736311 0.500021 0.557472 0.843122
C18   C     C_2   0.129309 0.510157 0.416613 -0.461490
C19   C     C_2   0.068001 0.516830 0.524851 0.492896
C20   C     C_2   0.869244 0.498453 0.591106 -0.320949
C21   C     C_2   0.933925 0.519958 0.490541 -0.277819
C22   C     C_R   0.507356 0.064195 0.621507 0.038772
Cu1   Cu    Cu3+1 0.499990 0.499980 0.640670 0.966962
Cu2   Cu    Cu3+1 0.500010 0.500020 0.359330 0.933557
H1    H     H_    0.888357 0.539095 0.381787 0.150368
H2    H     H_    0.604401 0.129584 0.827737 0.184679
H3    H     H_    0.346274 0.381777 0.092447 0.143084
H4    H     H_    0.345907 0.382236 0.832041 0.170412
H5    H     H_    0.746264 0.461891 0.935407 0.212246
H6    H     H_    0.766888 0.632368 0.936905 0.224938
H7    H     H_    0.747007 0.465750 0.182395 0.219497
H8    H     H_    0.765497 0.637893 0.186849 0.196131
H9    H     H_    0.914142 0.478709 0.700442 0.189865
H10   H     H_    0.079557 0.512525 0.306006 0.120028
H11   H     H_    0.481011 0.109646 0.266216 0.157328
H12   H     H_    0.483048 0.885141 0.268686 0.149756
H13   H     H_    0.433864 0.118933 0.802757 0.201369
N1    N     N_R   0.500780 0.500930 0.148120 -0.187866
N2    N     N_R   0.500790 0.500890 0.852210 -0.193843
O1    O     O_R   0.500000 0.319640 0.618810 -0.582543
O2    O     O_R   0.500010 0.319680 0.381230 -0.590827
O3    O     O_R   0.320680 0.500000 0.575130 -0.540002
O4    O     O_R   0.320690 0.500040 0.337550 -0.593485
O5    O     O_R   0.499990 0.680320 0.618770 -0.555705
O6    O     O_R   0.500000 0.680360 0.381190 -0.593415
O7    O     O_R   0.679310 0.499960 0.662450 -0.594470
O8    O     O_R   0.679320 0.500000 0.424870 -0.577299
O9    O     O_3   0.127547 0.507549 0.667443 -0.560787
C23   C     C_3   0.137184 0.625272 0.733885 0.089061
H14   H     H_    0.066492 0.692164 0.681298 0.110526
H15   H     H_    0.229383 0.664556 0.732267 0.202908
C24   C     C_3   0.124699 0.612492 0.889314 -0.831785
H16   H     H_    0.185526 0.538780 0.942394 0.259552
H17   H     H_    0.150444 0.700019 0.948638 0.205672
H18   H     H_    0.028366 0.589633 0.894886 0.232605
O10   O     O_3   0.431193 0.866998 0.818714 -0.570292
C25   C     C_3   0.385461 0.913567 0.936751 0.063269
H19   H     H_    0.438323 0.992022 0.994739 0.119032
H20   H     H_    0.388114 0.837965 0.014786 0.156586
C26   C     C_3   0.252006 0.952963 0.887324 -0.827042
H21   H     H_    0.197227 0.877854 0.825504 0.241105
H22   H     H_    0.211816 0.976126 0.981654 0.206072
H23   H     H_    0.246033 0.034853 0.817824 0.241739
C27   C     C_R   0.658915 0.894378 0.863356 0.086747
C28   C     C_R   0.753100 0.866040 0.788352 -0.169819
C29   C     C_R   0.873508 0.845098 0.861820 -0.148412
C30   C     C_R   0.902311 0.850194 0.010942 -0.125574
C31   C     C_R   0.810549 0.876140 0.086981 -0.147879
C32   C     C_R   0.690077 0.898142 0.014235 -0.152047
H24   H     H_    0.735904 0.863138 0.672822 0.113528
H25   H     H_    0.944750 0.825815 0.802745 0.131829
H26   H     H_    0.995626 0.833895 0.067535 0.128320
H27   H     H_    0.832891 0.880103 0.202777 0.127572
H28   H     H_    0.623081 0.920612 0.077511 0.107563

loop_
_geom_bond_atom_site_label_1
_geom_bond_atom_site_label_2
_ccdc_geom_bond_type
C16   O6    A    
C2    C22   A    
C8    C22   S    
Cu1   Cu2   S    
C4    H12   S    
C15   H7    S    
C6    C7    S    
C8    H13   S    
C8    H2    S    
C16   O5    A    
Cu2   N1    S    
C29   H25   S    
C14   C15   S    
C24   H18   S    
C3    H11   S    
C10   N1    A    
C23   C24   S    
C27   C28   A    
C17   C20   S    
C26   H21   S    
C29   C30   A    
C9    C15   S    
C10   H3    S    
C15   H8    S    
Cu1   O7    S    
C27   C32   A    
C20   C21   D    
C30   C31   A    
C11   N2    A    
Cu2   O2    S    
C18   H10   S    
C25   H19   S    
C4    C5    A    
Cu1   O3    S    
C7    O10   S    
C14   H6    S    
C26   H23   S    
Cu1   N2    S    
Cu2   O6    S    
C11   H4    S    
C1    O2    A    
O9    C23   S    
C19   C21   S    
C24   H17   S    
C18   C19   D    
C12   O4    A    
C2    C3    A    
C28   C29   A    
C5    C6    A    
Cu2   O4    S    
C7    C8    S    
C7    C27   S    
C25   H20   S    
C13   N2    A    
O10   C25   S    
C20   H9    S    
C14   H5    S    
C12   O3    A    
C28   H24   S    
C6    C22   A    
C17   O8    A    
C32   H28   S    
C30   H26   S    
C17   O7    A    
C26   H22   S    
C1    C2    S    
C10   C11   A    
C12   C18   S    
C23   H14   S    
Cu1   O1    S    
C21   H1    S    
C19   O9    S    
C9    N1    A    
C5    C16   S    
C9    C13   A    
C1    O1    A    
C23   H15   S    
C31   H27   S    
C13   C14   S    
Cu2   O8    S    
Cu1   O5    S    
C3    C4    A    
C24   H16   S    
C31   C32   A    
C25   C26   S    
