data_mof_unit_10606.cif
_audit_creation_date              2012-12-11T17:41:36-0500
_audit_creation_method            fapswitch 2.2
_symmetry_space_group_name_H-M    P1
_symmetry_Int_Tables_number       1
_space_group_crystal_system       triclinic
_cell_length_a                    15.51104
_cell_length_b                    14.996988
_cell_length_c                    15.05958
_cell_angle_alpha                 109.697309
_cell_angle_beta                  121.383804
_cell_angle_gamma                 58.888965
_cell_volume                      2549.38137523

loop_
_atom_site_label
_atom_site_type_symbol
_atom_type_description
_atom_site_fract_x
_atom_site_fract_y
_atom_site_fract_z
_atom_type_partial_charge
C1    C     C_R   0.755952 0.992742 0.790859 -0.119861
C2    C     C_R   0.282141 0.300133 0.117715 -0.128331
C3    C     C_R   0.619225 0.690582 0.819376 -0.131951
C4    C     C_R   0.358608 0.202193 0.095784 -0.114314
C5    C     C_R   0.652374 0.744702 0.919029 0.120172
C6    C     C_R   0.321750 0.127361 0.023062 0.114458
C7    C     C_R   0.765636 0.705261 0.990400 -0.172950
C8    C     C_R   0.206959 0.152756 0.970557 -0.190454
C9    C     C_R   0.844019 0.614142 0.962129 -0.105659
C10   C     C_R   0.130709 0.250621 0.993084 -0.120653
C11   C     C_R   0.810230 0.561522 0.862693 -0.101735
C12   C     C_R   0.196717 0.062341 0.226944 -0.134941
C13   C     C_R   0.168318 0.324173 0.066799 -0.099377
C14   C     C_R   0.568943 0.856753 0.044512 -0.246028
C15   C     C_R   0.400604 0.006715 0.903323 -0.238015
C16   C     C_R   0.244204 0.290079 0.491316 -0.118997
C17   C     C_R   0.800699 0.725198 0.558788 -0.123851
C18   C     C_R   0.489158 0.948007 0.071093 0.069524
C19   C     C_R   0.486303 0.921768 0.880274 0.056729
C20   C     C_R   0.402862 0.023481 0.999058 0.015951
C21   C     C_R   0.568635 0.842223 0.947974 0.021560
C22   C     C_2   0.151551 0.397631 0.614369 -0.217565
C23   C     C_R   0.212749 0.299713 0.566543 0.149396
C24   C     C_2   0.978586 0.652255 0.537753 -0.219602
C25   C     C_2   0.135149 0.489260 0.599679 -0.104055
C26   C     C_2   0.039675 0.583024 0.608475 -0.110252
C27   C     C_2   0.847743 0.117588 0.898471 -0.217451
C28   C     C_2   0.016106 0.046020 0.155486 -0.217372
C29   C     C_R   0.230052 0.774179 0.560310 -0.113774
C30   C     C_R   0.770834 0.120108 0.319713 -0.121117
C31   C     C_R   0.318193 0.694790 0.536537 -0.131963
C32   C     C_R   0.675986 0.209243 0.323234 -0.136330
C33   C     C_R   0.298808 0.653622 0.432493 0.109605
C34   C     C_R   0.863159 0.725432 0.518626 0.147668
C35   C     C_R   0.686218 0.292331 0.400988 0.114967
C36   C     C_R   0.189450 0.690613 0.353127 -0.183547
C37   C     C_R   0.793607 0.284696 0.474738 -0.173418
C38   C     C_R   0.101484 0.769884 0.377305 -0.131124
C39   C     C_R   0.888335 0.195563 0.470724 -0.100660
C40   C     C_R   0.591517 0.215642 0.484357 -0.136703
C41   C     C_R   0.405429 0.770954 0.445583 -0.117324
C42   C     C_R   0.121810 0.811806 0.480743 -0.109334
C43   C     C_R   0.876968 0.113323 0.393319 -0.098411
C44   C     C_R   0.391569 0.472031 0.378309 -0.247318
C45   C     C_R   0.498465 0.294660 0.423453 0.061400
C46   C     C_R   0.581202 0.485780 0.420333 -0.241247
C47   C     C_R   0.491039 0.381542 0.392563 0.046555
C48   C     C_R   0.489039 0.575767 0.429219 0.065660
C49   C     C_R   0.584962 0.386834 0.404548 0.029997
C50   C     C_R   0.392363 0.568538 0.407390 0.027171
C51   C     C_2   0.862324 0.104598 0.989754 -0.104396
C52   C     C_2   0.956993 0.114801 0.084554 -0.104792
C53   C     C_R   0.405424 0.984962 0.710940 -0.146532
C54   C     C_R   0.592055 0.953571 0.267533 -0.138878
C55   C     C_R   0.407522 0.284293 0.405347 -0.135461
C56   C     C_R   0.495937 0.675313 0.463842 0.042108
C57   C     C_R   0.591217 0.693011 0.528755 -0.133143
C58   C     C_R   0.590048 0.913889 0.790332 -0.130716
C59   C     C_R   0.405985 0.019885 0.195569 -0.109382
C60   C     C_R   0.243083 0.199679 0.583030 -0.148337
C61   C     C_R   0.801572 0.815138 0.467782 -0.153540
C62   C     C_R   0.756703 0.084746 0.700532 -0.148583
C63   C     C_R   0.195452 0.971534 0.316042 -0.166390
C64   C     C_R   0.787100 0.068628 0.800491 0.148303
C65   C     C_R   0.132694 0.024562 0.227835 0.156007
C66   C     C_R   0.495413 0.933449 0.795259 0.057734
C67   C     C_R   0.496988 0.965184 0.174041 0.044519
C68   C     C_R   0.697901 0.599739 0.791349 -0.119259
H1    H     H_    0.982976 0.995957 0.152564 0.128347
H2    H     H_    0.176974 0.096294 0.913383 0.115598
H3    H     H_    0.931102 0.584531 0.017249 0.100069
H4    H     H_    0.042491 0.269475 0.953334 0.104393
H5    H     H_    0.631498 0.797889 0.099416 0.131794
H6    H     H_    0.338080 0.068564 0.851653 0.130965
H7    H     H_    0.009307 0.585327 0.660191 0.126273
H8    H     H_    0.177345 0.492841 0.562668 0.131911
H9    H     H_    0.009978 0.648689 0.486151 0.138688
H10   H     H_    0.108047 0.395099 0.650758 0.129057
H11   H     H_    0.053614 0.873143 0.499271 0.101455
H12   H     H_    0.892015 0.153732 0.896508 0.127120
H13   H     H_    0.950360 0.044412 0.390347 0.098546
H14   H     H_    0.231927 0.351542 0.458127 0.091451
H15   H     H_    0.828135 0.674176 0.613390 0.082948
H16   H     H_    0.245652 0.806358 0.640442 0.110030
H17   H     H_    0.761991 0.056390 0.259760 0.103783
H18   H     H_    0.401568 0.665629 0.598758 0.105528
H19   H     H_    0.594578 0.213664 0.265516 0.103414
H20   H     H_    0.172779 0.658755 0.272714 0.113031
H21   H     H_    0.804154 0.347002 0.536136 0.103821
H22   H     H_    0.017541 0.798835 0.315865 0.102277
H23   H     H_    0.871098 0.491121 0.840975 0.098646
H24   H     H_    0.970619 0.190154 0.527836 0.102510
H25   H     H_    0.317033 0.469726 0.364474 0.123738
H26   H     H_    0.651992 0.492571 0.430163 0.129975
H27   H     H_    0.677880 0.193971 0.507250 0.111509
H28   H     H_    0.319292 0.788041 0.394101 0.120257
H29   H     H_    0.319278 0.001347 0.683701 0.091409
H30   H     H_    0.677696 0.917018 0.278917 0.095825
H31   H     H_    0.322493 0.320787 0.348313 0.090722
H32   H     H_    0.676871 0.635675 0.559916 0.094067
H33   H     H_    0.675594 0.867032 0.839665 0.104924
H34   H     H_    0.109249 0.399940 0.084072 0.095963
H35   H     H_    0.319648 0.040627 0.141469 0.113495
H36   H     H_    0.230193 0.179238 0.636113 0.096520
H37   H     H_    0.832152 0.846229 0.440563 0.092714
H38   H     H_    0.769270 0.138253 0.680070 0.100520
H39   H     H_    0.163975 0.946405 0.348073 0.103901
H40   H     H_    0.989130 0.164885 0.086087 0.126454
H41   H     H_    0.819100 0.068060 0.992680 0.127766
H42   H     H_    0.768850 0.959448 0.852406 0.089711
H43   H     H_    0.168879 0.119266 0.178167 0.092623
H44   H     H_    0.671695 0.558953 0.714322 0.111009
H45   H     H_    0.311065 0.357460 0.173906 0.116489
H46   H     H_    0.532456 0.718832 0.763408 0.104868
H47   H     H_    0.446356 0.184179 0.135046 0.101200
H48   H     H_    0.793607 0.745730 0.067307 0.103133
N1    N     N_R   0.705410 0.966550 0.689210 -0.046157
N2    N     N_R   0.556610 0.796750 0.548620 -0.037832
N3    N     N_R   0.556610 0.951620 0.703500 -0.040425
N4    N     N_R   0.443390 0.048380 0.296500 -0.042076
N5    N     N_R   0.294590 0.131500 0.522480 -0.041863
N6    N     N_R   0.705410 0.868500 0.477520 -0.039936
N7    N     N_R   0.705410 0.023370 0.632390 -0.042926
N8    N     N_R   0.294590 0.976630 0.367610 -0.041357
N9    N     N_R   0.294590 0.033450 0.310790 -0.044064
N10   N     N_R   0.294590 0.188320 0.465660 -0.045458
N11   N     N_R   0.705410 0.811680 0.534340 -0.043298
N12   N     N_R   0.556610 0.157790 0.497330 -0.040039
N13   N     N_R   0.443390 0.842210 0.502670 -0.041929
N14   N     N_R   0.443390 0.997080 0.657540 -0.036255
N15   N     N_R   0.556610 0.002920 0.342460 -0.038178
N16   N     N_R   0.443390 0.203250 0.451380 -0.039090
Ni1   Ni    Ni4+2 0.629830 0.882720 0.617850 0.214549
Ni2   Ni    Ni4+2 0.370170 0.117280 0.382150 0.214492
Ni3   Ni    Ni4+2 0.629830 0.013030 0.487540 0.213818
Ni4   Ni    Ni4+2 0.370170 0.986970 0.512460 0.213182

loop_
_geom_bond_atom_site_label_1
_geom_bond_atom_site_label_2
_ccdc_geom_bond_type
N9    Ni2   S    
C41   N13   A    
C63   C65   A    
C59   N4    A    
C29   C42   A    
N4    N15   A    
C14   C18   A    
C4    H47   S    
C3    C68   A    
N1    Ni1   S    
C33   C36   A    
C63   N8    A    
C47   C49   A    
C36   H20   S    
C15   C19   A    
C54   N15   A    
C46   C49   A    
N3    Ni1   S    
C14   C21   A    
C35   C37   A    
C24   C26   D    
C38   C42   A    
N15   Ni3   S    
C2    H45   S    
C41   H28   S    
C40   N12   A    
N3    N14   A    
C56   C57   A    
C19   C66   S    
C48   C56   S    
C68   H44   S    
N6    N11   A    
C2    C13   A    
C62   C64   A    
C44   H25   S    
C59   C67   A    
C58   C66   A    
C28   H1    S    
C22   C25   D    
C35   C49   S    
C31   C33   A    
C61   H37   S    
N4    Ni2   S    
C44   C47   A    
C48   C50   A    
C42   H11   S    
C51   H41   S    
C31   H18   S    
C23   C60   A    
C15   C20   A    
N12   N16   A    
C62   N7    A    
C27   C51   D    
C45   C47   S    
C40   C45   A    
C37   C39   A    
C46   C48   A    
N8    N9    A    
N8    Ni4   S    
C51   C52   S    
C14   H5    S    
C9    H3    S    
C22   H10   S    
C29   H16   S    
C4    C6    A    
C27   H12   S    
N12   Ni3   S    
C5    C7    A    
C17   N11   A    
C39   C43   A    
C54   C67   A    
C53   H29   S    
C33   C50   S    
C57   H32   S    
C10   C13   A    
C34   C61   A    
C24   C34   S    
N7    Ni3   S    
C61   N6    A    
C17   H15   S    
C7    H48   S    
C2    C4    A    
C32   C35   A    
C41   C56   A    
C1    H42   S    
N13   Ni4   S    
C46   H26   S    
C16   H14   S    
C26   H7    S    
C58   H33   S    
C1    N1    A    
C30   H17   S    
C53   C66   A    
C9    C11   A    
N10   Ni2   S    
N2    Ni1   S    
C62   H38   S    
N16   Ni2   S    
C16   C23   A    
C43   H13   S    
C30   C43   A    
C17   C34   A    
C40   H27   S    
C63   H39   S    
C1    C64   A    
C39   H24   S    
C11   C68   A    
C44   C50   A    
C7    C9    A    
C19   C21   A    
N14   Ni4   S    
N11   Ni1   S    
C3    C5    A    
C3    H46   S    
C6    C8    A    
C12   N9    A    
C6    C20   S    
C12   C65   A    
C38   H22   S    
C8    H2    S    
C37   H21   S    
C25   H8    S    
C59   H35   S    
C36   C38   A    
C28   C65   S    
C25   C26   S    
N5    N10   A    
C29   C31   A    
N2    N13   A    
C30   C32   A    
C28   C52   D    
C58   N3    A    
C18   C20   A    
N5    Ni4   S    
N1    N7    A    
C60   N5    A    
N6    Ni3   S    
C27   C64   S    
C11   H23   S    
C24   H9    S    
C32   H19   S    
C15   H6    S    
C5    C21   S    
C45   C55   A    
C8    C10   A    
C55   N16   A    
C55   H31   S    
C18   C67   S    
C22   C23   S    
C54   H30   S    
C52   H40   S    
C53   N14   A    
C13   H34   S    
C60   H36   S    
C16   N10   A    
C12   H43   S    
C57   N2    A    
C10   H4    S    
