data_mof_unit_13152.cif
_audit_creation_date              2012-12-11T16:43:10-0500
_audit_creation_method            fapswitch 2.2
_symmetry_space_group_name_H-M    P1
_symmetry_Int_Tables_number       1
_space_group_crystal_system       triclinic
_cell_length_a                    6.921725
_cell_length_b                    23.259227
_cell_length_c                    25.831529
_cell_angle_alpha                 104.703468
_cell_angle_beta                  90.296581
_cell_angle_gamma                 90.361091
_cell_volume                      4022.35374473

loop_
_atom_site_label
_atom_site_type_symbol
_atom_type_description
_atom_site_fract_x
_atom_site_fract_y
_atom_site_fract_z
_atom_type_partial_charge
O1    O     O_R   0.505750 0.453350 0.547660 -0.543975
O2    O     O_R   0.170990 0.432220 0.437590 -0.543431
O3    O     O_R   0.005600 0.546650 0.452340 -0.541279
C1    C     C_R   0.339843 0.415894 0.417099 0.711238
O4    O     O_R   0.175720 0.446240 0.546340 -0.529660
O5    O     O_R   0.010370 0.560770 0.561860 -0.537359
C2    C     C_R   0.344894 0.435994 0.564501 0.689635
O6    O     O_R   0.500990 0.439230 0.438140 -0.537452
O7    O     O_3   0.340820 0.537560 0.504970 -0.372181
V1    V     V_3+5 0.064050 0.493030 0.499080 1.427830
O8    O     O_R   0.680940 0.567780 0.562410 -0.548984
C3    C     C_R   0.850722 0.584229 0.582766 0.715151
O9    O     O_R   0.676210 0.553760 0.453660 -0.544634
C4    C     C_R   0.845117 0.565781 0.437128 0.686115
V2    V     V_3+5 0.564640 0.506970 0.500920 1.403947
O10   O     O_3   0.837740 0.462440 0.495030 -0.363673
C5    C     C_R   0.777418 0.889245 0.127248 0.630057
C6    C     C_R   0.768385 0.853167 0.163019 -0.206834
H1    H     H_    0.632731 0.849643 0.182742 0.137036
C7    C     C_R   0.932521 0.823082 0.174214 0.004426
C8    C     C_R   0.107071 0.830090 0.148773 -0.134449
H2    H     H_    0.235877 0.807068 0.156078 0.119976
C9    C     C_R   0.116707 0.866040 0.112792 -0.202128
H3    H     H_    0.253105 0.869933 0.093603 0.198433
C10   C     C_R   0.952230 0.896046 0.101359 -0.185192
C11   C     C_R   0.071888 0.784590 0.249087 -0.135431
H4    H     H_    0.198716 0.812359 0.250092 0.122993
C12   C     C_R   0.058870 0.749602 0.285763 -0.152412
H5    H     H_    0.176239 0.751481 0.314024 0.114037
C13   C     C_R   0.894875 0.713751 0.286706 0.082702
C14   C     C_R   0.744411 0.713865 0.249904 -0.153161
H6    H     H_    0.617638 0.686039 0.248684 0.107618
C15   C     C_R   0.757159 0.749012 0.213385 -0.151719
H7    H     H_    0.639552 0.747433 0.185236 0.105696
C16   C     C_R   0.920905 0.784901 0.212544 0.117063
C17   C     C_R   0.703713 0.667555 0.348996 -0.135528
H8    H     H_    0.574086 0.689002 0.339893 0.102341
C18   C     C_R   0.691414 0.631851 0.385142 -0.163133
H9    H     H_    0.552368 0.626254 0.402341 0.121524
C19   C     C_R   0.856753 0.604133 0.399095 -0.053996
C20   C     C_R   0.034407 0.612939 0.375865 -0.158209
H10   H     H_    0.164673 0.591998 0.385289 0.119827
C21   C     C_R   0.046442 0.648290 0.339548 -0.144138
H11   H     H_    0.185010 0.652940 0.321723 0.099775
C22   C     C_R   0.881423 0.676169 0.325613 0.097482
C23   C     C_R   0.030825 0.638971 0.665226 -0.197842
C24   C     C_R   0.864834 0.633213 0.632411 -0.086163
C25   C     C_R   0.714229 0.674397 0.647312 -0.223954
C26   C     C_R   0.729943 0.721308 0.693821 0.090616
C27   C     C_R   0.896369 0.726411 0.726595 0.054491
C28   C     C_R   0.046769 0.684863 0.712350 0.087432
C29   C     C_R   0.582490 0.763406 0.708090 -0.172905
C30   C     C_R   0.598297 0.809637 0.754737 -0.178106
C31   C     C_R   0.762133 0.814724 0.787911 0.085167
C32   C     C_R   0.912519 0.773173 0.773676 0.054692
C33   C     C_R   0.078974 0.778295 0.806442 0.092137
C34   C     C_R   0.226383 0.736175 0.792184 -0.181800
C35   C     C_R   0.210565 0.689936 0.745537 -0.186926
C36   C     C_R   0.778175 0.860668 0.834989 -0.206050
C37   C     C_R   0.944305 0.866510 0.867762 -0.075207
C38   C     C_R   0.094808 0.825271 0.852907 -0.224190
H12   H     H_    0.147140 0.607247 0.654421 0.125747
H13   H     H_    0.586102 0.670512 0.622304 0.129731
H14   H     H_    0.454095 0.760374 0.683331 0.139487
H15   H     H_    0.481588 0.841249 0.765034 0.139223
H16   H     H_    0.661859 0.892394 0.845771 0.126436
H17   H     H_    0.222989 0.829191 0.877899 0.125834
H18   H     H_    0.354791 0.739213 0.816938 0.135012
H19   H     H_    0.327277 0.658325 0.735237 0.133331
C39   C     C_R   0.601020 0.174786 0.149583 -0.218352
C40   C     C_R   0.454309 0.131686 0.133949 -0.230357
C41   C     C_R   0.288220 0.135162 0.166434 0.640482
C42   C     C_R   0.266702 0.181770 0.213091 -0.168066
C43   C     C_R   0.413668 0.225375 0.227628 -0.106095
C44   C     C_R   0.581243 0.221715 0.195884 0.165026
C45   C     C_R   0.101303 0.186019 0.245621 0.684730
C46   C     C_R   0.081758 0.233133 0.291294 -0.280717
C47   C     C_R   0.225829 0.276902 0.305805 0.006954
C48   C     C_R   0.393321 0.272793 0.274089 0.088243
C49   C     C_R   0.540837 0.316005 0.288867 0.120806
C50   C     C_R   0.706266 0.311996 0.256967 -0.216224
C51   C     C_R   0.725914 0.265445 0.210840 -0.128981
C52   C     C_R   0.205889 0.324352 0.351747 -0.179097
C53   C     C_R   0.353899 0.367064 0.367256 -0.088504
C54   C     C_R   0.520903 0.362387 0.335375 -0.214056
H20   H     H_    0.728993 0.172490 0.125139 0.155258
H21   H     H_    0.952754 0.235427 0.315315 0.170396
H22   H     H_    0.077267 0.327272 0.376025 0.132128
H23   H     H_    0.635695 0.395211 0.346585 0.123319
H24   H     H_    0.821125 0.344806 0.267798 0.126557
H25   H     H_    0.855279 0.263441 0.187017 0.110135
C55   C     C_R   0.281161 0.100817 0.866669 -0.250269
H26   H     H_    0.160105 0.073522 0.872772 0.115245
C56   C     C_R   0.265840 0.132744 0.827292 0.016501
C57   C     C_R   0.423765 0.168516 0.818898 0.157830
C58   C     C_R   0.593472 0.169854 0.849418 -0.138849
H27   H     H_    0.715411 0.196924 0.843620 0.108213
C59   C     C_R   0.608424 0.136357 0.887366 -0.178844
H28   H     H_    0.742017 0.138048 0.909732 0.112733
C60   C     C_R   0.451832 0.101768 0.896769 -0.029649
C61   C     C_R   0.520467 0.192713 0.731205 -0.118301
C62   C     C_R   0.508481 0.231483 0.697104 0.552436
C63   C     C_R   0.386956 0.281201 0.709386 -0.021680
C64   C     C_R   0.279673 0.293003 0.756643 -0.226035
H29   H     H_    0.186005 0.331310 0.766775 0.148588
C65   C     C_R   0.294961 0.256238 0.791695 -0.139814
H30   H     H_    0.212310 0.266848 0.828357 0.119914
C66   C     C_R   0.414149 0.205916 0.779750 0.042219
C67   C     C_R   0.213396 0.320890 0.640425 -0.085286
H31   H     H_    0.094823 0.290387 0.640825 0.154836
C68   C     C_R   0.204918 0.358567 0.605900 -0.093264
H32   H     H_    0.079842 0.355597 0.579957 0.148971
C69   C     C_R   0.356321 0.398861 0.604115 -0.143820
C70   C     C_R   0.516959 0.401631 0.639597 -0.026099
C71   C     C_R   0.525905 0.361763 0.672573 -0.070861
H33   H     H_    0.648047 0.363192 0.699331 0.147196
C72   C     C_R   0.375163 0.321629 0.673350 0.099085
O11   O     O_R   0.308350 0.060850 0.061810 -0.505666
O12   O     O_R   0.633860 0.053770 0.953650 -0.553735
O13   O     O_R   0.798960 0.939210 0.938150 -0.549079
C73   C     C_R   0.464649 0.065392 0.936644 0.658604
O14   O     O_R   0.638360 0.067800 0.062400 -0.530443
O15   O     O_R   0.803500 0.953330 0.047670 -0.498623
C74   C     C_R   0.469398 0.083672 0.083303 0.806553
O16   O     O_R   0.303810 0.046730 0.952290 -0.549473
O17   O     O_3   0.468430 0.962490 0.995010 -0.365674
V3    V     V_3+5 0.745300 0.006960 0.000930 1.511712
O18   O     O_R   0.132880 0.946160 0.046390 -0.532202
C75   C     C_R   0.963827 0.934361 0.063132 0.803383
O19   O     O_R   0.128380 0.932130 0.937650 -0.553126
C76   C     C_R   0.958573 0.915642 0.917313 0.673829
V4    V     V_3+5 0.244670 0.992930 0.999140 1.511139
O20   O     O_3   0.971670 0.037510 0.005000 -0.371807
F1    F     F_    0.614967 0.918165 0.118973 -0.683776
F2    F     F_    0.148517 0.092529 0.152954 -0.620108
F3    F     F_    0.956615 0.145035 0.233405 -0.612175
C77   C     C_2   0.084558 0.125354 0.795161 0.363300
H34   H     H_    0.961076 0.103139 0.807424 0.076418
O21   O     O_2   0.071478 0.141951 0.754118 -0.518159
C78   C     C_2   0.639980 0.138425 0.713601 0.486955
H35   H     H_    0.741115 0.134677 0.680973 0.139203
O22   O     O_2   0.624242 0.096585 0.733834 -0.522836
F4    F     F_    0.611021 0.219994 0.650906 -0.691899
C79   C     C_2   0.670587 0.447883 0.645953 0.360901
H36   H     H_    0.643858 0.489272 0.635279 0.051915
O23   O     O_2   0.828587 0.440910 0.664637 -0.541850

loop_
_geom_bond_atom_site_label_1
_geom_bond_atom_site_label_2
_ccdc_geom_bond_type
C32   C33   A    
C61   C62   A    
O13   C76   A    
C20   H10   S    
C13   C22   S    
O19   V4    S    
C57   C58   A    
C44   C51   A    
C1    O6    A    
C10   C75   S    
O18   C75   A    
C64   C65   A    
C70   C71   A    
C45   F3    S    
O13   V3    S    
C67   C72   A    
C46   C47   A    
C77   O21   D    
C11   H4    S    
O17   V3    S    
C23   H12   S    
C17   H8    S    
C78   O22   D    
C6    H1    S    
C67   C68   A    
C36   H16   S    
O5    C3    A    
C18   H9    S    
C65   H30   S    
V2    O10   S    
C33   C34   A    
C5    C6    A    
C60   C73   S    
C42   C43   A    
O14   V3    S    
C23   C24   A    
C7    C16   S    
O8    V2    S    
C47   C52   A    
O2    V1    S    
C56   C57   A    
C52   C53   A    
V4    O20   S    
C71   C72   A    
C58   C59   A    
C9    H3    S    
C14   C15   A    
C39   C40   A    
O1    V2    S    
C30   H15   S    
O7    V1    S    
C61   C66   A    
C52   H22   S    
C36   C37   A    
O9    C4    A    
O15   C75   A    
C20   C21   A    
C63   C72   S    
C3    C24   S    
O18   V4    S    
C37   C76   S    
C64   H29   S    
C61   C78   S    
C50   C51   A    
C31   C36   A    
O12   C73   A    
C12   C13   A    
C43   C44   A    
C40   C74   S    
C53   C54   A    
C45   C46   A    
C79   O23   D    
C29   H14   S    
O4    C2    A    
C54   H23   S    
C47   C48   A    
C41   C42   A    
C25   H13   S    
C30   C31   A    
C23   C28   A    
C51   H25   S    
C37   C38   A    
C70   C79   S    
O2    C1    A    
C21   H11   S    
C73   O16   A    
C49   C54   A    
C38   H17   S    
O15   V3    S    
C24   C25   A    
C1    C53   S    
O17   V4    S    
C26   C29   A    
C58   H27   S    
C55   C56   A    
C27   C28   A    
C17   C22   A    
C68   C69   A    
C28   C35   A    
O11   C74   A    
C78   H35   S    
C21   C22   A    
O3    C4    A    
C50   H24   S    
C19   C20   A    
C26   C27   A    
O6    V2    S    
C59   C60   A    
C43   C48   A    
O9    V2    S    
C42   C45   A    
C62   F4    S    
C34   H18   S    
O14   C74   A    
C39   H20   S    
C63   C64   A    
C29   C30   A    
C55   C60   A    
C69   C70   A    
C31   C32   A    
C12   H5    S    
C68   H32   S    
O1    C2    A    
C14   H6    S    
V3    O20   S    
C49   C50   A    
C41   F2    S    
O5    V1    S    
O8    C3    A    
C35   H19   S    
C77   H34   S    
C11   C12   A    
C27   C32   A    
C79   H36   S    
C5    C10   A    
C2    C69   S    
C8    C9    A    
O19   C76   A    
O7    V2    S    
O4    V1    S    
O3    V1    S    
V1    O10   S    
C67   H31   S    
C18   C19   A    
O16   V4    S    
C34   C35   A    
C13   C14   A    
C65   C66   A    
C25   C26   A    
C17   C18   A    
C55   H26   S    
C15   C16   A    
C15   H7    S    
C6    C7    A    
C9    C10   A    
C62   C63   A    
O11   V4    S    
C57   C66   S    
C4    C19   S    
C48   C49   A    
C11   C16   A    
C40   C41   A    
C7    C8    A    
C46   H21   S    
C59   H28   S    
C5    F1    S    
C56   C77   S    
C33   C38   A    
C39   C44   A    
C8    H2    S    
C71   H33   S    
O12   V3    S    
