data_mof_unit_61923.cif
_audit_creation_date              2012-12-10T17:20:55-0500
_audit_creation_method            fapswitch 2.2
_symmetry_space_group_name_H-M    P1
_symmetry_Int_Tables_number       1
_space_group_crystal_system       triclinic
_cell_length_a                    21.764015
_cell_length_b                    21.763624
_cell_length_c                    29.081078
_cell_angle_alpha                 89.997749
_cell_angle_beta                  89.997599
_cell_angle_gamma                 89.999409
_cell_volume                      13774.6550298

loop_
_atom_site_label
_atom_site_type_symbol
_atom_type_description
_atom_site_fract_x
_atom_site_fract_y
_atom_site_fract_z
_atom_type_partial_charge
C1    C     C_R   0.499999 0.119420 0.499993 0.864040
C2    C     C_R   0.720455 0.468522 0.464267 -0.058887
C3    C     C_R   0.184495 0.538523 0.420402 -0.202040
C4    C     C_R   0.461288 0.815503 0.579542 -0.201843
C5    C     C_R   0.815507 0.538612 0.579567 -0.201920
C6    C     C_R   0.538770 0.184478 0.579519 -0.201679
C7    C     C_R   0.184457 0.461547 0.579612 -0.201955
C8    C     C_R   0.961147 0.684511 0.920497 -0.201762
C9    C     C_R   0.315526 0.961407 0.920426 -0.201889
C10   C     C_R   0.038707 0.315521 0.920457 -0.201786
C11   C     C_R   0.684494 0.038479 0.920390 -0.202070
C12   C     C_R   0.961261 0.315499 0.079535 -0.201832
C13   C     C_R   0.531530 0.720451 0.464291 -0.058640
C14   C     C_R   0.315508 0.038609 0.079568 -0.201916
C15   C     C_R   0.038778 0.684479 0.079516 -0.201656
C16   C     C_R   0.684453 0.961594 0.079625 -0.201985
C17   C     C_R   0.432216 0.215141 0.384652 0.174222
C18   C     C_R   0.784907 0.432567 0.384530 0.173724
C19   C     C_R   0.567576 0.784897 0.384576 0.173884
C20   C     C_R   0.215126 0.567344 0.384498 0.173674
C21   C     C_R   0.432387 0.784873 0.615409 0.173929
C22   C     C_R   0.784877 0.567467 0.615456 0.173771
C23   C     C_R   0.567690 0.215099 0.615378 0.173992
C24   C     C_R   0.279552 0.531457 0.464260 -0.059139
C25   C     C_R   0.215078 0.432775 0.615544 0.173432
C26   C     C_R   0.932191 0.715141 0.884659 0.174264
C27   C     C_R   0.284905 0.932563 0.884531 0.173733
C28   C     C_R   0.067601 0.284898 0.884584 0.173907
C29   C     C_R   0.715126 0.067282 0.884477 0.173613
C30   C     C_R   0.932348 0.284870 0.115396 0.173984
C31   C     C_R   0.284879 0.067462 0.115457 0.173759
C32   C     C_R   0.067704 0.715100 0.115371 0.174004
C33   C     C_R   0.715074 0.932846 0.115569 0.173361
C34   C     C_R   0.413944 0.275691 0.390639 -0.271670
C35   C     C_R   0.468446 0.720445 0.535694 -0.058600
C36   C     C_R   0.724342 0.414316 0.390472 -0.270542
C37   C     C_R   0.585831 0.724336 0.390533 -0.270811
C38   C     C_R   0.275685 0.585612 0.390441 -0.270789
C39   C     C_R   0.414123 0.724317 0.609442 -0.270968
C40   C     C_R   0.724318 0.585728 0.609504 -0.270715
C41   C     C_R   0.585941 0.275660 0.609410 -0.270765
C42   C     C_R   0.275651 0.414536 0.609630 -0.269886
C43   C     C_R   0.913918 0.775691 0.890647 -0.271802
C44   C     C_R   0.224341 0.914310 0.890475 -0.270579
C45   C     C_R   0.085854 0.224336 0.890544 -0.270808
C46   C     C_R   0.720447 0.531500 0.535718 -0.058858
C47   C     C_R   0.775685 0.085550 0.890415 -0.270693
C48   C     C_R   0.914082 0.224315 0.109424 -0.271095
C49   C     C_R   0.224319 0.085722 0.109506 -0.270682
C50   C     C_R   0.085954 0.775660 0.109402 -0.270730
C51   C     C_R   0.775649 0.914609 0.109663 -0.269778
C52   C     C_R   0.427341 0.307046 0.431897 0.522448
C53   C     C_R   0.692987 0.427646 0.431720 0.522060
C54   C     C_R   0.572465 0.692979 0.431782 0.522200
C55   C     C_R   0.307026 0.572313 0.431699 0.522011
C56   C     C_R   0.427494 0.692968 0.568190 0.522232
C57   C     C_R   0.531569 0.279550 0.535686 -0.058405
C58   C     C_R   0.692972 0.572394 0.568252 0.522100
C59   C     C_R   0.572543 0.307020 0.568166 0.522302
C60   C     C_R   0.307001 0.427817 0.568385 0.521879
C61   C     C_R   0.927317 0.807048 0.931906 0.522487
C62   C     C_R   0.192987 0.927641 0.931723 0.522054
C63   C     C_R   0.072480 0.192979 0.931791 0.522221
C64   C     C_R   0.807024 0.072267 0.931673 0.521974
C65   C     C_R   0.927460 0.192965 0.068171 0.522270
C66   C     C_R   0.192973 0.072388 0.068255 0.522085
C67   C     C_R   0.072550 0.807020 0.068158 0.522318
C68   C     C_R   0.279536 0.468597 0.535770 -0.059109
C69   C     C_R   0.806998 0.927868 0.068417 0.521840
C70   C     C_3   0.333512 0.355286 0.437910 -0.294432
C71   C     C_3   0.645836 0.333657 0.439068 -0.290509
C72   C     C_3   0.666415 0.645516 0.438741 -0.291777
C73   C     C_3   0.354138 0.666319 0.439048 -0.290500
C74   C     C_3   0.333556 0.645400 0.561370 -0.292265
C75   C     C_3   0.645707 0.666374 0.561057 -0.291054
C76   C     C_3   0.666464 0.354644 0.561375 -0.292351
C77   C     C_3   0.353533 0.333765 0.560252 -0.288359
C78   C     C_3   0.833511 0.855411 0.937772 -0.294866
C79   C     C_R   0.968358 0.779564 0.964341 -0.058265
C80   C     C_3   0.145815 0.833654 0.939044 -0.290536
C81   C     C_3   0.166425 0.145484 0.938716 -0.291897
C82   C     C_3   0.854011 0.166288 0.939174 -0.290040
C83   C     C_3   0.833542 0.145271 0.061504 -0.292690
C84   C     C_3   0.145731 0.166371 0.061029 -0.290950
C85   C     C_3   0.166474 0.854632 0.061351 -0.292331
C86   C     C_3   0.853401 0.833805 0.060124 -0.287913
C87   C     C_R   0.220455 0.968520 0.964268 -0.058898
C88   C     C_R   0.031537 0.220451 0.964294 -0.058596
C89   C     C_R   0.880582 0.500000 0.500002 0.864102
C90   C     C_R   0.779550 0.031435 0.964251 -0.059224
C91   C     C_R   0.968429 0.220443 0.035687 -0.058535
C92   C     C_R   0.220448 0.031497 0.035720 -0.058865
C93   C     C_R   0.031570 0.779550 0.035683 -0.058374
C94   C     C_R   0.779534 0.968619 0.035781 -0.059194
C95   C     C_R   0.477299 0.215958 0.461338 -0.028319
C96   C     C_R   0.784063 0.477438 0.461294 -0.028429
C97   C     C_R   0.522615 0.784059 0.461310 -0.028365
C98   C     C_R   0.215946 0.522531 0.461283 -0.028555
C99   C     C_R   0.477370 0.784051 0.538683 -0.028384
C100  C     C_R   0.500000 0.880581 0.500002 0.864066
C101  C     C_R   0.784053 0.522578 0.538699 -0.028449
C102  C     C_R   0.522654 0.215942 0.538672 -0.028266
C103  C     C_R   0.215928 0.477511 0.538729 -0.028479
C104  C     C_R   0.977286 0.715959 0.961340 -0.028310
C105  C     C_R   0.284062 0.977437 0.961294 -0.028435
C106  C     C_R   0.022622 0.284058 0.961313 -0.028345
C107  C     C_R   0.715945 0.022509 0.961276 -0.028584
C108  C     C_R   0.977353 0.284049 0.038678 -0.028370
C109  C     C_R   0.284054 0.022576 0.038699 -0.028447
C110  C     C_R   0.022656 0.715943 0.038670 -0.028252
C111  C     C_R   0.119417 0.500000 0.499992 0.864127
C112  C     C_R   0.715925 0.977534 0.038737 -0.028501
C113  C     C_R   0.499986 0.311912 0.500007 -0.234681
C114  C     C_R   0.688092 0.500007 0.499994 -0.234339
C115  C     C_R   0.499992 0.688091 0.499994 -0.234468
C116  C     C_R   0.311905 0.500009 0.500009 -0.234158
C117  C     C_R   0.999981 0.811912 0.000007 -0.234705
C118  C     C_R   0.188092 0.000006 0.999995 -0.234328
C119  C     C_R   0.999989 0.188090 0.999993 -0.234510
C120  C     C_R   0.811904 0.000008 0.000010 -0.234118
C121  C     C_R   0.499992 0.184821 0.499998 -0.091697
C122  C     C_R   0.999998 0.619420 0.999992 0.864036
C123  C     C_R   0.815184 0.500003 0.499999 -0.091518
C124  C     C_R   0.499998 0.815182 0.499999 -0.091590
C125  C     C_R   0.184812 0.500005 0.499998 -0.091402
C126  C     C_R   0.999989 0.684822 0.999998 -0.091708
C127  C     C_R   0.315185 0.000002 0.999999 -0.091521
C128  C     C_R   0.999997 0.315182 1.000000 -0.091610
C129  C     C_R   0.684810 0.000005 0.999998 -0.091359
C130  C     C_R   0.621646 0.499998 0.499998 1.100445
C131  C     C_R   0.500000 0.621646 0.499998 1.100271
C132  C     C_R   0.378352 0.499986 0.500002 1.100453
C133  C     C_R   0.380582 0.000000 0.000001 0.864103
C134  C     C_R   0.500008 0.378355 0.500002 1.100171
C135  C     C_R   0.121646 0.999999 0.999998 1.100487
C136  C     C_R   0.000001 0.121645 0.999998 1.100246
C137  C     C_R   0.878352 0.999984 0.000002 1.100429
C138  C     C_R   0.000007 0.878355 0.000002 1.100131
C139  C     C_R   0.500001 0.000001 0.414315 0.846921
C140  C     C_R   0.000000 0.500001 0.414314 0.846904
C141  C     C_R   0.499999 1.000000 0.585685 0.846934
C142  C     C_R   0.999998 0.499999 0.585685 0.846916
C143  C     C_R   0.000001 0.500001 0.914315 0.846924
C144  C     C_R   1.000000 0.380581 0.000003 0.864060
C145  C     C_R   0.500000 0.000001 0.914314 0.846900
C146  C     C_R   0.999999 0.500000 0.085685 0.846938
C147  C     C_R   0.499998 0.999999 0.085685 0.846913
C148  C     C_1   0.500002 0.000003 0.363487 -0.162123
C149  C     C_1   0.999999 0.500003 0.363487 -0.162122
C150  C     C_1   0.499997 0.000001 0.636513 -0.162119
C151  C     C_1   0.999997 0.499998 0.636513 -0.162114
C152  C     C_1   0.000002 0.500003 0.863487 -0.162124
C153  C     C_1   0.499998 0.000003 0.863487 -0.162121
C154  C     C_1   0.999997 0.500000 0.136513 -0.162121
C155  C     C_R   0.619417 0.000000 0.999992 0.864137
C156  C     C_1   0.499996 0.999998 0.136513 -0.162109
C157  C     C_1   0.500001 0.000003 0.321150 0.064109
C158  C     C_1   0.999998 0.500003 0.321149 0.064190
C159  C     C_1   0.499996 0.000001 0.678850 0.064121
C160  C     C_1   0.999996 0.499999 0.678850 0.064214
C161  C     C_1   0.000001 0.500003 0.821150 0.064099
C162  C     C_1   0.499997 0.000003 0.821149 0.064200
C163  C     C_1   0.999996 0.500001 0.178850 0.064110
C164  C     C_1   0.499995 0.999999 0.178850 0.064231
C165  C     C_1   0.499998 0.000003 0.271169 0.071585
C166  C     C_R   0.468372 0.279564 0.464337 -0.058319
C167  C     C_1   0.999997 0.500002 0.271169 0.071622
C168  C     C_1   0.499996 0.000002 0.728831 0.071583
C169  C     C_1   0.999998 0.500001 0.728831 0.071639
C170  C     C_1   0.999999 0.500002 0.771169 0.071568
C171  C     C_1   0.499997 0.000002 0.771169 0.071638
C172  C     C_1   0.999997 0.500002 0.228831 0.071568
C173  C     C_1   0.499997 0.000001 0.228831 0.071660
C174  C     C_R   0.461166 0.184510 0.420492 -0.201764
C175  C     C_R   0.815528 0.461409 0.420426 -0.201888
C176  C     C_R   0.538690 0.815520 0.420452 -0.201811
H1    H     H_    0.471253 0.136233 0.415885 0.156116
H2    H     H_    0.363812 0.971478 0.915850 0.156118
H3    H     H_    0.028634 0.363805 0.915870 0.156130
H4    H     H_    0.636210 0.028402 0.915819 0.156091
H5    H     H_    0.971342 0.363780 0.084130 0.156119
H6    H     H_    0.363791 0.028533 0.084149 0.156113
H7    H     H_    0.028704 0.636196 0.084110 0.156137
H8    H     H_    0.636162 0.971656 0.084177 0.156113
H9    H     H_    0.387443 0.297750 0.363842 0.176514
H10   H     H_    0.702255 0.387859 0.363663 0.176901
H11   H     H_    0.612312 0.702257 0.363733 0.176776
H12   H     H_    0.863813 0.471480 0.415851 0.156120
H13   H     H_    0.297779 0.612059 0.363627 0.176949
H14   H     H_    0.387633 0.702239 0.636239 0.176751
H15   H     H_    0.702228 0.612192 0.636309 0.176868
H16   H     H_    0.612439 0.297732 0.636202 0.176693
H17   H     H_    0.297760 0.388107 0.636449 0.177162
H18   H     H_    0.887419 0.797746 0.863848 0.176481
H19   H     H_    0.202254 0.887852 0.863666 0.176892
H20   H     H_    0.112340 0.202259 0.863745 0.176760
H21   H     H_    0.797784 0.111987 0.863597 0.177001
H22   H     H_    0.887589 0.202240 0.136220 0.176708
H23   H     H_    0.528617 0.863805 0.415866 0.156127
H24   H     H_    0.202230 0.112186 0.136312 0.176876
H25   H     H_    0.112459 0.797733 0.136190 0.176692
H26   H     H_    0.797762 0.888194 0.136488 0.177224
H27   H     H_    0.316761 0.310490 0.451661 0.152146
H28   H     H_    0.318854 0.361493 0.401638 0.177902
H29   H     H_    0.310765 0.391529 0.458249 0.196262
H30   H     H_    0.689970 0.318049 0.454641 0.151932
H31   H     H_    0.642046 0.317621 0.402936 0.176148
H32   H     H_    0.608651 0.311116 0.458560 0.196630
H33   H     H_    0.682363 0.689883 0.453740 0.151971
H34   H     H_    0.136212 0.528444 0.415827 0.156096
H35   H     H_    0.682055 0.640951 0.402561 0.176731
H36   H     H_    0.689009 0.608639 0.458525 0.196568
H37   H     H_    0.309995 0.681905 0.454620 0.151946
H38   H     H_    0.357924 0.682361 0.402916 0.176171
H39   H     H_    0.391311 0.688872 0.458542 0.196631
H40   H     H_    0.317487 0.689855 0.546585 0.151990
H41   H     H_    0.318063 0.640547 0.597565 0.176955
H42   H     H_    0.310939 0.608644 0.541478 0.196546
H43   H     H_    0.689944 0.682115 0.545722 0.151953
H44   H     H_    0.641592 0.682250 0.597210 0.176397
H45   H     H_    0.471368 0.863784 0.584134 0.156119
H46   H     H_    0.608655 0.688939 0.541441 0.196602
H47   H     H_    0.682576 0.310186 0.546623 0.151985
H48   H     H_    0.681921 0.359542 0.597573 0.176961
H49   H     H_    0.689077 0.391395 0.541472 0.196527
H50   H     H_    0.309877 0.318866 0.543581 0.151896
H51   H     H_    0.355814 0.316952 0.596259 0.175151
H52   H     H_    0.391281 0.311304 0.541329 0.196803
H53   H     H_    0.816641 0.810563 0.951344 0.152173
H54   H     H_    0.819005 0.861848 0.901488 0.178089
H55   H     H_    0.810739 0.891568 0.958182 0.196202
H56   H     H_    0.863790 0.528535 0.584149 0.156112
H57   H     H_    0.189965 0.818022 0.954577 0.151939
H58   H     H_    0.141970 0.817646 0.902908 0.176170
H59   H     H_    0.108651 0.811109 0.958556 0.196629
H60   H     H_    0.182405 0.189873 0.953661 0.151974
H61   H     H_    0.182028 0.140845 0.902533 0.176781
H62   H     H_    0.189023 0.108637 0.958528 0.196562
H63   H     H_    0.809963 0.181737 0.954970 0.151935
H64   H     H_    0.857492 0.182484 0.903062 0.175959
H65   H     H_    0.891303 0.188824 0.958551 0.196659
H66   H     H_    0.817342 0.189796 0.046919 0.152012
H67   H     H_    0.528695 0.136196 0.584112 0.156136
H68   H     H_    0.818204 0.140154 0.097715 0.177146
H69   H     H_    0.810903 0.108615 0.041521 0.196504
H70   H     H_    0.189950 0.182085 0.045649 0.151950
H71   H     H_    0.141676 0.182279 0.097177 0.176351
H72   H     H_    0.108656 0.188932 0.041435 0.196609
H73   H     H_    0.182575 0.810169 0.046600 0.151986
H74   H     H_    0.181942 0.859534 0.097547 0.176956
H75   H     H_    0.189087 0.891375 0.041441 0.196542
H76   H     H_    0.809865 0.819058 0.043206 0.151897
H77   H     H_    0.855334 0.816835 0.096102 0.174936
H78   H     H_    0.136167 0.471610 0.584169 0.156118
H79   H     H_    0.891280 0.811353 0.041343 0.196814
H80   H     H_    0.971235 0.636234 0.915888 0.156115
I1    I     I_    0.589519 0.167793 0.676591 -0.320499
I2    I     I_    0.332173 0.089192 0.176691 -0.320789
I3    I     I_    0.910550 0.332157 0.176622 -0.320651
I4    I     I_    0.667751 0.911222 0.176815 -0.320786
I5    I     I_    0.089392 0.332203 0.823363 -0.320595
I6    I     I_    0.332213 0.910836 0.823300 -0.320753
I7    I     I_    0.910355 0.667862 0.823438 -0.320685
I8    I     I_    0.667836 0.088934 0.823225 -0.320944
I9    I     I_    0.832169 0.589196 0.676690 -0.320789
I10   I     I_    0.410600 0.832163 0.676636 -0.320662
I11   I     I_    0.167757 0.411121 0.676785 -0.320751
I12   I     I_    0.589356 0.832201 0.323351 -0.320623
I13   I     I_    0.832216 0.410842 0.323299 -0.320740
I14   I     I_    0.410384 0.167861 0.323430 -0.320675
I15   I     I_    0.167837 0.589022 0.323250 -0.320910
I16   I     I_    0.089542 0.667795 0.176583 -0.320460
O1    O     O_R   0.551720 0.091610 0.499990 -0.610585
O2    O     O_R   0.408390 0.051720 0.999990 -0.610570
O3    O     O_R   0.948280 0.408390 0.999990 -0.610549
O4    O     O_R   0.591610 0.948280 0.999990 -0.610617
O5    O     O_R   0.051720 0.408390 0.000010 -0.610576
O6    O     O_R   0.408390 0.948280 0.000010 -0.610583
O7    O     O_R   0.948280 0.591610 0.000010 -0.610514
O8    O     O_R   0.591610 0.051720 0.000010 -0.610553
O9    O     O_R   0.551720 0.000010 0.436860 -0.592781
O10   O     O_R   0.999990 0.551720 0.436860 -0.592775
O11   O     O_R   0.448280 0.999990 0.436860 -0.592797
O12   O     O_R   0.908390 0.551720 0.499990 -0.610566
O13   O     O_R   0.000010 0.448280 0.436860 -0.592812
O14   O     O_R   0.551720 0.999990 0.563140 -0.592801
O15   O     O_R   0.999990 0.448280 0.563140 -0.592782
O16   O     O_R   0.448280 0.000010 0.563140 -0.592769
O17   O     O_R   0.000010 0.551720 0.563140 -0.592796
O18   O     O_R   0.051720 0.500010 0.936860 -0.592784
O19   O     O_R   0.499990 0.051720 0.936860 -0.592774
O20   O     O_R   0.948280 0.499990 0.936860 -0.592795
O21   O     O_R   0.500010 0.948280 0.936860 -0.592814
O22   O     O_R   0.051720 0.499990 0.063140 -0.592803
O23   O     O_R   0.448280 0.908390 0.499990 -0.610556
O24   O     O_R   0.499990 0.948280 0.063140 -0.592779
O25   O     O_R   0.948280 0.500010 0.063140 -0.592766
O26   O     O_R   0.500010 0.051720 0.063140 -0.592797
O27   O     O_R   0.591590 0.499990 0.535660 -0.583801
O28   O     O_R   0.500010 0.591590 0.535660 -0.583804
O29   O     O_R   0.408410 0.500010 0.535660 -0.583736
O30   O     O_R   0.499990 0.408410 0.535660 -0.583752
O31   O     O_R   0.591590 0.500010 0.464340 -0.583772
O32   O     O_R   0.500010 0.408410 0.464340 -0.583811
O33   O     O_R   0.408410 0.499990 0.464340 -0.583849
O34   O     O_R   0.091610 0.448280 0.499990 -0.610615
O35   O     O_R   0.499990 0.591590 0.464340 -0.583784
O36   O     O_R   0.091590 0.999990 0.035660 -0.583797
O37   O     O_R   0.000010 0.091590 0.035660 -0.583801
O38   O     O_R   0.908410 0.000010 0.035660 -0.583725
O39   O     O_R   0.999990 0.908410 0.035660 -0.583757
O40   O     O_R   0.091590 0.000010 0.964340 -0.583778
O41   O     O_R   0.000010 0.908410 0.964340 -0.583804
O42   O     O_R   0.908410 0.999990 0.964340 -0.583847
O43   O     O_R   0.999990 0.091590 0.964340 -0.583778
O44   O     O_3   0.397937 0.362053 0.441994 -0.602370
O45   O     O_R   0.551720 0.908390 0.500010 -0.610573
O46   O     O_3   0.638053 0.398096 0.441686 -0.602012
O47   O     O_3   0.601973 0.638026 0.441796 -0.602134
O48   O     O_3   0.361948 0.601883 0.441663 -0.601990
O49   O     O_3   0.397997 0.638014 0.558156 -0.602179
O50   O     O_3   0.638036 0.601933 0.558264 -0.602064
O51   O     O_3   0.602021 0.361986 0.558127 -0.602199
O52   O     O_3   0.361892 0.398181 0.558498 -0.601857
O53   O     O_3   0.897931 0.862066 0.942011 -0.602413
O54   O     O_3   0.138051 0.898094 0.941692 -0.602009
O55   O     O_3   0.101983 0.138024 0.941811 -0.602146
O56   O     O_R   0.908390 0.448280 0.500010 -0.610584
O57   O     O_3   0.861938 0.101855 0.941619 -0.601944
O58   O     O_3   0.897982 0.138001 0.058125 -0.602217
O59   O     O_3   0.138038 0.101930 0.058270 -0.602057
O60   O     O_3   0.102031 0.861983 0.058114 -0.602196
O61   O     O_3   0.861881 0.898212 0.058553 -0.601821
O62   O     O_R   0.448280 0.091610 0.500010 -0.610523
O63   O     O_R   0.091610 0.551720 0.500010 -0.610551
O64   O     O_R   0.051720 0.591610 0.999990 -0.610591
Zn1   Zn    Zn3+2 0.569070 0.000000 0.500000 0.997714
Zn2   Zn    Zn3+2 0.500000 0.500000 0.452400 1.114808
Zn3   Zn    Zn3+2 0.000000 0.000000 0.047600 1.115187
Zn4   Zn    Zn3+2 0.000000 0.000000 0.952400 1.114797
Zn5   Zn    Zn3+2 0.000000 0.569070 0.500000 0.997712
Zn6   Zn    Zn3+2 0.430930 0.000000 0.500000 0.997772
Zn7   Zn    Zn3+2 0.000000 0.430930 0.500000 0.997651
Zn8   Zn    Zn3+2 0.069070 0.500000 0.000000 0.997707
Zn9   Zn    Zn3+2 0.500000 0.069070 0.000000 0.997705
Zn10  Zn    Zn3+2 0.930930 0.500000 0.000000 0.997789
Zn11  Zn    Zn3+2 0.500000 0.930930 0.000000 0.997648
Zn12  Zn    Zn3+2 0.500000 0.500000 0.547600 1.115170

loop_
_geom_bond_atom_site_label_1
_geom_bond_atom_site_label_2
_ccdc_geom_bond_type
C14   C109  A    
C78   O53   S    
C130  O31   A    
C111  O34   A    
C8    C26   A    
C8    C104  A    
C132  O33   A    
C107  C129  A    
O56   Zn7   S    
C74   O49   S    
C15   C32   A    
C76   H48   S    
C86   H77   S    
C57   C102  A    
C9    C27   A    
C43   H18   S    
C24   C98   A    
C90   C107  A    
C97   C124  A    
C71   O46   S    
C92   C109  A    
C57   C59   A    
C75   O50   S    
C81   H62   S    
O31   Zn2   S    
C19   C176  A    
C36   C53   A    
C19   C37   A    
C175  H12   S    
C109  C127  A    
C162  C171  S    
C111  C125  S    
C35   C115  A    
C70   O44   S    
C112  C129  A    
C141  O16   A    
C93   C110  A    
C12   C30   A    
C3    H34   S    
C71   H31   S    
O25   Zn10  S    
C77   H50   S    
C114  C130  S    
C100  O23   A    
C91   C108  A    
C14   H6    S    
C158  C167  S    
C70   H28   S    
C5    C101  A    
C40   C58   A    
C150  C159  T    
C139  O9    A    
C80   H58   S    
C60   O52   S    
C87   C118  A    
C113  C166  A    
C12   C108  A    
C78   H55   S    
C83   H68   S    
C8    H80   S    
C100  C124  S    
C142  C151  S    
O36   Zn3   S    
C12   H5    S    
C146  C154  S    
C147  O26   A    
C75   H43   S    
C164  C173  S    
O18   Zn8   S    
C88   C119  A    
C163  C172  S    
C128  C144  S    
C174  H1    S    
C13   C115  A    
C68   C116  A    
C132  O29   A    
C84   H71   S    
C82   O57   S    
C73   H38   S    
C33   C51   A    
C17   C34   A    
C176  H23   S    
C95   C166  A    
C43   C61   A    
C13   C54   A    
C65   C91   A    
C58   O50   S    
C140  O10   A    
C155  O4    A    
C2    C53   A    
C66   C92   A    
C16   H8    S    
C67   O60   S    
C130  O27   A    
C119  C136  S    
C23   C41   A    
C62   O54   S    
O37   Zn3   S    
C2    C96   A    
C138  O39   A    
C2    C114  A    
C3    C98   A    
C37   H11   S    
C84   O59   S    
O1    Zn1   S    
C6    C102  A    
C13   C97   A    
C77   H52   S    
O22   Zn8   S    
C51   C69   A    
C85   H73   S    
C96   C175  A    
C53   O46   S    
C68   C103  A    
C14   C31   A    
C38   C55   A    
O8    Zn9   S    
C146  O22   A    
C78   H53   S    
C83   H66   S    
C29   C47   A    
C10   H3    S    
C30   C48   A    
C147  O24   A    
C9    C105  A    
C4    H45   S    
C88   C106  A    
C84   H70   S    
C61   O53   S    
C92   C118  A    
C137  O38   A    
C94   C120  A    
C27   C44   A    
C98   C125  A    
C87   C105  A    
O6    Zn11  S    
C144  O5    A    
C102  C121  A    
C50   C67   A    
C152  C161  T    
C51   H26   S    
C142  O15   A    
O62   Zn6   S    
C45   H20   S    
C7    C103  A    
C46   C58   A    
C74   H42   S    
C93   C117  A    
C66   O59   S    
O38   Zn3   S    
C135  O36   A    
C136  O43   A    
C46   C101  A    
C139  C148  S    
C81   H60   S    
O15   Zn7   S    
C49   C66   A    
C105  C127  A    
C157  C165  S    
C57   C113  A    
C26   I7    S    
C27   I6    S    
C48   H22   S    
C90   C120  A    
O33   Zn2   S    
C42   H17   S    
O42   Zn4   S    
C72   H33   S    
C116  C132  S    
O16   Zn6   S    
C82   H63   S    
C83   H69   S    
C108  C128  A    
O35   Zn2   S    
C21   I10   S    
C110  C126  A    
C85   H75   S    
C7    H78   S    
C48   C65   A    
C91   C119  A    
C10   C106  A    
C37   C54   A    
O39   Zn3   S    
C56   O49   S    
O63   Zn5   S    
C131  O35   A    
C89   O12   A    
C96   C123  A    
C35   C56   A    
C24   C116  A    
C11   H4    S    
C84   H72   S    
O26   Zn9   S    
C80   O54   S    
O64   Zn8   S    
C11   C29   A    
C61   C79   A    
C94   C112  A    
C81   H61   S    
C31   I2    S    
C148  C157  T    
C103  C125  A    
C1    C121  S    
C9    H2    S    
C143  O20   A    
C4    C99   A    
C67   C93   A    
C47   H21   S    
C85   O60   S    
C140  C149  S    
C99   C124  A    
C136  O37   A    
C81   O55   S    
C63   C88   A    
C117  C138  S    
C64   C90   A    
C55   O48   S    
C70   H29   S    
C86   O61   S    
C72   H35   S    
C106  C128  A    
C29   I8    S    
C23   I1    S    
C25   I11   S    
C75   H46   S    
C15   H7    S    
C160  C169  S    
C141  C150  S    
O28   Zn12  S    
C95   C121  A    
C76   H49   S    
O5    Zn8   S    
O9    Zn1   S    
C15   C110  A    
C73   H37   S    
C31   C49   A    
C76   H47   S    
C86   H76   S    
C111  O63   A    
O43   Zn4   S    
C69   C94   A    
C129  C155  S    
O21   Zn11  S    
C133  O6    A    
C82   H65   S    
C34   H9    S    
C143  O18   A    
C69   O61   S    
C38   H13   S    
C5    H56   S    
C3    C20   A    
C79   C104  A    
C147  C156  S    
C135  O40   A    
O19   Zn9   S    
C143  C152  S    
C137  O42   A    
C113  C134  S    
C83   O58   S    
C32   I16   S    
C54   O47   S    
C122  O64   A    
C47   C64   A    
C138  O41   A    
C17   C174  A    
C16   C112  A    
C50   H25   S    
C10   C28   A    
C70   H27   S    
C44   H19   S    
C52   O44   S    
C59   O51   S    
O2    Zn9   S    
C80   H57   S    
C127  C133  S    
C17   I14   S    
C25   C42   A    
C20   I15   S    
C167  C172  T    
C76   O51   S    
C78   H54   S    
C62   C87   A    
C34   C52   A    
C7    C25   A    
C153  C162  T    
C22   I9    S    
C40   H15   S    
C75   H44   S    
C79   C117  A    
O24   Zn11  S    
O13   Zn7   S    
C60   C68   A    
O12   Zn5   S    
C73   H39   S    
C145  O21   A    
C120  C137  S    
C18   C36   A    
C118  C135  S    
C28   I5    S    
C4    C21   A    
O11   Zn6   S    
C169  C170  T    
C122  O7    A    
C115  C131  S    
C24   C55   A    
C101  C123  A    
C144  O3    A    
C95   C174  A    
C63   O55   S    
C142  O17   A    
O30   Zn12  S    
C165  C173  T    
C159  C168  S    
C33   I4    S    
O29   Zn12  S    
O17   Zn5   S    
C145  O19   A    
C52   C166  A    
C71   H30   S    
C5    C22   A    
C39   C56   A    
C82   H64   S    
C1    O1    A    
C145  C153  S    
C18   C175  A    
C85   H74   S    
C97   C176  A    
C80   H59   S    
C134  O32   A    
C35   C99   A    
C26   C43   A    
O40   Zn4   S    
C168  C171  T    
O4    Zn11  S    
C28   C45   A    
C46   C114  A    
C30   I3    S    
C154  C163  T    
C41   C59   A    
C42   C60   A    
C39   H14   S    
C89   C123  S    
C44   C62   A    
C86   H79   S    
C45   C63   A    
C122  C126  S    
C155  O8    A    
C16   C33   A    
C20   C38   A    
C72   O47   S    
C21   C39   A    
C22   C40   A    
O7    Zn10  S    
C32   C50   A    
O34   Zn7   S    
C161  C170  S    
O41   Zn4   S    
C11   C107  A    
C6    H67   S    
C73   O48   S    
C141  O14   A    
C149  C158  T    
C146  O25   A    
O20   Zn10  S    
C71   H32   S    
C133  O2    A    
C41   H16   S    
C74   H40   S    
C100  O45   A    
C64   O57   S    
C77   H51   S    
O27   Zn12  S    
C139  O11   A    
C151  C160  T    
O14   Zn1   S    
O3    Zn10  S    
O45   Zn1   S    
C1    O62   A    
C72   H36   S    
O10   Zn5   S    
C6    C23   A    
C74   H41   S    
C77   O52   S    
O32   Zn2   S    
C36   H10   S    
C131  O28   A    
C104  C126  A    
C156  C164  T    
C89   O56   A    
C134  O30   A    
O23   Zn6   S    
C140  O13   A    
C18   I13   S    
C65   O58   S    
C19   I12   S    
C49   H24   S    
