data_mof_unit_7242.cif
_audit_creation_date              2012-12-11T14:17:38-0500
_audit_creation_method            fapswitch 2.2
_symmetry_space_group_name_H-M    P1
_symmetry_Int_Tables_number       1
_space_group_crystal_system       triclinic
_cell_length_a                    6.970821
_cell_length_b                    13.841077
_cell_length_c                    20.45575
_cell_angle_alpha                 102.01834
_cell_angle_beta                  90.412546
_cell_angle_gamma                 89.971986
_cell_volume                      1930.33442357

loop_
_atom_site_label
_atom_site_type_symbol
_atom_type_description
_atom_site_fract_x
_atom_site_fract_y
_atom_site_fract_z
_atom_type_partial_charge
O1    O     O_R   0.506860 0.599390 0.449240 -0.531764
O2    O     O_R   0.180220 0.594600 0.586780 -0.552135
O3    O     O_R   0.004500 0.400610 0.550760 -0.545642
C1    C     C_R   0.348779 0.608456 0.615606 0.605960
O4    O     O_R   0.177490 0.611290 0.451970 -0.548733
O5    O     O_R   0.001750 0.417420 0.414990 -0.521825
C2    C     C_R   0.344989 0.632498 0.431748 0.728001
O6    O     O_R   0.509610 0.582580 0.585010 -0.539292
O7    O     O_3   0.337420 0.436370 0.488020 -0.373287
V1    V     V_3+5 0.064680 0.511800 0.502220 1.441511
O8    O     O_R   0.671710 0.405400 0.413220 -0.560955
C3    C     C_R   0.839463 0.390463 0.384996 0.643699
O9    O     O_R   0.674440 0.388710 0.548030 -0.546451
C4    C     C_R   0.844792 0.362394 0.564438 0.687300
V2    V     V_3+5 0.564010 0.488200 0.497780 1.426244
O10   O     O_3   0.841140 0.563630 0.511980 -0.368556
C5    C     C_R   0.891463 0.112948 0.607787 0.468481
H1    H     H_    0.829518 0.170329 0.519367 0.119143
C6    C     C_R   0.861277 0.287008 0.604880 -0.160065
C7    C     C_R   0.809613 0.308577 0.924647 0.229926
C8    C     C_R   0.778721 0.380089 0.885943 0.342303
C9    C     C_R   0.810109 0.356464 0.817513 -0.200256
C10   C     C_R   0.867369 0.261400 0.783894 -0.000937
C11   C     C_R   0.881113 0.185752 0.821538 -0.092163
C12   C     C_R   0.891126 0.238566 0.712846 -0.033113
C13   C     C_R   0.903547 0.138214 0.678974 -0.144220
C14   C     C_R   0.930133 0.064522 0.716676 0.361928
C15   C     C_R   0.911547 0.086791 0.787059 0.197161
C16   C     C_R   0.900147 0.312787 0.674195 0.309726
C17   C     C_R   0.855951 0.188087 0.572587 -0.327135
C18   C     C_R   0.856717 0.211372 0.892675 -0.149617
H2    H     H_    0.775100 0.413925 0.791386 0.192565
C19   C     C_2   0.992315 0.281367 0.287030 0.327931
C20   C     C_2   0.844562 0.341546 0.312595 0.169170
C21   C     C_2   0.006008 0.230891 0.214563 0.308654
C22   C     C_2   0.856420 0.178415 0.182499 0.152134
C23   C     C_2   0.217327 0.763840 0.791756 -0.123118
C24   C     C_2   0.363329 0.825305 0.816439 0.247918
H3    H     H_    0.091858 0.760943 0.822456 0.106364
C25   C     C_2   0.209881 0.706049 0.721010 -0.148900
C26   C     C_2   0.362211 0.658554 0.688050 0.272084
H4    H     H_    0.071745 0.702923 0.695774 0.105029
C27   C     C_R   0.432218 0.877802 0.388396 0.359915
C28   C     C_R   0.355210 0.710033 0.393333 -0.310041
C29   C     C_R   0.293700 0.691327 0.075037 0.099959
C30   C     C_R   0.318992 0.612248 0.108503 0.324382
C31   C     C_R   0.383977 0.632091 0.174706 0.457056
C32   C     C_R   0.388206 0.731006 0.212261 -0.133257
C33   C     C_R   0.395761 0.808546 0.176143 -0.116679
C34   C     C_R   0.385223 0.755121 0.283978 -0.025493
C35   C     C_R   0.435480 0.852261 0.317480 -0.146641
C36   C     C_R   0.485966 0.922503 0.279857 0.247028
C37   C     C_R   0.439155 0.905462 0.211372 0.265517
C38   C     C_R   0.322187 0.687763 0.323310 0.274947
C39   C     C_R   0.408205 0.805964 0.425889 0.270734
C40   C     C_R   0.355937 0.786484 0.106104 -0.135062
O11   O     O_R   0.203230 0.917310 0.915020 -0.540572
O12   O     O_R   0.535500 0.888690 0.048040 -0.544648
O13   O     O_R   0.711080 0.082610 0.085000 -0.541009
C41   C     C_R   0.366561 0.862170 0.064819 0.903670
O14   O     O_R   0.532630 0.905370 0.913230 -0.545560
O15   O     O_R   0.708190 0.099410 0.949230 -0.544549
C42   C     C_R   0.364220 0.884884 0.886355 0.609880
O16   O     O_R   0.206120 0.900510 0.050790 -0.537510
O17   O     O_3   0.375360 0.063570 0.011990 -0.365824
V3    V     V_3+5 0.648170 0.988200 0.997780 1.538559
O18   O     O_R   0.038240 0.111390 0.951940 -0.538170
C43   C     C_R   0.868693 0.137346 0.934990 0.898555
O19   O     O_R   0.041120 0.094710 0.086750 -0.517818
C44   C     C_R   0.871873 0.116271 0.113312 0.715058
V4    V     V_3+5 0.148810 0.011930 0.002180 1.572347
O20   O     O_3   0.871750 0.936430 0.988010 -0.381288
O21   O     O_3   0.704256 0.363509 0.269712 -0.613160
H5    H     H_    0.615023 0.412778 0.295344 0.311106
O22   O     O_3   0.178986 0.231263 0.181940 -0.635274
H6    H     H_    0.269427 0.275027 0.212041 0.340852
O23   O     O_3   0.687139 0.177669 0.217259 -0.651611
H7    H     H_    0.579582 0.162684 0.185039 0.336842
O24   O     O_3   0.512875 0.835869 0.774457 -0.619568
H8    H     H_    0.599640 0.888579 0.797668 0.293957
O25   O     O_3   0.527920 0.650031 0.724258 -0.611233
H9    H     H_    0.620022 0.605910 0.695886 0.288630
O26   O     O_3   0.423285 0.835494 0.494779 -0.634930
H10   H     H_    0.377982 0.782989 0.517093 0.278670
O27   O     O_3   0.583447 0.006954 0.310382 -0.662845
H11   H     H_    0.654463 0.032995 0.276020 0.322466
O28   O     O_3   0.436934 0.973930 0.423264 -0.627314
H12   H     H_    0.361706 0.012441 0.396834 0.306438
O29   O     O_3   0.968610 0.968616 0.683703 -0.548929
C45   C     C_3   0.162876 0.945439 0.693383 0.113289
H13   H     H_    0.181260 0.866005 0.671184 0.154021
H14   H     H_    0.202021 0.956851 0.747173 0.129792
C46   C     C_3   0.301575 0.002869 0.658191 -0.402048
H15   H     H_    0.269480 0.988842 0.604183 0.231699
H16   H     H_    0.291231 0.083511 0.678940 0.182214
C47   C     C_3   0.505298 0.970629 0.667138 -0.645790
H17   H     H_    0.549610 0.993443 0.720273 0.216868
H18   H     H_    0.595742 0.008350 0.636831 0.276481
H19   H     H_    0.522087 0.889568 0.649462 0.261504
O30   O     O_3   0.219252 0.604756 0.292888 -0.613779
H20   H     H_    0.162694 0.571654 0.326589 0.298293
O31   O     O_3   0.216790 0.677726 0.011477 -0.667152
H21   H     H_    0.113351 0.627752 0.007515 0.304189
O32   O     O_3   0.457536 0.553554 0.198871 -0.571538
H22   H     H_    0.551267 0.579629 0.234915 0.301271
O33   O     O_3   0.293302 0.514187 0.077806 -0.597790
H23   H     H_    0.271550 0.507922 0.029414 0.285233
O34   O     O_3   0.431150 0.983940 0.179575 -0.657234
H24   H     H_    0.389929 0.043152 0.212627 0.298110
O35   O     O_3   0.876428 0.013841 0.575849 -0.545297
C48   C     C_3   0.986622 0.987693 0.517082 0.070306
H25   H     H_    0.066190 0.919338 0.520305 0.181245
H26   H     H_    0.096291 0.043260 0.512000 0.108019
C49   C     C_3   0.852798 0.962067 0.456604 -0.259553
H27   H     H_    0.745750 0.909235 0.468084 0.269291
H28   H     H_    0.778778 0.029130 0.447974 0.226669
C50   C     C_3   0.954290 0.912994 0.392637 -0.808701
H29   H     H_    0.053288 0.965666 0.376411 0.213303
H30   H     H_    0.847244 0.889318 0.352168 0.258493
H31   H     H_    0.031667 0.846180 0.400041 0.229713
O36   O     O_3   0.966439 0.406089 0.703934 -0.664433
H32   H     H_    0.947079 0.453444 0.674445 0.275366
O37   O     O_3   0.790205 0.330237 0.993460 -0.638609
H33   H     H_    0.763689 0.401554 0.009132 0.340519
O38   O     O_3   0.728941 0.476225 0.914842 -0.576810
C51   C     C_3   0.526645 0.485807 0.916870 0.051129
H34   H     H_    0.494758 0.553709 0.954649 0.188586
H35   H     H_    0.455656 0.423176 0.933826 0.125151
C52   C     C_3   0.442122 0.497932 0.849340 -0.353142
H36   H     H_    0.531182 0.550655 0.828453 0.244819
H37   H     H_    0.441652 0.425395 0.813764 0.188733
C53   C     C_3   0.236177 0.535724 0.856047 -0.710215
H38   H     H_    0.147246 0.489158 0.882128 0.240247
H39   H     H_    0.173911 0.533347 0.805632 0.255122
H40   H     H_    0.233369 0.613412 0.884099 0.247692
O39   O     O_3   0.916034 0.011743 0.822410 -0.665392
H41   H     H_    0.903967 0.946478 0.791899 0.299377
O40   O     O_3   0.144652 0.269181 0.327941 -0.567977
C54   C     C_3   0.118857 0.181113 0.351423 0.042419
H42   H     H_    0.199348 0.120189 0.319086 0.142437
H43   H     H_    0.965469 0.157659 0.352451 0.082933
C55   C     C_3   0.194636 0.197444 0.422889 -0.328877
H44   H     H_    0.116289 0.259424 0.454472 0.212813
H45   H     H_    0.165267 0.131558 0.442944 0.136498
C56   C     C_3   0.409006 0.219554 0.427045 -0.568083
H46   H     H_    0.494607 0.157636 0.399056 0.225590
H47   H     H_    0.457005 0.235769 0.480050 0.196967
H48   H     H_    0.436310 0.283565 0.404383 0.273367

loop_
_geom_bond_atom_site_label_1
_geom_bond_atom_site_label_2
_ccdc_geom_bond_type
O28   H12   S    
C51   H34   S    
O21   H5    S    
C21   C22   D    
C37   O34   S    
C1    O6    A    
C5    O35   S    
C56   H46   S    
O37   H33   S    
C29   C30   A    
C21   O22   S    
C13   C14   A    
C34   C38   A    
C9    H2    S    
O33   H23   S    
C5    C13   A    
C36   O27   S    
C52   H36   S    
C23   C25   S    
C22   O23   S    
C50   H30   S    
O13   V3    S    
O5    C3    A    
C54   C55   S    
C1    C26   S    
O12   C41   A    
V2    O10   S    
C47   H19   S    
O34   H24   S    
O14   C42   A    
O16   V4    S    
O19   V4    S    
O35   C48   S    
C7    O37   S    
O8    V2    S    
O14   V3    S    
O12   V3    S    
V3    O20   S    
O26   H10   S    
C29   C40   A    
C53   H38   S    
C16   O36   S    
C10   C11   A    
H1    C17   S    
O7    V1    S    
C52   C53   S    
C25   H4    S    
C46   H16   S    
O1    C2    A    
C8    C9    A    
C5    C17   A    
C55   C56   S    
C38   O30   S    
O19   C44   A    
O32   H22   S    
C56   H47   S    
C22   C44   S    
O11   C42   A    
C12   C16   A    
C18   C43   S    
O15   V3    S    
O18   C43   A    
C29   O31   S    
C50   H31   S    
O4    C2    A    
O13   C44   A    
C51   C52   S    
C12   C13   A    
O23   H7    S    
O25   H9    S    
C35   C36   A    
C47   H18   S    
O2    C1    A    
O22   H6    S    
C23   C24   D    
C39   O26   S    
C45   H14   S    
C31   C32   A    
C19   O40   S    
C54   H42   S    
C26   O25   S    
C47   H17   S    
C34   C35   A    
C48   H26   S    
C46   H15   S    
C2    C28   S    
O11   V4    S    
O36   H32   S    
O3    C4    A    
O1    V2    S    
C27   C39   A    
C32   C33   A    
O6    V2    S    
O9    V2    S    
O38   C51   S    
C55   H45   S    
C8    O38   S    
O2    V1    S    
C56   H48   S    
C36   C37   A    
C45   C46   S    
C24   C42   S    
C30   C31   A    
C25   C26   D    
C51   H35   S    
C31   O32   S    
C48   H25   S    
C15   O39   S    
C4    C6    S    
C11   C15   A    
O39   H41   S    
O27   H11   S    
O5    V1    S    
C49   H28   S    
O8    C3    A    
C49   H27   S    
C46   C47   S    
C33   C40   A    
O15   C43   A    
C41   O16   A    
C27   O28   S    
O7    V2    S    
C11   C18   A    
O4    V1    S    
C23   H3    S    
O3    V1    S    
O17   V4    S    
C50   H29   S    
C54   H43   S    
C28   C39   A    
C27   C35   A    
C45   H13   S    
C53   H40   S    
C33   C37   A    
C30   O33   S    
C32   C34   A    
O30   H20   S    
C19   C21   S    
C19   C20   D    
C14   O29   S    
C48   C49   S    
O18   V4    S    
C10   C12   A    
O31   H21   S    
C49   C50   S    
O40   C54   S    
C20   O21   S    
O24   H8    S    
C28   C38   A    
V4    O20   S    
C40   C41   S    
C7    C8    A    
C53   H39   S    
O17   V3    S    
C24   O24   S    
C14   C15   A    
C55   H44   S    
C9    C10   A    
V1    O10   S    
O29   C45   S    
O9    C4    A    
C6    C17   A    
C3    C20   S    
C52   H37   S    
C7    C18   A    
C6    C16   A    
