data_mof_unit_13099.cif
_audit_creation_date              2012-12-11T14:41:09-0500
_audit_creation_method            fapswitch 2.2
_symmetry_space_group_name_H-M    P1
_symmetry_Int_Tables_number       1
_space_group_crystal_system       triclinic
_cell_length_a                    24.450104
_cell_length_b                    17.367434
_cell_length_c                    15.56561
_cell_angle_alpha                 90.089258
_cell_angle_beta                  129.331537
_cell_angle_gamma                 90.048979
_cell_volume                      5112.53482697

loop_
_atom_site_label
_atom_site_type_symbol
_atom_type_description
_atom_site_fract_x
_atom_site_fract_y
_atom_site_fract_z
_atom_type_partial_charge
C1    C     C_R   0.332692 0.394941 0.196288 0.056922
C2    C     C_R   0.643409 0.683939 0.502338 -0.006858
C3    C     C_R   0.184466 0.881162 0.501859 -0.011991
C4    C     C_R   0.184709 0.117459 0.500841 -0.008892
C5    C     C_R   0.363750 0.313147 0.502470 -0.017480
C6    C     C_R   0.362415 0.685416 0.503112 -0.015906
C7    C     C_R   0.817787 0.885948 0.503267 -0.020792
C8    C     C_R   0.817124 0.114493 0.501914 -0.019073
C9    C     C_3   0.362691 0.206108 0.609962 -0.398758
C10   C     C_3   0.361805 0.791382 0.612320 -0.401276
C11   C     C_3   0.787958 0.753634 0.499187 -0.389129
C12   C     C_R   0.338783 0.622568 0.210731 0.045340
C13   C     C_3   0.787332 0.246581 0.501159 -0.390049
C14   C     C_3   0.739111 0.697934 0.496811 -0.403059
C15   C     C_3   0.738347 0.301478 0.499715 -0.398033
C16   C     C_3   0.312615 0.152665 0.610269 -0.407766
C17   C     C_3   0.312044 0.845590 0.612030 -0.408344
C18   C     C_3   0.263035 0.302465 0.496635 -0.394489
C19   C     C_3   0.261102 0.696100 0.495303 -0.396699
C20   C     C_3   0.777127 0.849517 0.610470 -0.407025
C21   C     C_3   0.773710 0.148301 0.606356 -0.405494
C22   C     C_3   0.282214 0.200039 0.401831 -0.398446
C23   C     C_R   0.848474 0.860940 0.235326 0.060845
C24   C     C_3   0.282864 0.799202 0.404477 -0.401381
C25   C     C_3   0.690534 0.853437 0.401887 -0.414061
C26   C     C_3   0.689336 0.147269 0.397665 -0.409604
C27   C     C_3   0.319522 0.255843 0.502834 0.398214
C28   C     C_3   0.318619 0.742581 0.503977 0.402112
C29   C     C_3   0.768930 0.837681 0.503804 0.407361
C30   C     C_3   0.767475 0.162120 0.501862 0.404257
C31   C     C_3   0.687147 0.742501 0.503662 0.397858
C32   C     C_3   0.684420 0.255967 0.501221 0.396525
C33   C     C_3   0.235247 0.163997 0.501958 0.401444
C34   C     C_R   0.848338 0.138604 0.234867 0.060847
C35   C     C_3   0.234768 0.834545 0.503069 0.403003
C36   C     C_3   0.729735 0.791938 0.611506 -0.400209
C37   C     C_3   0.724907 0.204256 0.606433 -0.397072
C38   C     C_3   0.213190 0.248641 0.494597 -0.393785
C39   C     C_3   0.211871 0.750031 0.494354 -0.394269
C40   C     C_R   0.668640 0.395541 0.801181 -0.125371
C41   C     C_R   0.668707 0.604539 0.801454 -0.125067
C42   C     C_R   0.166532 0.888688 0.795670 -0.122520
C43   C     C_R   0.150867 0.139053 0.756001 -0.121865
C44   C     C_3   0.641879 0.798385 0.403428 -0.393156
C45   C     C_R   0.649793 0.377104 0.865520 0.153038
C46   C     C_3   0.640072 0.202137 0.398020 -0.396745
C47   C     C_3   0.232816 0.145100 0.401998 -0.403981
C48   C     C_3   0.232988 0.853619 0.403852 -0.402836
C49   C     C_2   0.698333 0.351909 0.981667 -0.223884
C50   C     C_2   0.698443 0.647755 0.982344 -0.223709
C51   C     C_2   0.192908 0.835354 0.969220 -0.216749
C52   C     C_2   0.143253 0.257273 0.843576 -0.220120
C53   C     C_2   0.768307 0.350637 0.037660 -0.109612
C54   C     C_2   0.768492 0.648002 0.038966 -0.109512
C55   C     C_2   0.262850 0.836389 0.026651 -0.124974
C56   C     C_R   0.649863 0.622913 0.865861 0.152634
C57   C     C_2   0.196710 0.294151 0.857628 -0.112421
C58   C     C_2   0.336325 0.724952 0.093753 -0.214611
C59   C     C_2   0.308009 0.344662 0.018131 -0.215400
C60   C     C_2   0.854002 0.249482 0.132251 -0.220565
C61   C     C_2   0.854294 0.749446 0.133270 -0.219990
C62   C     C_2   0.305180 0.778827 0.110969 -0.127048
C63   C     C_2   0.237491 0.351187 0.945862 -0.132081
C64   C     C_2   0.812346 0.299412 0.132092 -0.128183
C65   C     C_2   0.812863 0.699368 0.133572 -0.128961
C66   C     C_R   0.589064 0.356892 0.407598 -0.135936
C67   C     C_R   0.146069 0.866964 0.857175 0.148797
C68   C     C_R   0.592595 0.641115 0.408902 -0.130592
C69   C     C_R   0.115913 0.896363 0.408838 -0.138429
C70   C     C_R   0.115786 0.103183 0.408367 -0.136396
C71   C     C_R   0.414049 0.357675 0.594076 -0.135510
C72   C     C_R   0.413597 0.641798 0.594564 -0.136702
C73   C     C_R   0.887163 0.898598 0.593986 -0.131795
C74   C     C_R   0.886310 0.101129 0.593082 -0.139024
C75   C     C_R   0.663964 0.357955 0.593061 -0.140422
C76   C     C_R   0.665373 0.641148 0.594134 -0.143232
C77   C     C_R   0.189647 0.896949 0.593363 -0.135901
C78   C     C_R   0.118139 0.182533 0.786598 0.148026
C79   C     C_R   0.190140 0.101441 0.592476 -0.146901
C80   C     C_R   0.339632 0.355675 0.409150 -0.137590
C81   C     C_R   0.337834 0.642754 0.409578 -0.139844
C82   C     C_R   0.811318 0.900883 0.410355 -0.139979
C83   C     C_R   0.811267 0.099497 0.409623 -0.138184
C84   C     C_R   0.578734 0.395154 0.804001 -0.160374
C85   C     C_R   0.578740 0.604918 0.804103 -0.160225
C86   C     C_R   0.076067 0.888786 0.798665 -0.157456
C87   C     C_R   0.059165 0.141211 0.756279 -0.155864
C88   C     C_R   0.423477 0.392620 0.196221 -0.185723
C89   C     C_R   0.640426 0.314149 0.500679 -0.008822
C90   C     C_R   0.430974 0.625583 0.213266 -0.164815
C91   C     C_R   0.941261 0.859444 0.237984 -0.175417
C92   C     C_R   0.941194 0.140219 0.237676 -0.175055
C93   C     C_R   0.351896 0.376011 0.131709 0.105025
C94   C     C_R   0.365691 0.657634 0.164711 0.098907
C95   C     C_R   0.880934 0.818938 0.202024 0.102820
C96   C     C_R   0.880776 0.180438 0.201414 0.103402
H1    H     H_    0.402757 0.171433 0.614650 0.154751
H2    H     H_    0.316599 0.831788 0.686015 0.146324
H3    H     H_    0.771612 0.191361 0.227087 0.077197
H4    H     H_    0.771421 0.657113 0.567626 0.154629
H5    H     H_    0.770587 0.340526 0.573079 0.153608
H6    H     H_    0.288931 0.341814 0.569508 0.155349
H7    H     H_    0.286062 0.655791 0.566707 0.155590
H8    H     H_    0.832531 0.839834 0.686551 0.144906
H9    H     H_    0.828723 0.158122 0.683709 0.144597
H10   H     H_    0.764387 0.755273 0.686396 0.145997
H11   H     H_    0.758275 0.239356 0.683503 0.145096
H12   H     H_    0.214175 0.262892 0.565398 0.155779
H13   H     H_    0.403136 0.825355 0.619452 0.154831
H14   H     H_    0.212866 0.735596 0.565061 0.157989
H15   H     H_    0.676618 0.914251 0.402885 0.149448
H16   H     H_    0.674535 0.086396 0.396311 0.149147
H17   H     H_    0.249803 0.231983 0.322100 0.145986
H18   H     H_    0.251219 0.768100 0.323835 0.141959
H19   H     H_    0.322260 0.166364 0.405279 0.155160
H20   H     H_    0.323824 0.833224 0.410642 0.154887
H21   H     H_    0.681309 0.843885 0.322987 0.147164
H22   H     H_    0.681588 0.157620 0.320160 0.146089
H23   H     H_    0.608632 0.766854 0.323145 0.144100
H24   H     H_    0.783245 0.744261 0.423879 0.152845
H25   H     H_    0.609278 0.235567 0.319581 0.143889
H26   H     H_    0.249053 0.084341 0.407036 0.150324
H27   H     H_    0.249123 0.914532 0.409252 0.149943
H28   H     H_    0.605664 0.831933 0.409458 0.156586
H29   H     H_    0.601755 0.168390 0.398974 0.154826
H30   H     H_    0.178503 0.151932 0.321920 0.145058
H31   H     H_    0.178882 0.846285 0.323382 0.144971
H32   H     H_    0.231619 0.338889 0.420643 0.154885
H33   H     H_    0.229349 0.660720 0.418008 0.154578
H34   H     H_    0.762621 0.909527 0.613839 0.150862
H35   H     H_    0.783434 0.257484 0.426910 0.153400
H36   H     H_    0.759259 0.087747 0.607525 0.150098
H37   H     H_    0.721326 0.399008 0.827334 0.075149
H38   H     H_    0.721435 0.601084 0.827802 0.075184
H39   H     H_    0.218723 0.887135 0.819595 0.079938
H40   H     H_    0.198554 0.152274 0.768542 0.084882
H41   H     H_    0.693083 0.823313 0.618596 0.155237
H42   H     H_    0.686790 0.171366 0.608756 0.154777
H43   H     H_    0.158161 0.258170 0.416640 0.155916
H44   H     H_    0.156713 0.740875 0.416348 0.155534
H45   H     H_    0.302451 0.774121 0.177790 0.130770
H46   H     H_    0.709563 0.663323 0.418880 0.153747
H47   H     H_    0.208922 0.389142 0.959661 0.128511
H48   H     H_    0.802581 0.294894 0.190649 0.131554
H49   H     H_    0.803257 0.704102 0.192317 0.131523
H50   H     H_    0.791519 0.374797 0.003142 0.124188
H51   H     H_    0.791620 0.623142 0.004657 0.124407
H52   H     H_    0.286992 0.867004 0.997582 0.127587
H53   H     H_    0.218590 0.273463 0.819292 0.124155
H54   H     H_    0.339936 0.730578 0.027929 0.132073
H55   H     H_    0.334332 0.307437 0.998151 0.130299
H56   H     H_    0.864442 0.256258 0.074366 0.130906
H57   H     H_    0.710295 0.338110 0.424071 0.154063
H58   H     H_    0.864505 0.742510 0.075108 0.131068
H59   H     H_    0.676083 0.326115 0.017118 0.126342
H60   H     H_    0.676292 0.674189 0.017615 0.126354
H61   H     H_    0.169803 0.803360 0.999301 0.128238
H62   H     H_    0.122841 0.278152 0.884264 0.126730
H63   H     H_    0.562555 0.343850 0.321611 0.089934
H64   H     H_    0.571346 0.651628 0.324859 0.082968
H65   H     H_    0.094162 0.895295 0.323053 0.082187
H66   H     H_    0.093619 0.104312 0.322390 0.081476
H67   H     H_    0.440995 0.345900 0.680440 0.090437
H68   H     H_    0.328890 0.091605 0.617768 0.149293
H69   H     H_    0.440870 0.653699 0.681077 0.090733
H70   H     H_    0.911046 0.897314 0.680756 0.083395
H71   H     H_    0.909020 0.101312 0.679342 0.082782
H72   H     H_    0.707081 0.345728 0.679033 0.089513
H73   H     H_    0.708143 0.653309 0.680393 0.090519
H74   H     H_    0.236291 0.896664 0.679782 0.082582
H75   H     H_    0.237564 0.099801 0.678246 0.082683
H76   H     H_    0.296762 0.341061 0.324412 0.107045
H77   H     H_    0.292435 0.654937 0.325738 0.101162
H78   H     H_    0.762602 0.905947 0.326445 0.101546
H79   H     H_    0.329014 0.906455 0.619933 0.149730
H80   H     H_    0.762747 0.094094 0.325550 0.101051
H81   H     H_    0.550287 0.398098 0.835865 0.088453
H82   H     H_    0.550252 0.601879 0.835890 0.088548
H83   H     H_    0.046623 0.888240 0.828921 0.091434
H84   H     H_    0.021965 0.158860 0.768062 0.095081
H85   H     H_    0.453286 0.394046 0.166625 0.100376
H86   H     H_    0.461874 0.633643 0.186524 0.094957
H87   H     H_    0.977621 0.844599 0.223285 0.104912
H88   H     H_    0.977507 0.154971 0.222832 0.104726
H89   H     H_    0.391308 0.242522 0.685759 0.143919
H90   H     H_    0.317631 0.166993 0.684610 0.145650
H91   H     H_    0.388825 0.754263 0.686987 0.144668
H92   H     H_    0.843719 0.741039 0.572898 0.156776
H93   H     H_    0.842997 0.258538 0.575989 0.154881
H94   H     H_    0.233984 0.354339 0.121218 0.088445
H95   H     H_    0.238928 0.451151 0.103946 0.091073
H96   H     H_    0.242324 0.587641 0.075933 0.101647
H97   H     H_    0.240995 0.663980 0.140451 0.081471
H98   H     H_    0.772386 0.807703 0.228952 0.077241
H99   H     H_    0.744703 0.844082 0.106065 0.109551
H100  H     H_    0.744612 0.154159 0.104802 0.109689
N1    N     N_R   0.389430 0.421450 0.294590 -0.049307
N2    N     N_R   0.581780 0.577610 0.443390 -0.036286
N3    N     N_R   0.081780 0.922390 0.443390 -0.030461
N4    N     N_R   0.081780 0.077610 0.443390 -0.029674
N5    N     N_R   0.419850 0.423100 0.556610 -0.038543
N6    N     N_R   0.419850 0.576900 0.556610 -0.038188
N7    N     N_R   0.919850 0.923100 0.556610 -0.032776
N8    N     N_R   0.919850 0.076900 0.556610 -0.031815
N9    N     N_R   0.627410 0.423100 0.556610 -0.038113
N10   N     N_R   0.627410 0.576900 0.556610 -0.037861
N11   N     N_R   0.127410 0.923100 0.556610 -0.032215
N12   N     N_R   0.389430 0.578550 0.294590 -0.047983
N13   N     N_R   0.127410 0.076900 0.556610 -0.031649
N14   N     N_R   0.374220 0.422390 0.443390 -0.035471
N15   N     N_R   0.374220 0.577610 0.443390 -0.034931
N16   N     N_R   0.874220 0.922390 0.443390 -0.032836
N17   N     N_R   0.874220 0.077610 0.443390 -0.031844
N18   N     N_R   0.555000 0.424040 0.705410 -0.036816
N19   N     N_R   0.555000 0.575960 0.705410 -0.036969
N20   N     N_R   0.055000 0.924040 0.705410 -0.041503
N21   N     N_R   0.055000 0.075960 0.705410 -0.041194
N22   N     N_R   0.446630 0.421450 0.294590 -0.044963
N23   N     N_R   0.889430 0.921450 0.294590 -0.053687
N24   N     N_R   0.446630 0.578550 0.294590 -0.044778
N25   N     N_R   0.946630 0.921450 0.294590 -0.050300
N26   N     N_R   0.946630 0.078550 0.294590 -0.050158
N27   N     N_3   0.262731 0.405105 0.159296 -0.229013
N28   N     N_3   0.265078 0.610788 0.154136 -0.226419
N29   N     N_3   0.776647 0.854427 0.191477 -0.227789
N30   N     N_3   0.776334 0.144458 0.190265 -0.227971
N31   N     N_R   0.889430 0.078550 0.294590 -0.053486
N32   N     N_R   0.612200 0.424040 0.705410 -0.040337
N33   N     N_R   0.612200 0.575960 0.705410 -0.040475
N34   N     N_R   0.112200 0.924040 0.705410 -0.045228
N35   N     N_R   0.112200 0.075960 0.705410 -0.045121
N36   N     N_R   0.581780 0.422390 0.443390 -0.036700
Ni1   Ni    Ni4+2 0.382890 0.500000 0.370170 0.220595
Ni2   Ni    Ni4+2 0.882890 0.000000 0.370170 0.215538
Ni3   Ni    Ni4+2 0.618740 0.500000 0.629830 0.203172
Ni4   Ni    Ni4+2 0.118740 0.000000 0.629830 0.203162
Ni5   Ni    Ni4+2 0.514090 0.500000 0.370170 0.204579
Ni6   Ni    Ni4+2 0.014090 0.000000 0.370170 0.203589
Ni7   Ni    Ni4+2 0.487550 0.500000 0.629830 0.205349
Ni8   Ni    Ni4+2 0.987550 0.000000 0.629830 0.204469

loop_
_geom_bond_atom_site_label_1
_geom_bond_atom_site_label_2
_ccdc_geom_bond_type
C78   C87   A    
N12   N24   A    
C14   H46   S    
C38   H12   S    
C58   C62   D    
C7    C29   S    
C26   H16   S    
N2    N10   A    
C8    C83   A    
C75   N9    A    
C72   H69   S    
C46   H29   S    
N6    N15   A    
N8    Ni8   S    
C61   H58   S    
C48   H27   S    
C4    C70   A    
C56   C85   A    
C25   H15   S    
C15   C32   S    
C7    C73   A    
C54   C65   S    
C51   C55   D    
C16   H68   S    
C43   C78   A    
C6    C72   A    
C73   N7    A    
C50   C54   D    
C71   H67   S    
C33   C38   S    
C12   N12   A    
H98   N29   S    
C72   N6    A    
C34   N30   S    
C9    C16   S    
C34   C96   A    
C37   H11   S    
C41   C56   A    
C9    H89   S    
C85   N19   A    
C60   H56   S    
C53   C64   S    
C43   N35   A    
C11   H24   S    
C10   C17   S    
C74   H71   S    
C55   C62   S    
C66   N36   A    
C92   C96   A    
C13   H93   S    
C10   H13   S    
C68   N2    A    
C18   H6    S    
N14   Ni1   S    
C79   H75   S    
N31   Ni2   S    
C12   N28   S    
N32   Ni3   S    
C18   H32   S    
C87   H84   S    
C5    C27   S    
C19   H7    S    
C22   H17   S    
C6    C28   S    
C90   H86   S    
C50   H60   S    
C77   H74   S    
C57   H53   S    
N20   N34   A    
C38   H43   S    
C46   H25   S    
N5    Ni7   S    
C75   H72   S    
C45   C49   S    
C91   N25   A    
N18   N32   A    
C36   H41   S    
C14   C31   S    
C31   C36   S    
C90   N24   A    
C22   C47   S    
C66   H63   S    
C6    C81   A    
C83   H80   S    
C52   H62   S    
N23   Ni2   S    
C12   C94   A    
C43   H40   S    
C52   C78   S    
C35   C48   S    
C70   H66   S    
C25   C44   S    
C8    C74   A    
C41   H38   S    
C23   N29   S    
C84   N18   A    
N11   Ni4   S    
C90   C94   A    
C66   C89   A    
H100  N30   S    
C20   C29   S    
H97   N28   S    
C25   C29   S    
C40   C45   A    
C23   N23   A    
C59   C63   D    
C31   C44   S    
H99   N29   S    
C36   H10   S    
C11   H92   S    
N20   Ni8   S    
C82   H78   S    
C13   C30   S    
N9    Ni3   S    
H96   N28   S    
C4    C79   A    
C92   H88   S    
N6    Ni7   S    
C88   C93   A    
C85   H82   S    
C47   H26   S    
C64   H48   S    
C44   H23   S    
N8    N17   A    
N26   Ni6   S    
C82   N16   A    
C50   C56   S    
N15   Ni1   S    
C24   C28   S    
C2    C31   S    
C24   C48   S    
N33   Ni3   S    
C35   C39   S    
C21   H36   S    
C79   N13   A    
N2    Ni5   S    
C61   C65   D    
C16   C33   S    
N23   N25   A    
C86   H83   S    
C32   C89   S    
C3    C35   S    
C42   N34   A    
N3    N11   A    
C10   H91   S    
C83   N17   A    
C51   C67   S    
C32   C37   S    
C15   H5    S    
C5    C80   A    
N34   Ni4   S    
C19   C28   S    
N21   Ni8   S    
C58   H54   S    
N7    Ni8   S    
N35   Ni4   S    
C19   C39   S    
C42   H39   S    
C9    H1    S    
C60   C96   S    
C13   H35   S    
C22   H19   S    
C81   N15   A    
C41   N33   A    
C24   H20   S    
C88   N22   A    
C22   C27   S    
C13   C15   S    
N36   Ni5   S    
C33   C47   S    
N24   Ni5   S    
C39   H14   S    
C45   C84   A    
N19   Ni7   S    
C80   H76   S    
C62   H45   S    
C65   H49   S    
N1    N22   A    
C3    C77   A    
N3    Ni6   S    
H95   N27   S    
N5    N14   A    
C2    C76   A    
C9    C27   S    
C47   H30   S    
C80   N14   A    
C17   H2    S    
C40   H37   S    
C10   C28   S    
C19   H33   S    
C71   N5    A    
C4    C33   S    
C39   H44   S    
C67   C86   A    
C70   N4    A    
C3    C69   A    
C91   H87   S    
N19   N33   A    
C32   C46   S    
C49   H59   S    
C1    N1    A    
C18   C27   S    
C26   H22   S    
C57   C63   S    
C20   H34   S    
C73   H70   S    
C25   H21   S    
C1    N27   S    
N16   Ni2   S    
C61   C95   S    
C14   H4    S    
C20   H8    S    
C59   H55   S    
C17   C35   S    
C21   C30   S    
C2    C68   A    
N4    N13   A    
C69   H65   S    
C60   C64   D    
N25   Ni6   S    
C37   H42   S    
C8    C30   S    
C92   N26   A    
C34   N31   A    
C58   C94   S    
N13   Ni4   S    
C5    C71   A    
C16   H90   S    
H94   N27   S    
N21   N35   A    
C48   H31   S    
C76   N10   A    
C77   N11   A    
N1    Ni1   S    
C88   H85   S    
C42   C67   A    
C74   N8    A    
N26   N31   A    
C49   C53   D    
C53   H50   S    
C11   C14   S    
C23   C95   A    
C40   N32   A    
C55   H52   S    
C87   N21   A    
C18   C38   S    
C76   H73   S    
N7    N16   A    
N4    Ni6   S    
C15   H57   S    
H3    N30   S    
C52   C57   D    
C26   C46   S    
C91   C95   A    
C84   H81   S    
C20   C36   S    
C17   H79   S    
C7    C82   A    
C21   C37   S    
C11   C29   S    
C1    C93   A    
C75   C89   A    
C44   H28   S    
C69   N3    A    
C63   H47   S    
C24   H18   S    
N10   Ni3   S    
N9    N36   A    
C59   C93   S    
N22   Ni5   S    
C68   H64   S    
N18   Ni7   S    
N12   Ni1   S    
C21   H9    S    
C51   H61   S    
N17   Ni2   S    
C81   H77   S    
C54   H51   S    
C86   N20   A    
C26   C30   S    
