data_mof_unit_24676.cif
_audit_creation_date              2012-10-26T18:50:05-0400
_audit_creation_method            fapswitch 2.2
_symmetry_space_group_name_H-M    P1
_symmetry_Int_Tables_number       1
_space_group_crystal_system       triclinic
_cell_length_a                    10.82153
_cell_length_b                    13.010686
_cell_length_c                    11.877743
_cell_angle_alpha                 99.669714
_cell_angle_beta                  94.803869
_cell_angle_gamma                 97.265914
_cell_volume                      1625.88236301

loop_
_atom_site_label
_atom_site_type_symbol
_atom_type_description
_atom_site_fract_x
_atom_site_fract_y
_atom_site_fract_z
_atom_type_partial_charge
C1    C     C_R   0.502389 0.299810 0.478490 0.598613
C2    C     C_R   0.533710 0.865987 0.449081 -0.135060
C3    C     C_R   0.471959 0.027098 0.545386 -0.005819
C4    C     C_R   0.528041 0.972901 0.454613 -0.005818
C5    C     C_R   0.369970 0.404612 0.023148 -0.097627
C6    C     C_R   0.630030 0.595387 0.976852 -0.097628
C7    C     C_R   0.385832 0.407291 0.141088 0.316391
C8    C     C_R   0.614168 0.592709 0.858912 0.316391
C9    C     C_R   0.559188 0.545926 0.157962 0.348393
C10   C     C_R   0.440812 0.454073 0.842037 0.348392
C11   C     C_R   0.548211 0.535166 0.034185 -0.084306
C12   C     C_R   0.497611 0.700190 0.521510 0.598612
C13   C     C_R   0.451790 0.464833 0.965815 -0.084307
C14   C     C_R   0.264312 0.511569 0.499830 0.554361
C15   C     C_R   0.735688 0.488431 0.500170 0.554360
C16   C     C_R   0.148113 0.598444 0.706026 -0.045628
C17   C     C_R   0.851887 0.401556 0.293974 -0.045630
C18   C     C_R   0.100678 0.600593 0.811695 -0.055599
C19   C     C_R   0.899322 0.399407 0.188305 -0.055607
C20   C     C_R   0.983241 0.545848 0.817006 -0.035941
C21   C     C_R   0.016759 0.454152 0.182994 -0.035948
C22   C     C_R   0.908808 0.497640 0.715895 -0.027285
C23   C     C_R   0.488686 0.812794 0.533306 0.003819
C24   C     C_R   0.091192 0.502360 0.284105 -0.027286
C25   C     C_R   0.950140 0.505097 0.606873 0.024449
C26   C     C_R   0.049860 0.494902 0.393127 0.024449
C27   C     C_R   0.077267 0.542894 0.603236 0.020233
C28   C     C_R   0.922732 0.457106 0.396764 0.020233
C29   C     C_R   0.869918 0.475073 0.502225 -0.037932
C30   C     C_R   0.130082 0.524927 0.497775 -0.037932
C31   C     C_R   0.511314 0.187206 0.466694 0.003819
C32   C     C_R   0.579041 0.026221 0.371324 0.254280
C33   C     C_R   0.420959 0.973779 0.628676 0.254279
C34   C     C_R   0.566350 0.133743 0.375022 0.244979
C35   C     C_R   0.433649 0.866257 0.624977 0.244981
C36   C     C_R   0.466290 0.134013 0.550920 -0.135061
Cu1   Cu    Cu3+1 0.509250 0.507730 0.615930 1.144271
Cu2   Cu    Cu3+1 0.490750 0.492270 0.384070 1.144270
H1    H     H_    0.050959 0.458364 0.100546 0.136278
H2    H     H_    0.178843 0.548323 0.274894 0.135060
H3    H     H_    0.574552 0.823527 0.379068 0.252567
H4    H     H_    0.425449 0.176473 0.620932 0.252566
H5    H     H_    0.394728 0.861360 0.780968 0.360337
H6    H     H_    0.605268 0.138640 0.219031 0.360337
H7    H     H_    0.710423 0.022578 0.269412 0.344618
H8    H     H_    0.289575 0.977422 0.730585 0.344619
H9    H     H_    0.212169 0.271787 0.604178 0.364639
H10   H     H_    0.787833 0.728210 0.395822 0.364639
H11   H     H_    0.869085 0.812585 0.889479 0.381789
H12   H     H_    0.949041 0.541637 0.899454 0.136277
H13   H     H_    0.130892 0.187433 0.110546 0.381785
H14   H     H_    0.293766 0.349328 0.977342 0.258123
H15   H     H_    0.706235 0.650671 0.022658 0.258120
H16   H     H_    0.240056 0.641470 0.705522 0.180998
H17   H     H_    0.759944 0.358530 0.294478 0.180998
H18   H     H_    0.157074 0.641348 0.889773 0.131703
H19   H     H_    0.842925 0.358652 0.110227 0.131703
H20   H     H_    0.821157 0.451677 0.725106 0.135059
N1    N     N_R   0.523180 0.519350 0.790130 -0.280961
N2    N     N_R   0.476820 0.480650 0.209870 -0.280961
O1    O     O_R   0.506570 0.354460 0.582000 -0.488654
O2    O     O_3   0.608915 0.188402 0.292499 -0.695533
O3    O     O_3   0.642882 0.972455 0.289835 -0.651461
O4    O     O_3   0.357118 0.027545 0.710165 -0.651459
O5    O     O_2   0.334760 0.252248 0.802568 -0.270113
O6    O     O_2   0.194402 0.384759 0.804662 -0.331117
O7    O     O_3   0.288811 0.324579 0.620984 -0.485552
O8    O     O_2   0.805598 0.615241 0.195338 -0.331117
O9    O     O_2   0.665240 0.747751 0.197432 -0.270115
O10   O     O_3   0.711189 0.675421 0.379015 -0.485552
O11   O     O_2   0.741209 0.688071 0.697874 -0.254278
O12   O     O_R   0.493430 0.645540 0.418000 -0.488654
O13   O     O_2   0.623977 0.792046 0.829102 -0.243453
O14   O     O_3   0.833982 0.743856 0.907452 -0.550987
O15   O     O_2   0.376021 0.207953 0.170897 -0.243438
O16   O     O_2   0.258791 0.311930 0.302126 -0.254294
O17   O     O_3   0.166016 0.256145 0.092549 -0.550986
O18   O     O_R   0.490940 0.341410 0.386200 -0.399882
O19   O     O_R   0.509060 0.658590 0.613800 -0.399882
O20   O     O_R   0.327470 0.506520 0.597900 -0.450922
O21   O     O_R   0.672530 0.493480 0.402100 -0.450923
O22   O     O_R   0.311840 0.493460 0.402100 -0.493970
O23   O     O_R   0.688160 0.506540 0.597900 -0.493971
O24   O     O_3   0.391084 0.811598 0.707500 -0.695530
S1    S     S_3+6 0.314981 0.354094 0.764551 0.023031
S2    S     S_3+6 0.685019 0.645906 0.235449 0.023030
S3    S     S_3+6 0.702088 0.704085 0.816652 0.043165
S4    S     S_3+6 0.297911 0.295915 0.183348 0.043165

loop_
_geom_bond_atom_site_label_1
_geom_bond_atom_site_label_2
_ccdc_geom_bond_type
C10   S1    S    
H5    O24   S    
O8    S2    D    
C36   H4    S    
C34   O2    S    
O6    S1    D    
C15   O21   A    
C19   H19   S    
Cu1   O19   S    
C12   C23   S    
C28   C29   A    
C19   C21   A    
C24   C26   A    
C8    N1    A    
C3    C33   A    
C2    H3    S    
C12   O19   A    
C1    C31   S    
O13   S3    D    
C20   H12   S    
C33   C35   A    
O17   S4    S    
C22   C25   A    
C5    H14   S    
C14   O20   A    
O14   S3    S    
C17   H17   S    
C5    C13   A    
C18   H18   S    
C16   C27   A    
C12   O12   A    
Cu2   O22   S    
C27   C30   A    
C1    O18   A    
C14   C30   S    
H9    O7    S    
C15   C29   S    
C25   C29   A    
Cu1   O20   S    
Cu2   O12   S    
O7    S1    S    
C6    C11   A    
C5    C7    A    
C6    C8    A    
Cu2   O18   S    
H6    O2    S    
H7    O3    S    
H8    O4    S    
C32   C34   A    
C2    C4    A    
H13   O17   S    
Cu1   Cu2   S    
C9    S2    S    
C7    S4    S    
C21   H1    S    
C31   C34   A    
Cu1   N1    S    
C9    C11   A    
C4    C32   A    
O11   S3    D    
C20   C22   A    
C26   C30   A    
C23   C35   A    
Cu2   O21   S    
Cu2   N2    S    
C14   O22   A    
C6    H15   S    
C3    C4    A    
O10   S2    S    
C7    N2    A    
O16   S4    D    
C24   H2    S    
C31   C36   A    
C17   C28   A    
C32   O3    S    
H10   O10   S    
C10   C13   A    
C1    O1    A    
C22   H20   S    
Cu1   O1    S    
C35   O24   S    
O5    S1    D    
C25   C27   A    
C26   C28   A    
C9    N2    A    
C8    S3    S    
C10   N1    A    
C11   C13   A    
C3    C36   A    
C33   O4    S    
C15   O23   A    
C17   C19   A    
C18   C20   A    
C16   H16   S    
O15   S4    D    
C16   C18   A    
C21   C24   A    
C2    C23   A    
H11   O14   S    
Cu1   O23   S    
O9    S2    D    
