data_mof_unit_37004.cif
_audit_creation_date              2012-12-10T16:36:47-0500
_audit_creation_method            fapswitch 2.2
_symmetry_space_group_name_H-M    P1
_symmetry_Int_Tables_number       1
_space_group_crystal_system       triclinic
_cell_length_a                    14.18109
_cell_length_b                    16.441834
_cell_length_c                    15.124975
_cell_angle_alpha                 89.999146
_cell_angle_beta                  92.231167
_cell_angle_gamma                 89.880014
_cell_volume                      3523.90518278

loop_
_atom_site_label
_atom_site_type_symbol
_atom_type_description
_atom_site_fract_x
_atom_site_fract_y
_atom_site_fract_z
_atom_type_partial_charge
C1    C     C_R   0.679691 0.844952 0.519677 0.520051
C2    C     C_R   0.947913 0.481700 0.108352 0.250594
C3    C     C_R   0.606072 0.038874 0.127442 -0.189504
C4    C     C_R   0.106070 0.538877 0.127442 -0.189503
C5    C     C_R   0.610309 0.049221 0.036410 -0.160815
C6    C     C_R   0.110307 0.549225 0.036411 -0.160815
C7    C     C_2   0.246270 0.218553 0.476385 0.252520
C8    C     C_2   0.252628 0.776835 0.469909 0.255254
C9    C     C_2   0.746270 0.718553 0.476385 0.252520
C10   C     C_2   0.752628 0.276835 0.469909 0.255254
C11   C     C_2   0.754311 0.785369 0.528169 0.271293
C12   C     C_R   0.679219 0.155443 0.519647 0.530983
C13   C     C_2   0.751733 0.216461 0.530543 0.272579
C14   C     C_2   0.254310 0.285369 0.528169 0.271293
C15   C     C_2   0.251733 0.716461 0.530543 0.272578
C16   C     C_R   0.320078 0.156384 0.480537 0.533558
C17   C     C_R   0.320603 0.843281 0.480085 0.528944
C18   C     C_R   0.820078 0.656384 0.480537 0.533557
C19   C     C_R   0.820603 0.343281 0.480085 0.528943
C20   C     C_R   0.519955 0.000395 0.260514 0.515416
C21   C     C_R   0.019955 0.500395 0.260514 0.515417
C22   C     C_R   0.479331 0.999854 0.738582 0.492102
C23   C     C_R   0.179691 0.344952 0.519677 0.520051
C24   C     C_R   0.979331 0.499854 0.738582 0.492102
C25   C     C_R   0.525363 0.005652 0.164081 0.026391
C26   C     C_R   0.025363 0.505652 0.164081 0.026392
C27   C     C_R   0.469813 0.998400 0.833287 0.040296
C28   C     C_R   0.969813 0.498400 0.833287 0.040295
C29   C     C_R   0.385281 0.952554 0.959129 -0.136458
C30   C     C_R   0.885284 0.452550 0.959129 -0.136458
C31   C     C_R   0.392982 0.958223 0.868180 -0.142899
C32   C     C_R   0.892985 0.458219 0.868180 -0.142899
C33   C     C_R   0.541080 0.030817 0.888851 -0.124390
C34   C     C_R   0.179219 0.655443 0.519647 0.530982
C35   C     C_R   0.041078 0.530820 0.888851 -0.124390
C36   C     C_3   0.297573 0.011617 0.145879 -0.002866
C37   C     C_3   0.214434 0.981093 0.197010 -0.346890
C38   C     C_3   0.797573 0.511609 0.145879 -0.002862
C39   C     C_3   0.714430 0.481078 0.197001 -0.346895
C40   C     C_3   0.679289 0.725862 0.337200 -0.017492
C41   C     C_3   0.585423 0.724714 0.285003 -0.360943
C42   C     C_3   0.730297 0.253514 0.321945 -0.016956
C43   C     C_3   0.654973 0.239956 0.249117 -0.358988
C44   C     C_3   0.179290 0.225862 0.337199 -0.017493
C45   C     C_R   0.535814 0.022720 0.980410 0.006589
C46   C     C_3   0.085424 0.224714 0.285002 -0.360944
C47   C     C_3   0.230296 0.753513 0.321945 -0.016956
C48   C     C_3   0.154973 0.739960 0.249116 -0.358986
C49   C     C_3   0.328360 0.357999 0.644109 -0.005930
C50   C     C_3   0.420405 0.362514 0.698914 -0.352686
C51   C     C_3   0.331511 0.641007 0.640665 -0.009410
C52   C     C_3   0.410515 0.647814 0.711165 -0.353344
C53   C     C_3   0.828360 0.857998 0.644110 -0.005930
C54   C     C_3   0.920406 0.862513 0.698914 -0.352685
C55   C     C_3   0.831511 0.141007 0.640665 -0.009411
C56   C     C_R   0.035813 0.522721 0.980410 0.006589
C57   C     C_3   0.910514 0.147814 0.711165 -0.353346
C58   C     C_R   0.455641 0.985732 0.016213 0.046864
C59   C     C_R   0.955642 0.485731 0.016213 0.046864
C60   C     C_R   0.447912 0.981702 0.108351 0.250596
H1    H     H_    0.665072 0.058918 0.169517 0.135807
H2    H     H_    0.101920 0.559357 0.860622 0.099281
H3    H     H_    0.271435 0.027807 0.077867 0.112138
H4    H     H_    0.325057 0.067795 0.179075 0.136943
H5    H     H_    0.237917 0.965371 0.265793 0.207559
H6    H     H_    0.159420 0.029153 0.199160 0.087557
H7    H     H_    0.183679 0.926292 0.164208 0.139032
H8    H     H_    0.771439 0.527802 0.077865 0.112135
H9    H     H_    0.825052 0.567786 0.179081 0.136950
H10   H     H_    0.737907 0.465354 0.265785 0.207550
H11   H     H_    0.659413 0.529135 0.199149 0.087561
H12   H     H_    0.165069 0.558923 0.169517 0.135806
H13   H     H_    0.683681 0.426277 0.164194 0.139030
H14   H     H_    0.727629 0.681594 0.306489 0.142955
H15   H     H_    0.709346 0.788251 0.332155 0.133953
H16   H     H_    0.535942 0.769143 0.313614 0.157439
H17   H     H_    0.596432 0.741353 0.215000 0.096233
H18   H     H_    0.553980 0.662960 0.287110 0.158431
H19   H     H_    0.769945 0.195348 0.331937 0.126450
H20   H     H_    0.779349 0.301371 0.299581 0.160441
H21   H     H_    0.613933 0.296751 0.237126 0.156915
H22   H     H_    0.688658 0.221981 0.186978 0.094506
H23   H     H_    0.325026 0.920940 0.984296 0.145979
H24   H     H_    0.606259 0.190876 0.268684 0.159626
H25   H     H_    0.227630 0.181594 0.306489 0.142955
H26   H     H_    0.209347 0.288251 0.332155 0.133953
H27   H     H_    0.035943 0.269143 0.313613 0.157441
H28   H     H_    0.096433 0.241353 0.215000 0.096233
H29   H     H_    0.053981 0.162960 0.287110 0.158430
H30   H     H_    0.269941 0.695346 0.331937 0.126452
H31   H     H_    0.279352 0.801369 0.299582 0.160439
H32   H     H_    0.113938 0.796757 0.237125 0.156916
H33   H     H_    0.188657 0.721983 0.186977 0.094506
H34   H     H_    0.825030 0.420933 0.984296 0.145980
H35   H     H_    0.106255 0.690882 0.268682 0.159624
H36   H     H_    0.272125 0.336227 0.687770 0.124259
H37   H     H_    0.311028 0.420288 0.619573 0.123534
H38   H     H_    0.477841 0.385008 0.657483 0.171900
H39   H     H_    0.412303 0.404856 0.755335 0.078876
H40   H     H_    0.439664 0.301298 0.725026 0.174123
H41   H     H_    0.356258 0.600353 0.587274 0.132279
H42   H     H_    0.269082 0.613645 0.671571 0.120677
H43   H     H_    0.387823 0.687073 0.766228 0.159740
H44   H     H_    0.428530 0.586492 0.737687 0.082252
H45   H     H_    0.672514 0.076682 0.009704 0.115595
H46   H     H_    0.474192 0.674635 0.682208 0.180481
H47   H     H_    0.772125 0.836226 0.687770 0.124258
H48   H     H_    0.811027 0.920288 0.619574 0.123534
H49   H     H_    0.977841 0.885008 0.657483 0.171900
H50   H     H_    0.912303 0.904855 0.755335 0.078876
H51   H     H_    0.939665 0.801297 0.725025 0.174123
H52   H     H_    0.856258 0.100352 0.587275 0.132280
H53   H     H_    0.769081 0.113646 0.671572 0.120679
H54   H     H_    0.887823 0.187074 0.766228 0.159740
H55   H     H_    0.928529 0.086493 0.737688 0.082252
H56   H     H_    0.172511 0.576688 0.009704 0.115595
H57   H     H_    0.974192 0.174634 0.682209 0.180482
H58   H     H_    0.338897 0.931411 0.824837 0.123624
H59   H     H_    0.838901 0.431405 0.824837 0.123625
H60   H     H_    0.601923 0.059352 0.860622 0.099279
O1    O     O_3   0.500000 0.000000 0.500000 -0.453168
O2    O     O_R   0.885830 0.337110 0.539910 -0.496524
O3    O     O_R   0.692160 0.095230 0.468550 -0.571486
O4    O     O_R   0.692160 0.904770 0.468550 -0.556681
O5    O     O_R   0.192160 0.595230 0.468550 -0.571487
O6    O     O_R   0.192160 0.404770 0.468550 -0.556682
O7    O     O_R   0.316720 0.904790 0.427870 -0.547030
O8    O     O_R   0.316720 0.095210 0.427870 -0.551233
O9    O     O_R   0.816720 0.404790 0.427870 -0.547029
O10   O     O_R   0.816720 0.595210 0.427870 -0.551230
O11   O     O_R   0.594900 0.000000 0.310900 -0.556090
O12   O     O_3   0.000000 0.500000 0.500000 -0.453168
O13   O     O_R   0.094900 0.500000 0.310900 -0.556088
O14   O     O_R   0.483090 0.932320 0.697550 -0.540831
O15   O     O_R   0.483090 0.067680 0.697550 -0.547953
O16   O     O_R   0.983090 0.432320 0.697550 -0.540831
O17   O     O_R   0.983090 0.567680 0.697550 -0.547953
O18   O     O_R   0.438930 0.000000 0.294000 -0.520395
O19   O     O_R   0.938930 0.500000 0.294000 -0.520395
O20   O     O_3   0.367259 0.949857 0.143982 -0.559674
O21   O     O_3   0.867262 0.449851 0.143982 -0.559674
O22   O     O_3   0.664063 0.704348 0.425915 -0.580354
O23   O     O_R   0.605310 0.837110 0.563680 -0.546085
O24   O     O_3   0.686365 0.278080 0.399835 -0.580069
O25   O     O_3   0.164063 0.204348 0.425915 -0.580354
O26   O     O_3   0.186365 0.778080 0.399835 -0.580068
O27   O     O_3   0.339984 0.304219 0.572392 -0.559024
O28   O     O_3   0.309277 0.719480 0.607652 -0.562760
O29   O     O_3   0.839984 0.804220 0.572392 -0.559023
O30   O     O_3   0.809277 0.219480 0.607652 -0.562761
O31   O     O_R   0.605310 0.162890 0.563680 -0.526752
O32   O     O_R   0.105310 0.337110 0.563680 -0.546085
O33   O     O_R   0.105310 0.662890 0.563680 -0.526752
O34   O     O_R   0.385830 0.162890 0.539910 -0.496100
O35   O     O_R   0.385830 0.837110 0.539910 -0.496524
O36   O     O_R   0.885830 0.662890 0.539910 -0.496100
Zn1   Zn    Zn3+2 0.493670 0.096680 0.574000 0.957519
Zn2   Zn    Zn3+2 0.493670 0.903320 0.574000 0.949787
Zn3   Zn    Zn3+2 0.993670 0.596680 0.574000 0.957519
Zn4   Zn    Zn3+2 0.993670 0.403320 0.574000 0.949787
Zn5   Zn    Zn3+2 0.617760 1.000000 0.438070 0.912096
Zn6   Zn    Zn3+2 0.117760 0.500000 0.438070 0.912096
Zn7   Zn    Zn3+2 0.394920 0.000000 0.413930 0.930358
Zn8   Zn    Zn3+2 0.894920 0.500000 0.413930 0.930362

loop_
_geom_bond_atom_site_label_1
_geom_bond_atom_site_label_2
_ccdc_geom_bond_type
C19   O9    A    
C21   C26   S    
O32   Zn4   S    
C19   O2    A    
C42   H20   S    
O15   Zn1   S    
C48   H35   S    
C40   O22   S    
C55   H52   S    
C33   C45   A    
O5    Zn6   S    
C1    C11   S    
C23   O32   A    
O13   Zn6   S    
C57   H55   S    
C46   H29   S    
C5    H45   S    
C53   C54   S    
C27   C33   A    
C51   H42   S    
C49   O27   S    
C50   H39   S    
O12   Zn4   S    
C22   O14   A    
O31   Zn1   S    
C36   C37   S    
C13   O30   S    
C29   H23   S    
C41   H17   S    
C15   O28   S    
O3    Zn5   S    
C52   H43   S    
C20   C25   S    
O11   Zn5   S    
C58   C60   A    
O1    Zn7   S    
O2    Zn4   S    
C54   H50   S    
C20   O18   A    
C11   O29   S    
C7    C14   D    
C28   C35   A    
C37   H5    S    
O18   Zn7   S    
C25   C60   A    
C36   H3    S    
C15   C34   S    
C24   O16   A    
C39   H13   S    
C38   H9    S    
C52   H46   S    
C42   H19   S    
O1    Zn1   S    
C37   H6    S    
O35   Zn2   S    
C53   O29   S    
C43   H24   S    
C12   O31   A    
C44   H26   S    
C21   O13   A    
C44   C46   S    
C46   H28   S    
C3    H1    S    
C8    O26   S    
C45   C58   A    
C50   H38   S    
O12   Zn3   S    
C48   H33   S    
O17   Zn3   S    
C27   C31   A    
C51   C52   S    
C28   C32   A    
O34   Zn1   S    
C4    C6    A    
C41   H18   S    
C2    C59   A    
C17   O7    A    
C55   H53   S    
C16   O34   A    
C5    C45   A    
C14   O27   S    
O8    Zn7   S    
C54   H49   S    
C14   C23   S    
O33   Zn3   S    
O12   Zn8   S    
C31   H58   S    
C1    O23   A    
C9    C11   D    
C53   H47   S    
C47   C48   S    
C3    C25   A    
C10   C19   S    
O1    Zn5   S    
C30   C59   A    
C44   O25   S    
C2    C26   A    
C10   O24   S    
C12   C13   S    
C36   O20   S    
C6    H56   S    
C60   O20   S    
C23   O6    A    
C40   C41   S    
O14   Zn2   S    
C38   H8    S    
C8    C15   D    
O1    Zn2   S    
C55   C57   S    
C42   O24   S    
C43   H21   S    
C47   H30   S    
C18   O10   A    
C42   C43   S    
C21   O19   A    
C20   O11   A    
C44   H25   S    
C17   O35   A    
C4    H12   S    
C18   O36   A    
C55   O30   S    
C57   H57   S    
C46   H27   S    
C34   O33   A    
O10   Zn8   S    
O23   Zn2   S    
C2    O21   S    
C52   H44   S    
O7    Zn7   S    
C35   C56   A    
C47   H31   S    
O36   Zn3   S    
C7    C16   S    
C24   C28   S    
C6    C56   A    
C3    C5    A    
C10   C13   D    
C4    C26   A    
C9    O22   S    
C40   H15   S    
C57   H54   S    
C24   O17   A    
C51   H41   S    
O4    Zn5   S    
C50   H40   S    
C8    C17   S    
C56   C59   A    
C22   O15   A    
C22   C27   S    
C1    O4    A    
C30   H34   S    
C36   H4    S    
C41   H16   S    
C30   C32   A    
C53   H48   S    
C38   C39   S    
C12   O3    A    
C51   O28   S    
C34   O5    A    
C37   H7    S    
C38   O21   S    
C39   H10   S    
C40   H14   S    
C54   H51   S    
C35   H2    S    
C16   O8    A    
C49   H36   S    
O12   Zn6   S    
C47   O26   S    
O19   Zn8   S    
C49   H37   S    
O16   Zn4   S    
C9    C18   S    
C29   C58   A    
O9    Zn8   S    
C33   H60   S    
C29   C31   A    
C49   C50   S    
C48   H32   S    
C43   H22   S    
C39   H11   S    
C32   H59   S    
O6    Zn6   S    
C7    O25   S    
