data_mof_unit_45155.cif
_audit_creation_date              2012-12-10T17:26:21-0500
_audit_creation_method            fapswitch 2.2
_symmetry_space_group_name_H-M    P1
_symmetry_Int_Tables_number       1
_space_group_crystal_system       triclinic
_cell_length_a                    10.114223
_cell_length_b                    10.228075
_cell_length_c                    27.366147
_cell_angle_alpha                 90.733331
_cell_angle_beta                  81.834331
_cell_angle_gamma                 94.729065
_cell_volume                      2792.75774672

loop_
_atom_site_label
_atom_site_type_symbol
_atom_type_description
_atom_site_fract_x
_atom_site_fract_y
_atom_site_fract_z
_atom_type_partial_charge
C1    C     C_R   0.555025 0.736653 0.499764 0.945223
C2    C     C_R   0.445196 0.263419 0.505803 0.938083
C3    C     C_R   0.588037 0.453142 0.894239 -0.080127
C4    C     C_R   0.594584 0.408554 0.098704 -0.079672
C5    C     C_R   0.635324 0.573620 0.869963 -0.056826
C6    C     C_R   0.522674 0.300080 0.124601 -0.067252
C7    C     C_R   0.707554 0.671287 0.895050 0.008658
C8    C     C_R   0.492577 0.183922 0.098265 0.024918
C9    C     C_R   0.519753 0.352552 0.868969 -0.065374
C10   C     C_R   0.647254 0.516024 0.125090 -0.060975
C11   C     C_R   0.508135 0.506035 0.647329 -0.030834
C12   C     C_R   0.494097 0.469591 0.353633 -0.028289
C13   C     C_R   0.677822 0.522055 0.020865 0.042207
C14   C     C_R   0.557656 0.314392 0.968397 0.041293
C15   C     C_R   0.559524 0.302966 0.020079 0.042364
C16   C     C_R   0.670953 0.536243 0.969808 0.042921
C17   C     C_R   0.611341 0.410797 0.046404 0.067834
C18   C     C_R   0.606560 0.434148 0.944111 0.066293
C19   C     C_R   0.748534 0.616182 0.047549 -0.269275
C20   C     C_R   0.503345 0.211700 0.940534 -0.280193
C21   C     C_R   0.735072 0.614504 0.098915 0.020727
C22   C     C_R   0.485896 0.228004 0.891450 0.014823
C23   C     C_R   0.501564 0.501561 0.594283 0.905168
C24   C     C_R   0.498351 0.495366 0.405900 0.846935
C25   C     C_R   0.720595 0.652812 0.944320 -0.270898
C26   C     C_R   0.510341 0.187567 0.046701 -0.270425
C27   C     C_2   0.583752 0.875597 0.511311 -0.311943
C28   C     C_2   0.417719 0.125337 0.520407 -0.302074
C29   C     C_2   0.505685 0.929304 0.549975 0.408768
C30   C     C_2   0.497809 0.074497 0.550292 0.410925
C31   C     C_2   0.927334 0.510906 0.504733 -0.137513
C32   C     C_2   0.072578 0.488849 0.495367 -0.146618
C33   C     C_R   0.606489 0.591989 0.821724 0.489415
C34   C     C_R   0.482973 0.313090 0.175774 0.482286
C35   C     C_R   0.486858 0.381110 0.822200 0.488974
C36   C     C_R   0.608949 0.520585 0.176528 0.477534
C37   C     C_R   0.403662 0.528469 0.732024 -0.121768
C38   C     C_R   0.410328 0.507776 0.277031 -0.106235
C39   C     C_R   0.394756 0.527517 0.681609 -0.235571
C40   C     C_R   0.405137 0.529131 0.327737 -0.231722
C41   C     C_R   0.630664 0.488862 0.663985 -0.228561
C42   C     C_R   0.581668 0.382421 0.329289 -0.218422
C43   C     C_R   0.639201 0.490112 0.714003 -0.152647
C44   C     C_R   0.585170 0.359824 0.279155 -0.136337
C45   C     C_R   0.525892 0.508544 0.748089 0.336384
C46   C     C_R   0.502233 0.424783 0.252714 0.341452
H1    H     H_    0.719961 0.472654 0.638473 0.162632
H2    H     H_    0.649005 0.333080 0.348918 0.154354
H3    H     H_    0.108299 0.418891 0.467400 0.161512
H4    H     H_    0.891496 0.580437 0.532845 0.153057
H5    H     H_    0.119946 0.616294 0.546435 0.170793
H6    H     H_    0.880350 0.384784 0.453231 0.166030
H7    H     H_    0.733351 0.473534 0.726513 0.126017
H8    H     H_    0.656998 0.296739 0.260264 0.121706
H9    H     H_    0.336240 0.595656 0.346206 0.149556
H10   H     H_    0.299545 0.541895 0.669551 0.157800
H11   H     H_    0.347030 0.559163 0.256374 0.117244
H12   H     H_    0.315668 0.542084 0.758539 0.128930
H13   H     H_    0.818873 0.691011 0.029286 0.139750
H14   H     H_    0.473358 0.115650 0.955722 0.137628
H15   H     H_    0.768929 0.734315 0.962040 0.140846
H16   H     H_    0.487558 0.096608 0.028404 0.136245
N1    N     N_R   0.535078 0.496107 0.799328 -0.348269
N2    N     N_R   0.527540 0.421156 0.200129 -0.349905
N3    N     N_2   0.842700 0.448890 0.480020 -0.176042
N4    N     N_2   0.157300 0.551110 0.519980 -0.179030
O1    O     O_R   0.431060 0.692470 0.504020 -0.535863
O2    O     O_R   0.568940 0.307530 0.495980 -0.540666
O3    O     O_R   0.651120 0.659650 0.491200 -0.615237
O4    O     O_R   0.348880 0.340350 0.508800 -0.615104
O5    O     O_R   0.389980 0.516390 0.577660 -0.598840
O6    O     O_R   0.610020 0.483610 0.422340 -0.612293
O7    O     O_R   0.610040 0.483570 0.564830 -0.602277
O8    O     O_R   0.389960 0.516430 0.435170 -0.614931
O9    O     O_2   0.646626 0.704974 0.797199 -0.586719
O10   O     O_2   0.396853 0.221705 0.200962 -0.567457
O11   O     O_2   0.649177 0.624452 0.203118 -0.586014
O12   O     O_2   0.405782 0.296318 0.799615 -0.571974
Zn1   Zn    Zn3+2 0.353060 0.521910 0.508560 0.970606
Zn2   Zn    Zn3+2 0.646940 0.478090 0.491440 0.968676
C47   C     C_R   0.313989 0.043818 0.497711 0.062231
C48   C     C_R   0.204867 0.977125 0.527255 -0.054096
C49   C     C_R   0.111464 0.895671 0.505582 -0.146153
C50   C     C_R   0.125404 0.881394 0.454306 -0.082156
C51   C     C_R   0.231708 0.950113 0.424582 -0.136779
C52   C     C_R   0.325408 0.031582 0.446131 -0.167703
H17   H     H_    0.192005 0.988193 0.566962 0.128291
H18   H     H_    0.027921 0.843994 0.528519 0.107709
H19   H     H_    0.052924 0.818331 0.437613 0.137826
H20   H     H_    0.241787 0.939900 0.384843 0.134029
H21   H     H_    0.408098 0.083252 0.422700 0.120706
C53   C     C_R   0.687500 0.954106 0.477451 0.058964
C54   C     C_R   0.797181 0.022422 0.495255 -0.043144
C55   C     C_R   0.892212 0.098760 0.463273 -0.122624
C56   C     C_R   0.879667 0.105797 0.413207 -0.140192
C57   C     C_R   0.772161 0.036253 0.395025 -0.129406
C58   C     C_R   0.676691 0.960103 0.426933 -0.150342
H22   H     H_    0.809787 0.015908 0.533705 0.125677
H23   H     H_    0.976185 0.151724 0.477246 0.132328
H24   H     H_    0.953519 0.164730 0.388494 0.126582
H25   H     H_    0.762639 0.041543 0.356216 0.131287
H26   H     H_    0.593472 0.907224 0.412415 0.119879
C59   C     C_R   0.775356 0.793862 0.871767 0.202844
C60   C     C_R   0.733607 0.916474 0.888352 -0.146079
C61   C     C_R   0.803598 0.032072 0.868810 -0.168189
C62   C     C_R   0.914968 0.026117 0.832468 -0.108632
C63   C     C_R   0.957471 0.904545 0.815963 -0.144687
C64   C     C_R   0.888947 0.788691 0.835885 -0.096043
H27   H     H_    0.647558 0.922368 0.916561 0.126480
H28   H     H_    0.771350 0.126316 0.881776 0.143285
H29   H     H_    0.968756 0.115696 0.817284 0.140764
H30   H     H_    0.044428 0.900090 0.788116 0.132244
H31   H     H_    0.924233 0.695055 0.823488 0.115169
C65   C     C_R   0.455725 0.053715 0.122499 0.183346
C66   C     C_R   0.350595 0.969150 0.108487 -0.162282
C67   C     C_R   0.323205 0.843328 0.128681 -0.158479
C68   C     C_R   0.397798 0.801808 0.163927 -0.109569
C69   C     C_R   0.501462 0.885383 0.178455 -0.091534
C70   C     C_R   0.532264 0.009501 0.157152 -0.108217
H32   H     H_    0.290641 0.000051 0.081607 0.128594
H33   H     H_    0.244164 0.777917 0.116907 0.144409
H34   H     H_    0.375606 0.704759 0.179779 0.132147
H35   H     H_    0.559277 0.853814 0.205817 0.188060
H36   H     H_    0.615842 0.071226 0.167699 0.117872
C71   C     C_R   0.819295 0.714652 0.123031 0.189548
C72   C     C_R   0.911272 0.676189 0.152988 -0.078373
C73   C     C_R   0.989558 0.770721 0.175906 -0.144367
C74   C     C_R   0.979618 0.904052 0.167975 -0.102226
C75   C     C_R   0.891151 0.943088 0.137169 -0.163751
C76   C     C_R   0.811550 0.848909 0.114618 -0.169541
H37   H     H_    0.920834 0.573157 0.159057 0.118018
H38   H     H_    0.058807 0.740590 0.199504 0.131604
H39   H     H_    0.041099 0.977046 0.185453 0.151345
H40   H     H_    0.883985 0.046349 0.130839 0.132093
H41   H     H_    0.743031 0.880501 0.090965 0.135054
C77   C     C_R   0.439328 0.109146 0.864631 0.174755
C78   C     C_R   0.518120 0.065235 0.821988 -0.075625
C79   C     C_R   0.475559 0.952151 0.797452 -0.056116
C80   C     C_R   0.355702 0.880267 0.815801 -0.112652
C81   C     C_R   0.277706 0.921936 0.858544 -0.155470
C82   C     C_R   0.318970 0.035966 0.882857 -0.151629
H42   H     H_    0.611847 0.119290 0.807573 0.119192
H43   H     H_    0.535795 0.920030 0.764282 0.155031
H44   H     H_    0.323352 0.792257 0.796931 0.122435
H45   H     H_    0.185143 0.865908 0.872851 0.140888
H46   H     H_    0.257183 0.067301 0.915834 0.129820
O13   O     O_3   0.596949 0.158446 0.567738 -0.592975
C83   C     C_3   0.625154 0.119282 0.614016 -0.355773
H47   H     H_    0.664584 0.020904 0.612491 0.146130
H48   H     H_    0.536150 0.124448 0.642628 0.172537
H49   H     H_    0.704839 0.189668 0.625200 0.199038
O14   O     O_3   0.407551 0.847315 0.578430 -0.597761
C84   C     C_3   0.380882 0.890880 0.627560 -0.369056
H50   H     H_    0.341204 0.989183 0.630015 0.155021
H51   H     H_    0.470705 0.888122 0.646489 0.167364
H52   H     H_    0.301897 0.821785 0.647581 0.194637

loop_
_geom_bond_atom_site_label_1
_geom_bond_atom_site_label_2
_ccdc_geom_bond_type
O2    Zn2   S    
C61   H28   S    
O7    Zn2   S    
C54   C55   A    
C37   C45   A    
C27   C29   D    
C8    C26   A    
C63   H30   S    
C14   C18   A    
C37   H12   S    
C56   C57   A    
C83   H49   S    
C78   H42   S    
C74   C75   A    
O5    Zn1   S    
C65   C66   A    
C30   O13   S    
C51   C52   A    
N4    Zn1   S    
C72   C73   A    
C49   C50   A    
C72   H37   S    
C19   C21   A    
C83   H48   S    
C2    O2    A    
C79   H43   S    
C60   H27   S    
C9    C22   A    
C62   C63   A    
C48   H17   S    
C67   C68   A    
C3    C18   A    
C31   N3    D    
C36   O11   S    
C69   C70   A    
C12   C42   A    
C73   H38   S    
C71   C76   A    
C43   H7    S    
O13   C83   S    
C44   C46   A    
C5    C33   A    
C63   C64   A    
C59   C64   A    
C20   H14   S    
C58   H26   S    
C8    C65   S    
C1    C27   S    
C49   H18   S    
C28   C47   S    
N3    Zn2   S    
C7    C59   S    
C57   H25   S    
C41   C43   A    
C42   C44   A    
C23   O7    A    
C25   H15   S    
C60   C61   A    
C33   O9    S    
C53   C58   A    
C47   C48   A    
C62   H29   S    
C10   C21   A    
C80   C81   A    
C67   H33   S    
C13   C19   A    
C23   O5    A    
C50   C51   A    
O1    Zn1   S    
C81   C82   A    
C4    C6    A    
C5    C7    A    
C56   H24   S    
C15   C26   A    
C6    C8    A    
C19   H13   S    
C70   H36   S    
C45   N1    S    
C1    O3    A    
C6    C34   A    
C22   C77   S    
H5    N4    S    
C64   H31   S    
C12   C40   A    
C68   H34   S    
C74   H39   S    
C29   C30   S    
C3    C9    A    
C14   C20   A    
C38   H11   S    
C80   H44   S    
C31   C32   S    
C33   N1    A    
C40   H9    S    
C57   C58   A    
C34   N2    A    
C41   H1    S    
C27   C53   S    
C39   H10   S    
C42   H2    S    
C83   H47   S    
C84   H52   S    
C11   C39   A    
C43   C45   A    
C82   H46   S    
C4    C17   A    
C16   C18   A    
C76   H41   S    
C20   C22   A    
C66   H32   S    
O8    Zn1   S    
C71   C72   A    
C84   H51   S    
C50   H19   S    
C31   H4    S    
C21   C71   S    
C73   C74   A    
C24   O6    A    
C32   N4    D    
C75   C76   A    
C61   C62   A    
C16   C25   A    
C15   C17   A    
O4    Zn1   S    
C47   C52   A    
C77   C78   A    
C3    C5    A    
C81   H45   S    
C35   N1    A    
C51   H20   S    
C78   C79   A    
C12   C24   S    
C35   O12   S    
C7    C25   A    
C13   C17   A    
C52   H21   S    
C28   C30   D    
C26   H16   S    
C37   C39   A    
C36   N2    A    
C68   C69   A    
C29   O14   S    
C38   C40   A    
C24   O8    A    
C65   C70   A    
C55   H23   S    
C11   C23   S    
C53   C54   A    
C1    O1    A    
C77   C82   A    
C10   C36   A    
C11   C41   A    
C69   H35   S    
C55   C56   A    
C32   H3    S    
C38   C46   A    
C79   C80   A    
C75   H40   S    
C44   H8    S    
O14   C84   S    
O6    Zn2   S    
C48   C49   A    
C13   C16   A    
C46   N2    S    
C59   C60   A    
C9    C35   A    
C14   C15   A    
O3    Zn2   S    
C2    C28   S    
C84   H50   S    
C2    O4    A    
C4    C10   A    
C54   H22   S    
H6    N3    S    
C66   C67   A    
C34   O10   S    
