data_mof_unit_36157.cif
_audit_creation_date              2012-12-10T17:52:23-0500
_audit_creation_method            fapswitch 2.2
_symmetry_space_group_name_H-M    P1
_symmetry_Int_Tables_number       1
_space_group_crystal_system       triclinic
_cell_length_a                    19.106368
_cell_length_b                    10.727407
_cell_length_c                    9.959903
_cell_angle_alpha                 89.809496
_cell_angle_beta                  90.379566
_cell_angle_gamma                 93.576615
_cell_volume                      2037.37003887

loop_
_atom_site_label
_atom_site_type_symbol
_atom_type_description
_atom_site_fract_x
_atom_site_fract_y
_atom_site_fract_z
_atom_type_partial_charge
C1    C     C_R   0.506891 0.261643 0.500607 0.875650
C2    C     C_R   0.290764 0.532406 0.498522 -0.182933
C3    C     C_R   0.931194 0.554412 0.466145 0.292427
C4    C     C_R   0.072130 0.570512 0.476962 0.351516
C5    C     C_R   0.820433 0.591387 0.577940 -0.166617
C6    C     C_R   0.748575 0.570914 0.591485 -0.218844
C7    C     C_R   0.710254 0.497962 0.497406 -0.242071
C8    C     C_R   0.744838 0.440887 0.390636 0.438056
C9    C     C_R   0.816287 0.468583 0.371809 0.466357
C10   C     C_R   0.854836 0.541118 0.468780 -0.131290
C11   C     C_R   0.548227 0.120191 0.744938 -0.288931
C12   C     C_R   0.365689 0.506707 0.499607 1.014864
C13   C     C_R   0.538326 0.060464 0.869071 -0.075273
C14   C     C_R   0.495553 0.948099 0.874148 0.539404
C15   C     C_R   0.476218 0.888020 0.754018 -0.194638
C16   C     C_R   0.496555 0.939965 0.628340 -0.005316
C17   C     C_R   0.520917 0.064898 0.625478 0.100889
C18   C     C_R   0.516254 0.129730 0.502575 -0.127290
C19   C     C_R   0.508098 0.065183 0.381540 -0.189672
C20   C     C_R   0.499942 0.937547 0.382545 -0.062562
C21   C     C_R   0.493713 0.873743 0.504749 -0.073766
C22   C     C_R   0.408263 0.332822 0.140956 -0.043531
C23   C     C_R   0.496476 0.739830 0.500884 0.916351
C24   C     C_R   0.398472 0.211488 0.090150 0.400265
C25   C     C_R   0.400076 0.199294 0.951912 -0.383048
C26   C     C_R   0.420752 0.302926 0.870640 0.442781
C27   C     C_R   0.459274 0.408273 0.929475 0.065421
C28   C     C_R   0.456508 0.414953 0.072857 -0.185604
C29   C     C_R   0.543955 0.579033 0.074238 0.566668
C30   C     C_R   0.542327 0.583356 0.929629 -0.117207
C31   C     C_R   0.634213 0.497132 0.500008 0.859595
C32   C     C_R   0.246477 0.477851 0.597866 0.440606
C33   C     C_R   0.174996 0.500634 0.597625 0.338423
C34   C     C_R   0.147562 0.572616 0.493067 -0.095762
C35   C     C_R   0.191457 0.630504 0.394786 -0.098876
C36   C     C_R   0.263900 0.613971 0.400824 -0.181284
H1    H     H_    0.579564 0.207817 0.741590 0.172438
H2    H     H_    0.443021 0.802951 0.761176 0.194418
H3    H     H_    0.497396 0.889094 0.287317 0.225725
H4    H     H_    0.378067 0.113367 0.907519 0.195450
H5    H     H_    0.849267 0.646070 0.653687 0.191657
H6    H     H_    0.722697 0.615084 0.673512 0.178592
H7    H     H_    0.507019 0.113210 0.285901 0.199324
N1    N     N_R   0.035664 0.665284 0.523861 -0.102612
N2    N     N_R   0.966063 0.657444 0.518118 -0.137035
N3    N     N_R   0.968063 0.459049 0.421672 -0.123604
N4    N     N_R   0.037528 0.467052 0.426727 -0.123941
N5    N     N_R   0.499340 0.498800 0.142780 -0.127640
N6    N     N_R   0.499320 0.498720 0.857170 -0.155550
O1    O     O_R   0.500000 0.316780 0.614690 -0.575056
O2    O     O_R   0.499990 0.316750 0.385360 -0.636407
O3    O     O_R   0.398140 0.500000 0.614700 -0.509410
O4    O     O_R   0.398130 0.499970 0.385370 -0.646485
O5    O     O_R   0.500010 0.683250 0.614640 -0.680999
O6    O     O_R   0.500000 0.683220 0.385310 -0.545920
O7    O     O_R   0.601870 0.500030 0.614630 -0.664951
O8    O     O_R   0.601860 0.500000 0.385300 -0.561184
Zn1   Zn    Zn3+2 0.500000 0.500020 0.653130 0.980281
Zn2   Zn    Zn3+2 0.500000 0.499980 0.346870 1.028445
O9    O     O_3   0.274654 0.401571 0.693515 -0.719494
H8    H     H_    0.238299 0.368739 0.756846 0.392056
C37   C     C_2   0.573298 0.118169 0.988742 0.416313
H9    H     H_    0.588090 0.217559 0.989093 0.062244
O10   O     O_2   0.589193 0.054950 0.085044 -0.518369
O11   O     O_3   0.472282 0.893215 0.992437 -0.722094
H10   H     H_    0.471606 0.958524 0.062159 0.363057
O12   O     O_3   0.590522 0.653775 0.148877 -0.669850
H11   H     H_    0.637000 0.652066 0.105658 0.349899
C38   C     C_2   0.341600 0.385997 0.179526 0.508691
H12   H     H_    0.333096 0.482419 0.155091 0.035380
O13   O     O_2   0.295288 0.323455 0.237210 -0.548223
O14   O     O_3   0.369870 0.113306 0.165642 -0.704298
H13   H     H_    0.373502 0.137174 0.261709 0.364853
O15   O     O_3   0.396190 0.304759 0.741661 -0.646075
H14   H     H_    0.371501 0.223414 0.718525 0.339016
O16   O     O_3   0.133022 0.447012 0.697874 -0.754602
H15   H     H_    0.088915 0.490197 0.704413 0.351117
C39   C     C_2   0.587501 0.679534 0.858120 0.411211
H16   H     H_    0.600532 0.669345 0.754587 0.130056
O17   O     O_2   0.610612 0.774584 0.914092 -0.524178
C40   C     C_2   0.162398 0.707950 0.285098 0.482809
H17   H     H_    0.186873 0.712554 0.187243 0.050855
O18   O     O_2   0.111776 0.769651 0.303256 -0.515138
C41   C     C_2   0.311445 0.690963 0.311975 0.462480
H18   H     H_    0.303163 0.691924 0.204238 0.053067
O19   O     O_2   0.358657 0.758621 0.359920 -0.575112
O20   O     O_3   0.710382 0.360227 0.300783 -0.685775
H19   H     H_    0.669255 0.318344 0.346015 0.328671
O21   O     O_3   0.846327 0.423005 0.257752 -0.679444
H20   H     H_    0.885901 0.481652 0.231008 0.340582

loop_
_geom_bond_atom_site_label_1
_geom_bond_atom_site_label_2
_ccdc_geom_bond_type
O20   H19   S    
C16   C21   A    
O6    Zn2   S    
C19   C20   A    
C2    C12   S    
C40   H17   S    
O4    Zn2   S    
C7    C8    A    
C1    C18   S    
C29   C30   A    
C23   O5    A    
C41   O19   D    
C34   C35   A    
C25   H4    S    
O5    Zn1   S    
C5    C6    A    
C39   O17   D    
O8    Zn2   S    
C15   C16   A    
C2    C32   A    
C18   C19   A    
C11   H1    S    
C37   O10   D    
C40   O18   D    
C29   O12   S    
C41   H18   S    
C11   C17   A    
C13   C37   S    
C35   C36   A    
C8    C9    A    
C31   O7    A    
C1    O1    A    
C22   C38   S    
C12   O4    A    
C38   O13   D    
C22   C28   A    
C13   C14   A    
C12   O3    A    
C19   H7    S    
C33   C34   A    
C35   C40   S    
C4    C34   S    
C7    C31   S    
O15   H14   S    
C29   N5    A    
O12   H11   S    
O1    Zn1   S    
C24   C25   A    
C9    O21   S    
C20   H3    S    
C39   H16   S    
C16   C17   A    
C4    N1    A    
C25   C26   A    
C3    N2    A    
N6    Zn1   S    
O9    H8    S    
C15   H2    S    
C37   H9    S    
C33   O16   S    
C17   C18   A    
C26   C27   A    
O16   H15   S    
C1    O2    A    
O3    Zn1   S    
C30   N6    A    
C21   C23   S    
C22   C24   A    
O2    Zn2   S    
C32   O9    S    
N1    N2    A    
C24   O14   S    
N5    Zn2   S    
C9    C10   A    
C2    C36   A    
C5    H5    S    
N3    N4    A    
C28   N5    A    
O14   H13   S    
C23   O6    A    
C6    C7    A    
C3    N3    A    
C8    O20   S    
C32   C33   A    
C31   O8    A    
C5    C10   A    
C3    C10   S    
C11   C13   A    
C36   C41   S    
C26   O15   S    
C14   O11   S    
O7    Zn1   S    
C38   H12   S    
C30   C39   S    
C20   C21   A    
O11   H10   S    
C6    H6    S    
C27   C28   A    
C14   C15   A    
O21   H20   S    
C27   N6    A    
C4    N4    A    
