data_mof_unit_7281.cif
_audit_creation_date              2013-03-05T15:49:57-0500
_audit_creation_method            fapswitch 2.2
_symmetry_space_group_name_H-M    P1
_symmetry_Int_Tables_number       1
_space_group_crystal_system       triclinic
_cell_length_a                    13.58774
_cell_length_b                    13.57701
_cell_length_c                    27.655493
_cell_angle_alpha                 90.317558
_cell_angle_beta                  90.055542
_cell_angle_gamma                 120.019609
_cell_volume                      4417.4010287

loop_
_atom_site_label
_atom_site_type_symbol
_atom_site_description
_atom_site_fract_x
_atom_site_fract_y
_atom_site_fract_z
_atom_type_partial_charge
O1    O     O_R   0.302900 0.805360 0.446400 -0.492315
O2    O     O_R   0.522090 0.841370 0.450730 -0.476087
C1    C     C_R   0.619664 0.898313 0.431353 0.546888
O3    O     O_R   0.693280 0.995650 0.447220 -0.513705
O4    O     O_R   0.657260 0.178740 0.451050 -0.497023
C2    C     C_R   0.599865 0.218754 0.431358 0.548563
O5    O     O_R   0.502640 0.195380 0.446850 -0.496898
O6    O     O_R   0.319630 0.976590 0.450330 -0.496256
C3    C     C_R   0.279376 0.878794 0.430589 0.546507
O7    O     O_R   0.303680 0.807790 0.552740 -0.518003
O8    O     O_R   0.522820 0.843620 0.549310 -0.502499
C4    C     C_R   0.620380 0.900502 0.568930 0.547585
O9    O     O_R   0.694060 0.998080 0.553560 -0.513781
O10   O     O_R   0.657980 0.180990 0.549630 -0.499939
C5    C     C_R   0.600897 0.222301 0.568659 0.546785
O11   O     O_R   0.503420 0.197810 0.553190 -0.516568
O12   O     O_R   0.320350 0.978840 0.548910 -0.502339
C6    C     C_R   0.279578 0.881064 0.568334 0.540458
Cr1   Cr    Cr6+3 0.417720 0.831920 0.499820 1.056395
Cr2   Cr    Cr6+3 0.668190 0.085770 0.500360 1.030025
Cr3   Cr    Cr6+3 0.414060 0.082260 0.499840 1.040761
O13   O     O_3   0.499990 0.999990 0.500010 -0.254902
C7    C     C_1   0.632069 0.266530 0.384026 -0.002275
C8    C     C_R   0.762162 0.327717 0.267662 -0.090216
C9    C     C_R   0.772906 0.340452 0.216880 0.015275
C10   C     C_R   0.588477 0.330825 0.214605 -0.115758
C11   C     C_R   0.579437 0.318333 0.264620 -0.104875
C12   C     C_R   0.666187 0.317179 0.291248 0.021361
C13   C     C_R   0.683983 0.341589 0.190530 0.034415
C14   C     C_1   0.692404 0.363036 0.139223 -0.070631
C15   C     C_1   0.651187 0.294507 0.342275 -0.050954
C16   C     C_1   0.700757 0.389642 0.097297 -0.018815
H1    H     H_    0.826872 0.324783 0.289355 0.108676
H2    H     H_    0.520893 0.332846 0.194589 0.120537
H3    H     H_    0.504164 0.308557 0.282512 0.134537
C17   C     C_1   0.230299 0.861877 0.383142 0.000388
C18   C     C_R   0.240685 0.936538 0.260271 -0.102477
C19   C     C_R   0.223391 0.926161 0.210160 -0.110158
C20   C     C_R   0.074953 0.729809 0.220134 -0.101536
C21   C     C_R   0.092355 0.740115 0.270196 -0.093514
C22   C     C_R   0.175435 0.843464 0.290412 0.040180
C23   C     C_R   0.140946 0.822489 0.189946 0.032941
C24   C     C_1   0.120737 0.810328 0.138528 -0.067241
C25   C     C_1   0.200710 0.852043 0.341399 -0.044041
C26   C     C_1   0.094907 0.793010 0.096311 -0.018093
H4    H     H_    0.306074 0.016565 0.275446 0.115109
H5    H     H_    0.274531 0.998519 0.187265 0.108438
H6    H     H_    0.010483 0.649330 0.204930 0.111823
H7    H     H_    0.042252 0.667215 0.292990 0.117923
C27   C     C_1   0.636407 0.864543 0.384259 0.027620
C28   C     C_R   0.567819 0.732009 0.266187 0.225790
C29   C     C_R   0.576358 0.727289 0.215635 -0.106011
C30   C     C_R   0.757966 0.904235 0.216615 0.010292
C31   C     C_R   0.749175 0.909703 0.266983 -0.144858
C32   C     C_R   0.655542 0.824996 0.291894 0.007873
C33   C     C_R   0.669905 0.812254 0.190803 0.000898
C34   C     C_1   0.678465 0.799352 0.139378 -0.059580
C35   C     C_1   0.646268 0.843225 0.342759 0.011694
C36   C     C_1   0.693434 0.787468 0.097293 -0.017737
H8    H     H_    0.510529 0.655943 0.195492 0.150700
H9    H     H_    0.815313 0.981290 0.286962 0.114606
C37   C     C_R   0.635495 0.277614 0.615736 -0.015833
C38   C     C_R   0.744545 0.313446 0.634095 -0.139531
C39   C     C_R   0.767820 0.342838 0.682668 -0.170332
C40   C     C_R   0.681500 0.333965 0.713051 0.007780
C41   C     C_R   0.571584 0.298659 0.694778 0.225704
C42   C     C_R   0.551218 0.274857 0.645828 -0.097719
C43   C     C_R   0.689262 0.454135 0.780189 -0.076813
C44   C     C_R   0.683460 0.468760 0.829187 -0.093484
C45   C     C_R   0.728159 0.319352 0.845140 -0.121266
C46   C     C_R   0.729129 0.301231 0.795545 -0.096329
C47   C     C_R   0.706771 0.367120 0.763346 0.043991
C48   C     C_R   0.700830 0.400225 0.861752 0.045273
H10   H     H_    0.810295 0.315359 0.611317 0.135427
H11   H     H_    0.674193 0.506475 0.755279 0.168956
H12   H     H_    0.668109 0.535649 0.841749 0.140548
H13   H     H_    0.852330 0.370961 0.696761 0.112815
H14   H     H_    0.742715 0.233692 0.782363 0.113890
H15   H     H_    0.746094 0.269476 0.870329 0.108094
H16   H     H_    0.465815 0.244253 0.632293 0.168759
C49   C     C_R   0.219494 0.858148 0.614543 0.004110
C50   C     C_R   0.213558 0.945030 0.639555 -0.128683
C51   C     C_R   0.179236 0.929791 0.687602 -0.121878
C52   C     C_R   0.151197 0.828085 0.711241 0.030906
C53   C     C_R   0.153191 0.738110 0.685900 0.007118
C54   C     C_R   0.184848 0.753815 0.637358 -0.111729
C55   C     C_R   0.015038 0.735063 0.777487 -0.134956
C56   C     C_R   0.992830 0.714056 0.826274 -0.126098
C57   C     C_R   0.181993 0.868720 0.846104 -0.134295
C58   C     C_R   0.205785 0.887556 0.796817 -0.114333
C59   C     C_R   0.122973 0.818481 0.762550 0.021495
C60   C     C_R   0.076258 0.779836 0.860572 0.037642
H17   H     H_    0.240594 0.026539 0.622817 0.144956
H18   H     H_    0.949428 0.683821 0.751328 0.110339
H19   H     H_    0.909759 0.647331 0.837503 0.114136
H20   H     H_    0.177671 0.998683 0.706898 0.151512
H21   H     H_    0.289240 0.953220 0.785349 0.150553
H22   H     H_    0.245829 0.921254 0.872620 0.115379
H23   H     H_    0.190024 0.686637 0.618268 0.140816
C61   C     C_R   0.640726 0.859451 0.614556 -0.019483
C62   C     C_R   0.561626 0.750812 0.631606 -0.112156
C63   C     C_R   0.569430 0.717851 0.678759 0.200897
C64   C     C_R   0.657398 0.797534 0.709243 0.008541
C65   C     C_R   0.738689 0.903936 0.691026 -0.164602
C66   C     C_R   0.731206 0.934155 0.644106 -0.135952
C67   C     C_R   0.772126 0.803304 0.779132 -0.136014
C68   C     C_R   0.788017 0.803197 0.828391 -0.135233
C69   C     C_R   0.588818 0.740126 0.842132 -0.131282
C70   C     C_R   0.573889 0.745539 0.792343 -0.063092
C71   C     C_R   0.665943 0.777220 0.760713 0.065950
C72   C     C_R   0.697086 0.772182 0.860214 0.021764
H24   H     H_    0.492680 0.692123 0.608334 0.167524
H25   H     H_    0.843851 0.827193 0.755352 0.117933
H26   H     H_    0.871735 0.825970 0.841724 0.145194
H27   H     H_    0.491738 0.727111 0.778583 0.120342
H28   H     H_    0.517580 0.714041 0.866372 0.110645
H29   H     H_    0.806179 0.966250 0.713932 0.123495
H30   H     H_    0.792818 0.018687 0.632004 0.147005
O14   O     O_R   0.819150 0.845650 0.033320 -0.509967
O15   O     O_R   0.006060 0.815720 0.028680 -0.495914
C73   C     C_R   0.048937 0.760934 0.048345 0.545590
O16   O     O_R   0.028100 0.664460 0.032550 -0.505571
O17   O     O_R   0.811290 0.477490 0.029660 -0.496464
C74   C     C_R   0.714159 0.435664 0.049701 0.546392
O18   O     O_R   0.638120 0.455970 0.034270 -0.503072
O19   O     O_R   0.667540 0.672320 0.030160 -0.491198
C75   C     C_R   0.723461 0.770815 0.049503 0.545271
O20   O     O_R   0.814460 0.840990 0.926980 -0.512887
O21   O     O_R   0.001710 0.811400 0.930110 -0.500550
C76   C     C_R   0.044603 0.756257 0.910822 0.530123
O22   O     O_R   0.023410 0.659800 0.926210 -0.508230
O23   O     O_R   0.806940 0.473170 0.931090 -0.505275
C77   C     C_R   0.708816 0.430737 0.912081 0.528891
O24   O     O_R   0.633420 0.451310 0.927930 -0.503280
O25   O     O_R   0.663190 0.668000 0.931580 -0.499816
C78   C     C_R   0.719150 0.764347 0.911100 0.531112
Cr4   Cr    Cr6+3 0.908000 0.821090 0.979770 1.023316
Cr5   Cr    Cr6+3 0.912420 0.571130 0.979880 1.023131
Cr6   Cr    Cr6+3 0.657970 0.566940 0.980940 1.034206
O26   O     O_3   0.826130 0.653050 0.980200 -0.253860
C79   C     C_3   0.861053 0.997781 0.191399 -0.248880
C80   C     C_3   0.948698 0.961020 0.180378 -0.283384
C81   C     C_3   0.052153 0.055485 0.154823 -0.443416
H31   H     H_    0.026135 0.078212 0.120482 0.161389
H32   H     H_    0.095349 0.132057 0.178457 0.149566
H33   H     H_    0.113179 0.026219 0.146279 0.152482
H34   H     H_    0.976861 0.940120 0.214661 0.174076
H35   H     H_    0.910457 0.883968 0.156896 0.180706
H36   H     H_    0.834375 0.021732 0.157510 0.151094
H37   H     H_    0.901825 0.075503 0.214535 0.133714
N1    N     N_R   0.478534 0.280164 0.725680 0.085908
O27   O     O_R   0.396739 0.294040 0.708954 -0.291239
O28   O     O_R   0.466018 0.232892 0.767753 -0.343009
C82   C     C_3   0.876048 0.352667 0.189809 -0.259031
C83   C     C_3   0.967821 0.349285 0.221109 -0.310066
C84   C     C_3   0.065492 0.359937 0.190089 -0.432512
H38   H     H_    0.033798 0.288928 0.163437 0.142391
H39   H     H_    0.106519 0.442233 0.170585 0.171046
H40   H     H_    0.130055 0.356477 0.213547 0.176200
H41   H     H_    0.002504 0.420805 0.247630 0.176106
H42   H     H_    0.930507 0.267372 0.240859 0.155451
H43   H     H_    0.845641 0.282872 0.162537 0.149977
H44   H     H_    0.915896 0.434814 0.170106 0.150232
C85   C     C_3   0.131832 0.628768 0.709931 -0.253609
C86   C     C_3   0.233556 0.648561 0.741231 -0.288457
C87   C     C_3   0.212607 0.538346 0.764754 -0.402220
H45   H     H_    0.137294 0.504605 0.788782 0.145520
H46   H     H_    0.198217 0.473603 0.736686 0.206424
H47   H     H_    0.287838 0.554922 0.786752 0.170690
H48   H     H_    0.310946 0.682444 0.718409 0.193470
H49   H     H_    0.249552 0.711686 0.770220 0.168282
H50   H     H_    0.052956 0.591017 0.731608 0.142891
H51   H     H_    0.117348 0.563550 0.681982 0.142732
N2    N     N_R   0.488932 0.604535 0.694517 0.067225
O29   O     O_R   0.390901 0.546853 0.672915 -0.353181
O30   O     O_R   0.517886 0.553100 0.726201 -0.321949
N3    N     N_R   0.469946 0.642826 0.290329 0.081394
O31   O     O_R   0.375868 0.580622 0.266476 -0.357939
O32   O     O_R   0.476578 0.616518 0.334917 -0.326375

loop_
_geom_bond_atom_site_label_1
_geom_bond_atom_site_label_2
_geom_bond_distance
_ccdc_geom_bond_type
C86   H49   1.109135 S    
C81   H33   1.109198 S    
C55   C56   1.382656 A    
C83   C84   1.526323 S    
C62   C63   1.402019 A    
C55   C59   1.395922 A    
C39   H13   1.084004 S    
C16   C74   1.432466 S    
C49   C50   1.400956 A    
C58   C59   1.405671 A    
C79   H36   1.111855 S    
O25   C78   1.274315 A    
O4    Cr2   1.918663 S    
C30   C31   1.402901 A    
O18   Cr6   2.033897 S    
C62   H24   1.083064 S    
O25   Cr6   1.916944 S    
O17   Cr5   1.916998 S    
O8    Cr1   1.924756 S    
C61   C66   1.396133 A    
C18   C19   1.399901 A    
C37   C42   1.401645 A    
C64   C71   1.466887 S    
C85   C86   1.534736 S    
C19   C23   1.400351 A    
O20   C78   1.264216 A    
O4    C2    1.275267 A    
C72   C78   1.454106 S    
C34   C36   1.205501 T    
C67   C68   1.379198 A    
C2    C7    1.432564 S    
O23   Cr5   1.926844 S    
C81   H31   1.110802 S    
C55   H18   1.083843 S    
C86   H48   1.111854 S    
C6    C49   1.465837 S    
C69   C70   1.399309 A    
C44   H12   1.084040 S    
N2    O29   1.301529 A    
C29   H8    1.083888 S    
C10   H2    1.083919 S    
C56   C60   1.399240 A    
O6    C3    1.274729 A    
N3    O32   1.301214 A    
C3    C17   1.435576 S    
N1    O27   1.301617 A    
C44   C48   1.400459 A    
C45   C46   1.393356 A    
C52   C59   1.459681 S    
C13   C14   1.443168 S    
C58   H21   1.083300 S    
C30   C79   1.514281 S    
C49   C54   1.403404 A    
C41   C42   1.385115 A    
C9    C82   1.524118 S    
C56   H19   1.082525 S    
C50   H17   1.083117 S    
Cr3   O13   1.978875 S    
C87   H46   1.110673 S    
C87   H45   1.110978 S    
C65   C66   1.381974 A    
C1    C27   1.434064 S    
C79   H37   1.112061 S    
O6    Cr3   1.926737 S    
C20   C23   1.403045 A    
N2    O30   1.300488 A    
C84   H40   1.110455 S    
C9    C13   1.417125 A    
Cr4   O26   1.975761 S    
O19   Cr6   1.925803 S    
O1    Cr1   2.042882 S    
C73   O16   1.268463 A    
C67   H25   1.083898 S    
C28   C29   1.406713 A    
O14   Cr4   2.040271 S    
O10   Cr2   1.925494 S    
C82   H44   1.112222 S    
O17   C74   1.275341 A    
Cr1   O13   1.975896 S    
O1    C3    1.269191 A    
C8    C9    1.414725 A    
O16   Cr5   2.044557 S    
O24   Cr6   2.043195 S    
C43   C44   1.376491 A    
C11   H3    1.083719 S    
C53   C54   1.394706 A    
C83   H42   1.111450 S    
C43   H11   1.082697 S    
C27   C35   1.205985 T    
C60   C76   1.444667 S    
O20   Cr4   2.040641 S    
C68   H26   1.082380 S    
C37   C38   1.401621 A    
C80   H35   1.110864 S    
C76   O22   1.268126 A    
C51   C52   1.401226 A    
O7    Cr1   2.037671 S    
C43   C47   1.394495 A    
C45   C48   1.399035 A    
O12   C6    1.276864 A    
C10   C11   1.392545 A    
C85   H51   1.112647 S    
C52   C53   1.416968 A    
C57   C60   1.397214 A    
C54   H23   1.083721 S    
C24   C26   1.206321 T    
C82   C83   1.536887 S    
C19   H5    1.083319 S    
Cr5   O26   1.979043 S    
C10   C13   1.400606 A    
C21   C22   1.400340 A    
C38   H10   1.083399 S    
C48   C77   1.438399 S    
C40   C41   1.412521 A    
C77   O24   1.267080 A    
C22   C25   1.441168 S    
C66   H30   1.083280 S    
C85   H50   1.107119 S    
C33   C34   1.443855 S    
C1    O3    1.268710 A    
C57   C58   1.396351 A    
C20   C21   1.398718 A    
O15   C73   1.275122 A    
C65   H29   1.083809 S    
C67   C71   1.397090 A    
C30   C33   1.412156 A    
O2    Cr1   1.922062 S    
C81   H32   1.110707 S    
C31   C32   1.400830 A    
C84   H38   1.110982 S    
O9    Cr2   2.035391 S    
C83   H41   1.111973 S    
C80   C81   1.525921 S    
C68   C72   1.401456 A    
C80   H34   1.112129 S    
C82   H43   1.112322 S    
C12   C15   1.438858 S    
C42   H16   1.083681 S    
C8    C12   1.400906 A    
Cr2   O13   1.978967 S    
Cr6   O26   1.978768 S    
O11   Cr3   2.043827 S    
C2    O5    1.269880 A    
C31   H9    1.084743 S    
C63   N2    1.441467 S    
C40   C47   1.446630 S    
C8    H1    1.081145 S    
C69   C72   1.399697 A    
C57   H22   1.082953 S    
C26   C73   1.435012 S    
C39   C40   1.399248 A    
C69   H28   1.082892 S    
N3    O31   1.301708 A    
C84   H39   1.110932 S    
O2    C1    1.273968 A    
O21   C76   1.271805 A    
C28   N3    1.442194 S    
C41   N1    1.441776 S    
O22   Cr5   2.033285 S    
O5    Cr3   2.033168 S    
C79   C80   1.534273 S    
C14   C16   1.204838 T    
C21   H7    1.083521 S    
C45   H15   1.083167 S    
O7    C6    1.266672 A    
O19   C75   1.275296 A    
C51   H20   1.083738 S    
C61   C62   1.405544 A    
C5    C37   1.454235 S    
O23   C77   1.269895 A    
C28   C32   1.415176 A    
N1    O28   1.301595 A    
C18   C22   1.403518 A    
C63   C64   1.415591 A    
O12   Cr3   1.915727 S    
C4    C61   1.463058 S    
C17   C25   1.206601 T    
C70   H27   1.082621 S    
C38   C39   1.389486 A    
O3    Cr2   2.042429 S    
C29   C33   1.400483 A    
C86   C87   1.525890 S    
C46   C47   1.402040 A    
O21   Cr4   1.921919 S    
C4    O9    1.272028 A    
C87   H47   1.110318 S    
C50   C51   1.390548 A    
C23   C24   1.440826 S    
C32   C35   1.443476 S    
C64   C65   1.404751 A    
C53   C85   1.519860 S    
O10   C5    1.275121 A    
C74   O18   1.269294 A    
O15   Cr4   1.924853 S    
C18   H4    1.083687 S    
C70   C71   1.408071 A    
C36   C75   1.433322 S    
C46   H14   1.083351 S    
C5    O11   1.266687 A    
O8    C4    1.271896 A    
C7    C15   1.204835 T    
C20   H6    1.083766 S    
C11   C12   1.396038 A    
O14   C75   1.267868 A    
