data_mof_unit_32053.cif
_audit_creation_date              2012-12-11T14:15:23-0500
_audit_creation_method            fapswitch 2.2
_symmetry_space_group_name_H-M    P1
_symmetry_Int_Tables_number       1
_space_group_crystal_system       triclinic
_cell_length_a                    11.17215
_cell_length_b                    12.665041
_cell_length_c                    23.623827
_cell_angle_alpha                 90.433285
_cell_angle_beta                  96.528767
_cell_angle_gamma                 68.626063
_cell_volume                      3090.50706674

loop_
_atom_site_label
_atom_site_type_symbol
_atom_type_description
_atom_site_fract_x
_atom_site_fract_y
_atom_site_fract_z
_atom_type_partial_charge
C1    C     C_R   0.149310 0.617007 0.428835 0.556449
C2    C     C_R   0.622848 0.576744 0.315560 0.100024
C3    C     C_R   0.704156 0.731727 0.319757 -0.157531
C4    C     C_R   0.686639 0.742199 0.260524 0.011522
C5    C     C_R   0.650833 0.661228 0.228973 0.060344
C6    C     C_R   0.649352 0.663007 0.170436 -0.095943
C7    C     C_R   0.688332 0.839069 0.172406 -0.142452
C8    C     C_R   0.707811 0.829821 0.232030 -0.137721
C9    C     C_1   0.238091 0.162006 0.122917 0.012076
C10   C     C_2   0.202953 0.233939 0.227758 0.051654
C11   C     C_2   0.149541 0.180402 0.260886 -0.141177
C12   C     C_R   0.746575 0.605668 0.404811 0.572198
C13   C     C_1   0.129873 0.207011 0.319589 0.012967
C14   C     C_1   0.219669 0.197149 0.170007 -0.035169
C15   C     C_1   0.115198 0.235405 0.368001 0.046408
C16   C     C_1   0.168581 0.748199 0.123538 -0.004776
C17   C     C_2   0.148166 0.677327 0.226545 0.117514
C18   C     C_2   0.228458 0.686484 0.271820 -0.078171
C19   C     C_1   0.213850 0.657971 0.329341 -0.019687
C20   C     C_1   0.158341 0.715500 0.170088 -0.034577
C21   C     C_1   0.192707 0.636876 0.376212 0.016084
C22   C     C_1   0.534430 0.793143 0.851825 -0.001484
C23   C     C_R   0.101224 0.282349 0.423457 0.551804
C24   C     C_2   0.562328 0.783331 0.741683 0.048130
C25   C     C_2   0.622695 0.680173 0.721260 -0.135487
C26   C     C_1   0.656108 0.659978 0.663856 0.022427
C27   C     C_1   0.547607 0.788958 0.801814 -0.051473
C28   C     C_1   0.692403 0.636988 0.617593 0.042041
C29   C     C_R   0.199592 0.185015 0.855233 -0.020592
C30   C     C_R   0.109721 0.228893 0.641851 -0.022248
C31   C     C_R   0.006900 0.176329 0.716319 0.059335
C32   C     C_R   0.012057 0.196165 0.658541 -0.121063
C33   C     C_R   0.205865 0.237673 0.682364 -0.081134
C34   C     C_R   0.147118 0.615671 0.591119 0.574281
C35   C     C_R   0.202231 0.222887 0.740085 0.003262
C36   C     C_R   0.103051 0.189883 0.757664 -0.000960
C37   C     C_R   0.108438 0.164872 0.815549 -0.124430
C38   C     C_R   0.278277 0.241900 0.838494 0.037567
C39   C     C_R   0.291539 0.247582 0.780403 0.047363
C40   C     C_R   0.134612 0.740090 0.853339 0.030502
C41   C     C_R   0.178212 0.632171 0.650445 0.045785
C42   C     C_R   0.322622 0.594410 0.737096 -0.088358
C43   C     C_R   0.303067 0.582307 0.678699 0.087193
C44   C     C_R   0.073588 0.691004 0.680255 -0.130538
C45   C     C_R   0.749398 0.602380 0.565869 0.544304
C46   C     C_R   0.091387 0.703359 0.738316 0.042360
C47   C     C_R   0.217380 0.652331 0.767450 0.010498
C48   C     C_R   0.236037 0.662313 0.826197 0.081347
C49   C     C_R   0.009770 0.787544 0.824737 -0.121195
C50   C     C_R   0.985801 0.766223 0.767545 0.100210
C51   C     C_R   0.265996 0.109935 0.069362 0.556116
C52   C     C_R   0.598371 0.775197 0.081834 0.550800
C53   C     C_R   0.190015 0.787746 0.069930 0.548361
C54   C     C_R   0.240679 0.117133 0.908483 0.561476
C55   C     C_R   0.512818 0.798556 0.910642 0.560817
C56   C     C_R   0.099848 0.279004 0.585362 0.536134
C57   C     C_R   0.165535 0.785533 0.907335 0.554492
C58   C     C_R   0.656856 0.756027 0.141384 -0.010230
C59   C     C_R   0.681973 0.643685 0.347156 0.028241
C60   C     C_R   0.612081 0.582449 0.255961 0.081070
Cr1   Cr    Cr6+3 0.189770 0.415650 0.511620 1.068365
Cr2   Cr    Cr6+3 0.930400 0.667320 0.496770 1.042313
Cr3   Cr    Cr6+3 0.879870 0.417010 0.491650 1.049242
Cr4   Cr    Cr6+3 0.149500 0.973980 0.985330 1.052138
Cr5   Cr    Cr6+3 0.457000 0.976510 0.994660 1.076092
Cr6   Cr    Cr6+3 0.411170 0.724270 0.995270 1.062086
H1    H     H_    0.629041 0.596522 0.146944 0.188178
H2    H     H_    0.655257 0.605826 0.749955 0.120312
H3    H     H_    0.050267 0.120419 0.829605 0.184806
H4    H     H_    0.935648 0.192728 0.626753 0.165418
H5    H     H_    0.277523 0.267371 0.668808 0.177817
H6    H     H_    0.693604 0.912139 0.150866 0.141533
H7    H     H_    0.931910 0.843944 0.846517 0.147325
H8    H     H_    0.420745 0.557884 0.757860 0.152002
H9    H     H_    0.976506 0.725241 0.657926 0.174208
H10   H     H_    0.734115 0.893240 0.255772 0.123751
H11   H     H_    0.743581 0.786964 0.344128 0.138761
H12   H     H_    0.118543 0.113761 0.243204 0.108460
H13   H     H_    0.302758 0.720558 0.266131 0.101645
O1    O     O_R   0.196340 0.303200 0.448500 -0.485869
O2    O     O_R   0.811960 0.658090 0.547150 -0.493101
O3    O     O_R   0.757930 0.506140 0.547110 -0.507842
O4    O     O_R   0.988670 0.321620 0.556040 -0.502620
O5    O     O_3   0.000020 0.499990 0.500010 -0.265420
O6    O     O_R   0.113660 0.883270 0.047820 -0.505030
O7    O     O_R   0.186930 0.068530 0.043990 -0.495060
O8    O     O_R   0.377770 0.089040 0.054220 -0.494830
O9    O     O_R   0.562800 0.872960 0.056970 -0.494408
O10   O     O_R   0.555390 0.700940 0.062700 -0.514671
O11   O     O_R   0.295020 0.731920 0.049950 -0.487945
O12   O     O_R   0.199310 0.519670 0.454880 -0.483091
O13   O     O_R   0.094290 0.884230 0.921550 -0.517218
O14   O     O_R   0.168980 0.069410 0.926940 -0.503206
O15   O     O_R   0.358400 0.089990 0.927950 -0.488056
O16   O     O_R   0.544850 0.873850 0.939920 -0.479127
O17   O     O_R   0.536020 0.701900 0.936430 -0.491445
O18   O     O_R   0.277070 0.732810 0.932890 -0.473710
O19   O     O_3   0.339220 0.891590 0.991750 -0.291835
O20   O     O_R   0.045660 0.691380 0.441680 -0.508003
O21   O     O_R   0.811930 0.659460 0.430950 -0.513222
O22   O     O_R   0.757900 0.507620 0.421760 -0.470181
O23   O     O_R   0.988630 0.322990 0.439840 -0.502476
O24   O     O_R   0.196380 0.301720 0.573850 -0.516806
O25   O     O_R   0.199350 0.518300 0.571080 -0.468704
O26   O     O_R   0.045700 0.689900 0.567030 -0.529805
N1    N     N_3   0.050011 0.632270 0.233741 -0.587042
H14   H     H_    0.064809 0.562331 0.207914 0.262487
H15   H     H_    0.960808 0.693699 0.218185 0.234504
C61   C     C_2   0.511023 0.891120 0.706481 0.607868
O27   O     O_2   0.451119 0.979794 0.728254 -0.482067
O28   O     O_R   0.529621 0.892699 0.649002 -0.690933
H16   H     H_    0.489554 0.971682 0.630472 0.348343
C62   C     C_2   0.352037 0.286473 0.882750 0.612396
O29   O     O_2   0.468422 0.263006 0.882962 -0.457203
O30   O     O_R   0.287843 0.350952 0.926035 -0.691965
H17   H     H_    0.347389 0.375520 0.954155 0.344355
C63   C     C_2   0.893925 0.151062 0.730969 0.554449
O31   O     O_2   0.843148 0.188594 0.773741 -0.504165
O32   O     O_R   0.840819 0.089166 0.693635 -0.716089
H18   H     H_    0.762563 0.079445 0.707280 0.349101
C64   C     C_2   0.401299 0.273831 0.762305 0.598806
O33   O     O_2   0.417519 0.360500 0.777084 -0.543111
O34   O     O_R   0.487084 0.198170 0.728835 -0.659421
H19   H     H_    0.556108 0.226510 0.718623 0.343928
N2    N     N_3   0.357729 0.596101 0.858304 -0.569588
H20   H     H_    0.431611 0.618243 0.844914 0.228869
H21   H     H_    0.376719 0.510121 0.852083 0.291301
N3    N     N_3   0.856151 0.812243 0.738611 -0.616573
H22   H     H_    0.790052 0.851215 0.767356 0.246640
H23   H     H_    0.852033 0.876060 0.709899 0.263711
N4    N     N_3   0.409065 0.518827 0.648385 -0.601477
H24   H     H_    0.479134 0.555484 0.654707 0.229312
H25   H     H_    0.449668 0.436421 0.666343 0.255954
N5    N     N_3   0.562268 0.508795 0.222634 -0.639927
H26   H     H_    0.621178 0.424582 0.233643 0.244746
H27   H     H_    0.468530 0.522627 0.231788 0.258720
N6    N     N_3   0.579831 0.499724 0.344184 -0.594219
H28   H     H_    0.481370 0.519584 0.331238 0.224046
H29   H     H_    0.630805 0.417002 0.332650 0.242941
C65   C     C_2   0.252314 0.324393 0.247759 0.588698
O35   O     O_2   0.297950 0.368379 0.214368 -0.526847
O36   O     O_R   0.248977 0.358938 0.304080 -0.686854
H30   H     H_    0.288972 0.418459 0.311889 0.338769

loop_
_geom_bond_atom_site_label_1
_geom_bond_atom_site_label_2
_ccdc_geom_bond_type
C1    C21   S    
C57   O13   A    
C37   H3    S    
C6    C58   A    
C35   C36   A    
C9    C51   S    
C24   C27   S    
Cr3   O22   S    
N3    H22   S    
C1    O20   A    
C7    C8    A    
Cr6   O11   S    
Cr2   O26   S    
N6    H29   S    
Cr5   O9    S    
Cr6   O18   S    
C36   C37   A    
Cr1   O24   S    
C65   O36   S    
Cr5   O19   S    
C61   O28   S    
C5    C6    A    
C2    C60   A    
C23   O23   A    
N1    H14   S    
Cr1   O1    S    
C40   C49   A    
C8    H10   S    
C17   C20   S    
C18   C19   S    
C16   C53   S    
C31   C63   S    
C54   O14   A    
C48   N2    S    
C12   C59   S    
C45   O3    A    
C18   H13   S    
C29   C38   A    
C23   O1    A    
C61   O27   D    
C7    C58   A    
C5    C60   A    
C4    C8    A    
Cr4   O19   S    
C1    O12   A    
C41   C43   A    
C52   O10   A    
C25   H2    S    
C10   C65   S    
Cr3   O23   S    
C51   O7    A    
Cr4   O7    S    
C44   C46   A    
Cr5   O8    S    
Cr6   O10   S    
C54   O15   A    
C28   C45   S    
C42   H8    S    
C64   O34   S    
Cr3   O3    S    
O28   H16   S    
O34   H19   S    
Cr1   O25   S    
C65   O35   D    
C55   O16   A    
C10   C14   S    
C51   O8    A    
C7    H6    S    
C38   C62   S    
C2    C59   A    
C55   O17   A    
N5    H27   S    
C25   C26   S    
C30   C56   S    
C34   O25   A    
Cr3   O4    S    
C44   H9    S    
C35   C39   A    
C9    C14   T    
C34   C41   S    
C11   H12   S    
C47   C48   A    
C52   O9    A    
C16   C20   T    
C57   O18   A    
C17   C18   D    
C24   C25   D    
C64   O33   D    
C22   C55   S    
C52   C58   S    
C43   N4    S    
Cr2   O21   S    
Cr5   O15   S    
Cr2   O2    S    
C22   C27   T    
C13   C15   T    
N2    H20   S    
C41   C44   A    
C49   H7    S    
C50   N3    S    
C42   C43   A    
Cr4   O13   S    
C3    C4    A    
C3    H11   S    
C60   N5    S    
Cr4   O6    S    
C56   O4    A    
Cr6   O17   S    
C62   O29   D    
C40   C48   A    
Cr2   O5    S    
C46   C47   A    
C6    H1    S    
C40   C57   S    
C30   C33   A    
C19   C21   T    
C31   C36   A    
C34   O26   A    
C31   C32   A    
C45   O2    A    
C24   C61   S    
C56   O24   A    
C4    C5    A    
N4    H25   S    
Cr1   O5    S    
N3    H23   S    
Cr4   O14   S    
C32   H4    S    
O32   H18   S    
N5    H26   S    
C2    N6    S    
N6    H28   S    
C46   C50   A    
C26   C28   T    
C39   C64   S    
Cr3   O5    S    
Cr6   O19   S    
C63   O32   S    
C12   O22   A    
C63   O31   D    
C30   C32   A    
C11   C13   S    
O30   H17   S    
C38   C39   A    
N1    H15   S    
C15   C23   S    
C33   C35   A    
C42   C47   A    
C12   O21   A    
C10   C11   D    
C33   H5    S    
Cr2   O20   S    
Cr1   O12   S    
Cr5   O16   S    
C49   C50   A    
C29   C54   S    
C29   C37   A    
C53   O11   A    
N2    H21   S    
O36   H30   S    
C53   O6    A    
C17   N1    S    
N4    H24   S    
C62   O30   S    
C3    C59   A    
