data_mof_unit_49584.cif
_audit_creation_date              2012-12-11T17:11:29-0500
_audit_creation_method            fapswitch 2.2
_symmetry_space_group_name_H-M    P1
_symmetry_Int_Tables_number       1
_space_group_crystal_system       triclinic
_cell_length_a                    15.019332
_cell_length_b                    6.941684
_cell_length_c                    13.639932
_cell_angle_alpha                 89.882185
_cell_angle_beta                  100.958126
_cell_angle_gamma                 90.1529
_cell_volume                      1396.15529506

loop_
_atom_site_label
_atom_site_type_symbol
_atom_type_description
_atom_site_fract_x
_atom_site_fract_y
_atom_site_fract_z
_atom_type_partial_charge
O1    O     O_R   0.398250 0.605080 0.401520 -0.549507
O2    O     O_R   0.898250 0.394920 0.901520 -0.546349
O3    O     O_R   0.584130 0.932110 0.405450 -0.516772
O4    O     O_R   0.084130 0.067890 0.905450 -0.500181
O5    O     O_R   0.601750 0.105090 0.598480 -0.528289
O6    O     O_R   0.101750 0.894910 0.098480 -0.541064
C1    C     C_R   0.612993 0.764085 0.385045 0.815669
C2    C     C_R   0.111301 0.236784 0.882647 0.795235
O7    O     O_R   0.397870 0.934620 0.389680 -0.540287
O8    O     O_R   0.897870 0.065380 0.889680 -0.539285
O9    O     O_R   0.414160 0.107620 0.582600 -0.532045
O10   O     O_R   0.914160 0.892380 0.082600 -0.531986
C3    C     C_R   0.363960 0.765702 0.362705 0.734303
C4    C     C_R   0.864023 0.234223 0.862623 0.745853
O11   O     O_R   0.585840 0.602550 0.417400 -0.529106
O12   O     O_R   0.085840 0.397450 0.917400 -0.529520
O13   O     O_3   0.505560 0.772440 0.563310 -0.373724
O14   O     O_3   0.005560 0.227560 0.063310 -0.370634
V1    V     V_3+5 0.498970 0.046250 0.488250 1.637236
V2    V     V_3+5 0.998970 0.953750 0.988250 1.663409
O15   O     O_R   0.415870 0.437500 0.594550 -0.532294
O16   O     O_R   0.915870 0.562500 0.094550 -0.514284
C5    C     C_R   0.388334 0.268228 0.616184 0.768265
C6    C     C_R   0.889083 0.731060 0.117695 0.743649
O17   O     O_R   0.602130 0.434980 0.610320 -0.543442
O18   O     O_R   0.102130 0.565020 0.110320 -0.544543
C7    C     C_R   0.636030 0.265976 0.637239 0.792633
C8    C     C_R   0.135973 0.734120 0.137319 0.757058
V3    V     V_3+5 0.501030 0.546580 0.511750 1.606264
V4    V     V_3+5 0.001030 0.453420 0.011750 1.639059
O19   O     O_3   0.494440 0.270520 0.436690 -0.374459
O20   O     O_3   0.994440 0.729480 0.936690 -0.356214
C9    C     C_1   0.716408 0.255262 0.716786 -0.102250
C10   C     C_1   0.216301 0.744853 0.216927 -0.127908
C11   C     C_1   0.783703 0.244914 0.782986 -0.119685
C12   C     C_1   0.283596 0.754995 0.283137 -0.121290
C13   C     C_2   0.254659 0.151214 0.679082 0.199913
C14   C     C_2   0.782101 0.884245 0.214836 0.214847
C15   C     C_2   0.332355 0.255037 0.693499 0.140130
C16   C     C_2   0.835784 0.735472 0.198709 0.098341
C17   C     C_2   0.206112 0.107267 0.761545 0.459278
C18   C     C_2   0.736750 0.887535 0.302368 0.410392
C19   C     C_2   0.169098 0.253302 0.806155 -0.347799
C20   C     C_2   0.671920 0.755738 0.310231 -0.332195
H1    H     H_    0.179021 0.398935 0.780948 0.189133
H2    H     H_    0.658375 0.640514 0.255534 0.160618
Cl1   Cl    Cl    0.208341 0.054470 0.560407 -0.622344
Cl2   Cl    Cl    0.762727 0.086086 0.134562 -0.546781
Cl3   Cl    Cl    0.379518 0.353701 0.811274 -0.551628
Cl4   Cl    Cl    0.853121 0.539333 0.283226 -0.481898
S1    S     S_3+6 0.199239 0.860568 0.793299 0.075515
O21   O     O_2   0.230090 0.833069 0.903864 -0.306364
O22   O     O_2   0.102954 0.791295 0.763401 -0.334828
O23   O     O_3   0.266626 0.730121 0.733458 -0.457661
H3    H     H_    0.226282 0.678308 0.673288 0.367033
S2    S     S_3+6 0.773869 0.063885 0.395096 0.111361
O24   O     O_2   0.712424 0.235910 0.376531 -0.276027
O25   O     O_2   0.772484 0.985008 0.497538 -0.346559
O26   O     O_3   0.880168 0.132882 0.389451 -0.414124
H4    H     H_    0.917094 0.014463 0.403470 0.358133

loop_
_geom_bond_atom_site_label_1
_geom_bond_atom_site_label_2
_ccdc_geom_bond_type
O15   V3    S    
C14   C16   D    
C2    C19   S    
O11   V3    S    
O5    V1    S    
O8    V2    S    
C17   S1    S    
C13   Cl1   S    
O13   V3    S    
O10   C6    A    
C14   Cl2   S    
S2    O26   S    
O2    V4    S    
O4    C2    A    
S1    O23   S    
V1    O19   S    
O3    V1    S    
O10   V2    S    
C1    O11   A    
C8    C10   S    
O26   H4    S    
C13   C15   D    
V2    O20   S    
C1    C20   S    
C7    C9    S    
V4    O20   S    
C19   H1    S    
O9    V1    S    
C18   C20   D    
O6    V2    S    
C3    C12   S    
C13   C17   S    
C5    C15   S    
O1    V3    S    
C9    C11   T    
S2    O25   D    
C14   C18   S    
O3    C1    A    
C10   C12   T    
O15   C5    A    
O8    C4    A    
O17   V3    S    
O14   V4    S    
O2    C4    A    
O16   C6    A    
C6    C16   S    
O17   C7    A    
O12   V4    S    
S1    O21   D    
O4    V2    S    
C16   Cl4   S    
O1    C3    A    
S2    O24   D    
O14   V2    S    
V3    O19   S    
C2    O12   A    
O9    C5    A    
C4    C11   S    
O7    C3    A    
O23   H3    S    
O13   V1    S    
C18   S2    S    
O16   V4    S    
C15   Cl3   S    
O5    C7    A    
O18   C8    A    
O7    V1    S    
O6    C8    A    
C17   C19   D    
C20   H2    S    
S1    O22   D    
O18   V4    S    
