data_mof_unit_23607.cif
_audit_creation_date              2012-12-11T15:15:48-0500
_audit_creation_method            fapswitch 2.2
_symmetry_space_group_name_H-M    P1
_symmetry_Int_Tables_number       1
_space_group_crystal_system       triclinic
_cell_length_a                    20.781878
_cell_length_b                    22.774147
_cell_length_c                    6.924872
_cell_angle_alpha                 90.000853
_cell_angle_beta                  87.188018
_cell_angle_gamma                 89.999685
_cell_volume                      3273.52311245

loop_
_atom_site_label
_atom_site_type_symbol
_atom_type_description
_atom_site_fract_x
_atom_site_fract_y
_atom_site_fract_z
_atom_type_partial_charge
O1    O     O_R   0.387100 0.552640 0.378490 -0.538618
O2    O     O_R   0.612900 0.052640 0.621510 -0.538621
O3    O     O_R   0.249610 0.559600 0.072250 -0.531511
O4    O     O_R   0.750390 0.059600 0.927750 -0.531520
O5    O     O_R   0.249120 0.447360 0.902040 -0.555744
O6    O     O_R   0.750880 0.947360 0.097960 -0.555724
C1    C     C_R   0.223625 0.569558 0.243593 0.773318
C2    C     C_R   0.776375 0.069558 0.756409 0.773316
O7    O     O_R   0.386610 0.559560 0.048860 -0.538303
O8    O     O_R   0.613390 0.059560 0.951140 -0.538305
O9    O     O_R   0.387100 0.447320 0.878470 -0.540964
O10   O     O_R   0.612900 0.947320 0.121530 -0.540972
C3    C     C_R   0.405845 0.576735 0.215353 0.699813
C4    C     C_R   0.594156 0.076735 0.784648 0.699807
O11   O     O_R   0.249120 0.552680 0.402050 -0.514694
O12   O     O_R   0.750880 0.052680 0.597950 -0.514690
O13   O     O_3   0.318110 0.463180 0.223790 -0.372394
O14   O     O_3   0.681890 0.963180 0.776210 -0.372409
V1    V     V_3+5 0.318110 0.506830 0.948930 1.509057
V2    V     V_3+5 0.681890 0.006830 0.051070 1.509081
O15   O     O_R   0.386610 0.440400 0.548840 -0.536945
O16   O     O_R   0.613390 0.940400 0.451160 -0.536938
C5    C     C_R   0.407357 0.425291 0.715018 0.732462
C6    C     C_R   0.592643 0.925292 0.284980 0.732571
O17   O     O_R   0.249610 0.440440 0.572240 -0.534526
O18   O     O_R   0.750390 0.940440 0.427760 -0.534538
C7    C     C_R   0.228546 0.425108 0.744064 0.727442
C8    C     C_R   0.771453 0.925109 0.255933 0.727592
V3    V     V_3+5 0.318110 0.493170 0.448930 1.551033
V4    V     V_3+5 0.681890 0.993170 0.551070 1.551013
O19   O     O_3   0.318110 0.536820 0.723940 -0.349485
O20   O     O_3   0.681890 0.036820 0.276060 -0.349495
C9    C     C_R   0.174866 0.382218 0.759988 -0.148431
C10   C     C_R   0.825130 0.882220 0.240007 -0.148243
C11   C     C_R   0.166199 0.337984 0.619001 -0.043508
C12   C     C_R   0.833725 0.837921 0.380811 -0.043624
C13   C     C_R   0.109982 0.303848 0.630058 -0.202736
C14   C     C_R   0.889944 0.803783 0.369824 -0.202663
C15   C     C_R   0.063427 0.310843 0.782096 0.120571
C16   C     C_R   0.936570 0.810846 0.218014 0.120609
C17   C     C_R   0.073290 0.353128 0.926768 0.206232
C18   C     C_R   0.926776 0.853199 0.073507 0.206130
C19   C     C_R   0.128724 0.388304 0.913905 -0.115613
C20   C     C_R   0.871339 0.888372 0.086306 -0.115658
C21   C     C_R   0.899168 0.181480 0.910041 0.173508
C22   C     C_R   0.100831 0.681484 0.089994 0.173491
C23   C     C_R   0.843950 0.146470 0.901898 -0.109528
C24   C     C_R   0.156048 0.646472 0.098122 -0.109512
C25   C     C_R   0.881915 0.106244 0.592217 -0.021168
C26   C     C_R   0.118083 0.606240 0.407791 -0.021166
C27   C     C_R   0.936467 0.142423 0.597940 -0.214476
C28   C     C_R   0.063529 0.642418 0.402075 -0.214435
C29   C     C_R   0.945022 0.181025 0.752191 0.131432
C30   C     C_R   0.054975 0.681022 0.247836 0.131388
C31   C     C_2   0.003899 0.274823 0.786940 -0.178151
C32   C     C_2   0.996099 0.774824 0.213234 -0.178112
C33   C     C_2   0.004498 0.217109 0.746524 -0.185031
C34   C     C_2   0.995494 0.717099 0.253485 -0.185032
C35   C     C_R   0.833923 0.108830 0.744774 -0.127458
C36   C     C_R   0.166076 0.608829 0.255235 -0.127469
H1    H     H_    0.808922 0.147937 0.022568 0.205917
H2    H     H_    0.191077 0.647942 0.977453 0.205905
H3    H     H_    0.049425 0.195911 0.699703 0.142066
H4    H     H_    0.950561 0.695884 0.300130 0.142065
H5    H     H_    0.135174 0.421780 0.022571 0.122564
H6    H     H_    0.864941 0.921902 0.977787 0.122380
H7    H     H_    0.958670 0.296339 0.826526 0.152425
H8    H     H_    0.041339 0.796346 0.173823 0.152404
H9    H     H_    0.102498 0.271309 0.519170 0.152308
H10   H     H_    0.897373 0.771192 0.480584 0.152385
H11   H     H_    0.972868 0.140453 0.480290 0.138213
H12   H     H_    0.027127 0.640443 0.519717 0.138225
C37   C     C_R   0.574958 0.368845 0.771813 -0.142404
C38   C     C_R   0.425042 0.868844 0.228193 -0.142395
H13   H     H_    0.664104 0.291082 0.817128 0.135590
H14   H     H_    0.335896 0.791081 0.182886 0.135586
H15   H     H_    0.623088 0.386163 0.786824 0.120500
H16   H     H_    0.376912 0.886162 0.213184 0.120498
C39   C     C_R   0.462448 0.385014 0.720503 -0.057501
C40   C     C_R   0.537552 0.885014 0.279494 -0.057526
C41   C     C_R   0.479244 0.097643 0.774383 -0.184708
C42   C     C_R   0.520756 0.597641 0.225621 -0.184711
C43   C     C_R   0.425356 0.133411 0.792450 -0.141244
C44   C     C_R   0.574644 0.633408 0.207562 -0.141261
C45   C     C_R   0.431157 0.194263 0.812311 0.001051
C46   C     C_R   0.568844 0.694261 0.187708 0.001094
C47   C     C_R   0.493204 0.221307 0.788994 0.034926
C48   C     C_R   0.506797 0.721305 0.211018 0.034922
C49   C     C_R   0.549203 0.183729 0.792999 -0.013978
C50   C     C_R   0.450797 0.683728 0.207011 -0.013975
C51   C     C_R   0.502039 0.284001 0.766063 0.080776
C52   C     C_R   0.497961 0.784000 0.233945 0.080749
C53   C     C_R   0.564362 0.308063 0.780870 0.084617
C54   C     C_R   0.435638 0.808063 0.219139 0.084628
C55   C     C_R   0.616711 0.271735 0.803728 -0.201166
C56   C     C_R   0.383289 0.771734 0.196284 -0.201174
C57   C     C_R   0.610401 0.211061 0.806226 -0.100130
C58   C     C_R   0.389599 0.711060 0.193787 -0.100127
C59   C     C_R   0.452239 0.323862 0.721149 -0.187657
C60   C     C_R   0.547762 0.823862 0.278855 -0.187665
C61   C     C_R   0.524284 0.407693 0.746699 0.135302
C62   C     C_R   0.475716 0.907693 0.253300 0.135288
C63   C     C_R   0.541121 0.120867 0.783984 -0.097586
C64   C     C_R   0.458879 0.620866 0.216022 -0.097588
H17   H     H_    0.405199 0.308748 0.684736 0.149927
H18   H     H_    0.594801 0.808749 0.315273 0.150064
H19   H     H_    0.472313 0.050555 0.764837 0.113963
H20   H     H_    0.527686 0.550553 0.235162 0.113965
H21   H     H_    0.378385 0.112657 0.803430 0.153518
H22   H     H_    0.621615 0.612653 0.196584 0.153512
C65   C     C_2   0.215189 0.324446 0.462010 0.787796
O21   O     O_2   0.272615 0.326248 0.492756 -0.551840
O22   O     O_R   0.195410 0.307426 0.280126 -0.667965
H23   H     H_    0.233013 0.299295 0.185056 0.306083
C66   C     C_2   0.784656 0.824315 0.537521 0.787795
O23   O     O_2   0.727248 0.826217 0.506599 -0.551989
O24   O     O_R   0.804341 0.807120 0.719332 -0.667889
H24   H     H_    0.766691 0.798935 0.814179 0.306247
C67   C     C_3   0.536876 0.472969 0.745702 -0.772409
H25   H     H_    0.588616 0.483079 0.761964 0.209306
H26   H     H_    0.522405 0.492206 0.606976 0.201226
H27   H     H_    0.508836 0.494197 0.867170 0.208176
C68   C     C_3   0.463123 0.972968 0.254294 -0.772418
H28   H     H_    0.411383 0.983079 0.238037 0.209311
H29   H     H_    0.477596 0.992208 0.393017 0.201224
H30   H     H_    0.491162 0.994194 0.132821 0.208174
C69   C     C_2   0.372513 0.225221 0.888919 0.737193
O25   O     O_2   0.376254 0.261243 0.018968 -0.550828
O26   O     O_R   0.312561 0.211563 0.817245 -0.652783
H31   H     H_    0.276236 0.235491 0.880832 0.301527
C70   C     C_2   0.627491 0.725217 0.111119 0.737155
O27   O     O_2   0.623755 0.761236 0.981062 -0.550921
O28   O     O_R   0.687438 0.711561 0.182824 -0.652771
H32   H     H_    0.723765 0.735489 0.119255 0.301528
C71   C     C_2   0.670568 0.179800 0.834720 0.735417
O29   O     O_2   0.710291 0.176078 0.699816 -0.544459
O30   O     O_R   0.685592 0.160479 0.018555 -0.639420
H33   H     H_    0.649864 0.168425 0.120139 0.269533
C72   C     C_2   0.329432 0.679800 0.165296 0.735411
O31   O     O_2   0.289711 0.676076 0.300206 -0.544461
O32   O     O_R   0.314406 0.660480 0.981461 -0.639422
H34   H     H_    0.350132 0.668426 0.879874 0.269533
C73   C     C_2   0.879728 0.063892 0.431325 0.730369
O33   O     O_2   0.921145 0.025897 0.412876 -0.565771
O34   O     O_R   0.832649 0.069033 0.295473 -0.644306
H35   H     H_    0.838034 0.038631 0.189066 0.279431
C74   C     C_2   0.120273 0.563887 0.568675 0.730393
O35   O     O_2   0.078862 0.525887 0.587107 -0.565775
O36   O     O_R   0.167348 0.569033 0.704538 -0.644300
H36   H     H_    0.161966 0.538630 0.810936 0.279452
C75   C     C_3   0.025823 0.360675 0.096699 -0.756307
H37   H     H_    0.978671 0.375470 0.045817 0.203093
H38   H     H_    0.019477 0.318298 0.174668 0.216096
H39   H     H_    0.042506 0.393762 0.201015 0.220980
C76   C     C_3   0.974326 0.860829 0.903819 -0.756594
H40   H     H_    0.021445 0.875603 0.954997 0.203178
H41   H     H_    0.980718 0.818487 0.825658 0.216114
H42   H     H_    0.957692 0.893963 0.799593 0.220959
C77   C     C_3   0.909583 0.215127 0.093799 -0.770678
H43   H     H_    0.879459 0.197268 0.217157 0.224556
H44   H     H_    0.960558 0.211704 0.133598 0.215869
H45   H     H_    0.896125 0.261841 0.076154 0.207189
C78   C     C_3   0.090416 0.715146 0.906266 -0.770601
H46   H     H_    0.120586 0.697334 0.782927 0.224539
H47   H     H_    0.039454 0.711680 0.866375 0.215881
H48   H     H_    0.103814 0.761871 0.924012 0.207172

loop_
_geom_bond_atom_site_label_1
_geom_bond_atom_site_label_2
_ccdc_geom_bond_type
C26   C74   S    
V4    O20   S    
C41   H19   S    
C47   C51   A    
C76   H41   S    
O13   V3    S    
C38   C54   A    
C20   H6    S    
C78   H46   S    
C21   C77   S    
C37   C53   A    
O4    C2    A    
V1    O19   S    
C14   H10   S    
O34   H35   S    
H13   C55   S    
C68   H28   S    
C15   C17   A    
C7    C9    S    
O9    V1    S    
C27   H11   S    
C39   C59   A    
C78   H47   S    
C44   C46   A    
O26   H31   S    
O3    C1    A    
C2    C35   S    
C41   C63   A    
C46   C48   A    
C46   C70   S    
C68   H29   S    
O12   V4    S    
C73   O33   D    
C73   O34   S    
O7    V1    S    
C75   H39   S    
O7    C3    A    
C74   O35   D    
C9    C11   A    
O5    C7    A    
O36   H36   S    
C6    C40   S    
C15   C31   S    
C48   C52   A    
O8    V2    S    
C66   O24   S    
C56   C58   A    
C26   C28   A    
C75   H37   S    
C43   H21   S    
O3    V1    S    
O14   V4    S    
C42   H20   S    
C10   C12   A    
C38   C62   A    
C24   C36   A    
C45   C47   A    
C8    C10   S    
C2    O12   A    
C16   C32   S    
C49   C63   A    
C76   H42   S    
C34   H4    S    
C17   C19   A    
O10   V2    S    
C18   C20   A    
O1    V3    S    
C41   C43   A    
C28   C30   A    
O11   V3    S    
C21   C23   A    
O17   V3    S    
C59   H17   S    
C22   C24   A    
C74   O36   S    
C23   C35   A    
C61   C67   S    
C71   O29   D    
C78   H48   S    
C10   C20   A    
O8    C4    A    
C29   C33   S    
C68   H30   S    
C1    O11   A    
C25   C27   A    
C32   H8    S    
O15   V3    S    
C44   H22   S    
C40   C62   A    
C27   C29   A    
C9    C19   A    
C69   O26   S    
C28   H12   S    
C51   C53   A    
C13   H9    S    
C24   H2    S    
C77   H43   S    
C66   O23   D    
C19   H5    S    
C22   C30   A    
C52   C54   A    
C77   H45   S    
C65   O22   S    
C3    C64   S    
C54   C56   A    
C50   C64   A    
C67   H26   S    
C17   C75   S    
C43   C45   A    
C48   C50   A    
O18   V4    S    
C42   C44   A    
C22   C78   S    
C31   C33   D    
O28   H32   S    
C30   C34   S    
O16   C6    A    
C45   C69   S    
O1    C3    A    
C57   C71   S    
C62   C68   S    
C1    C36   S    
C11   C65   S    
C52   C60   A    
O22   H23   S    
V2    O20   S    
C67   H27   S    
C71   O30   S    
C42   C64   A    
C37   C61   A    
O16   V4    S    
C65   O21   D    
C11   C13   A    
O18   C8    A    
C33   H3    S    
C16   C18   A    
C70   O28   S    
C23   H1    S    
C31   H7    S    
C72   O31   D    
C55   C57   A    
O5    V1    S    
O17   C7    A    
O6    V2    S    
O30   H33   S    
O10   C6    A    
C60   H18   S    
C25   C35   A    
C58   C72   S    
O2    V4    S    
C26   C36   A    
O15   C5    A    
C77   H44   S    
V3    O19   S    
C51   C59   A    
O32   H34   S    
H14   C56   S    
C12   C14   A    
C14   C16   A    
C72   O32   S    
C4    C63   S    
C53   C55   A    
C25   C73   S    
O9    C5    A    
O13   V1    S    
C32   C34   D    
C18   C76   S    
O14   V2    S    
C75   H38   S    
C70   O27   D    
O2    C4    A    
C21   C29   A    
O4    V2    S    
O6    C8    A    
C13   C15   A    
C67   H25   S    
C38   H16   S    
C49   C57   A    
C76   H40   S    
C47   C49   A    
C37   H15   S    
C39   C61   A    
C5    C39   S    
O24   H24   S    
C12   C66   S    
C50   C58   A    
C40   C60   A    
C69   O25   D    
