data_mof_unit_24983.cif
_audit_creation_date              2013-03-05T16:09:45-0500
_audit_creation_method            fapswitch 2.2
_symmetry_space_group_name_H-M    P1
_symmetry_Int_Tables_number       1
_space_group_crystal_system       triclinic
_cell_length_a                    12.898358
_cell_length_b                    10.652156
_cell_length_c                    9.933687
_cell_angle_alpha                 89.608178
_cell_angle_beta                  98.101594
_cell_angle_gamma                 91.591379
_cell_volume                      1350.69357901

loop_
_atom_site_label
_atom_site_type_symbol
_atom_site_description
_atom_site_fract_x
_atom_site_fract_y
_atom_site_fract_z
_atom_type_partial_charge
O1    O     O_R   0.499990 0.316750 0.614620 -0.642973
O2    O     O_R   0.500010 0.683250 0.385380 -0.642971
O3    O     O_R   0.499990 0.316780 0.385290 -0.570787
O4    O     O_R   0.500010 0.683220 0.614710 -0.570797
C1    C     C_R   0.499377 0.260305 0.500109 0.876930
C2    C     C_R   0.500623 0.739695 0.499891 0.876925
O5    O     O_R   0.346360 0.499970 0.595710 -0.543647
O6    O     O_R   0.653640 0.500030 0.404290 -0.543646
O7    O     O_R   0.346360 0.499990 0.366380 -0.560664
O8    O     O_R   0.653640 0.500010 0.633620 -0.560672
C3    C     C_R   0.298424 0.510212 0.471913 0.931644
C4    C     C_R   0.701576 0.489786 0.528087 0.931641
Zn1   Zn    Zn3+2 0.500000 0.499980 0.653120 1.109563
Zn2   Zn    Zn3+2 0.500000 0.500020 0.346880 1.109567
C5    C     C_R   0.814724 0.474734 0.547862 -0.284215
C6    C     C_R   0.185275 0.525260 0.452137 -0.284219
C7    C     C_R   0.018607 0.472157 0.320736 -0.147324
C8    C     C_R   0.981393 0.527832 0.679265 -0.147328
C9    C     C_R   0.124458 0.500089 0.324869 0.260133
C10   C     C_R   0.875541 0.499898 0.675132 0.260131
C11   C     C_R   0.136025 0.548774 0.567166 0.294747
C12   C     C_R   0.863973 0.451221 0.432833 0.294744
C13   C     C_R   0.029346 0.520582 0.561803 -0.053573
C14   C     C_R   0.970653 0.479410 0.438197 -0.053573
H1    H     H_    0.974216 0.447728 0.223600 0.243462
H2    H     H_    0.025784 0.552258 0.776401 0.243462
C15   C     C_R   0.561577 0.067438 0.417789 -0.068396
C16   C     C_R   0.438422 0.932562 0.582210 -0.068393
H3    H     H_    0.609907 0.119714 0.355106 0.215543
H4    H     H_    0.390092 0.880286 0.644892 0.215544
C17   C     C_R   0.562404 0.938657 0.418180 -0.159059
C18   C     C_R   0.437595 0.061343 0.581819 -0.159058
H5    H     H_    0.612755 0.891483 0.357788 0.175836
H6    H     H_    0.387243 0.108517 0.642210 0.175834
C19   C     C_R   0.500410 0.872182 0.499790 -0.022292
C20   C     C_R   0.499590 0.127818 0.500209 -0.022291
C21   C     C_R   0.543922 0.598546 0.078356 -0.085612
C22   C     C_R   0.456078 0.401454 0.921643 -0.085615
C23   C     C_R   0.542654 0.599267 0.934835 0.339580
C24   C     C_R   0.457346 0.400732 0.065164 0.339581
N1    N     N_R   0.499970 0.499970 0.857200 -0.151178
N2    N     N_R   0.500030 0.500030 0.142800 -0.151174
N3    N     N_R   0.806420 0.393749 0.313287 0.222708
O9    O     O_R   0.763829 0.282418 0.321805 -0.388497
O10   O     O_R   0.785756 0.457764 0.201095 -0.296196
N4    N     N_R   0.193578 0.606251 0.686709 0.222708
O11   O     O_R   0.236166 0.717583 0.678188 -0.388497
O12   O     O_R   0.214244 0.542238 0.798903 -0.296201
N5    N     N_R   0.833094 0.491707 0.801365 0.259162
O13   O     O_R   0.868340 0.567397 0.900712 -0.288287
O14   O     O_R   0.779522 0.391504 0.828129 -0.322421
N6    N     N_R   0.166906 0.508268 0.198637 0.259160
O15   O     O_R   0.131668 0.432561 0.099302 -0.288291
O16   O     O_R   0.220471 0.608472 0.171857 -0.322415
C25   C     C_2   0.596418 0.704573 0.156446 0.587383
H7    H     H_    0.566953 0.798412 0.138342 0.073943
O17   O     O_2   0.676307 0.689546 0.235635 -0.514133
C26   C     C_2   0.403582 0.295428 0.843552 0.587381
H8    H     H_    0.433049 0.201589 0.861652 0.073944
O18   O     O_2   0.323691 0.310455 0.764366 -0.514135
N7    N     N_R   0.587724 0.704572 0.871737 0.214558
O19   O     O_R   0.547534 0.814902 0.876128 -0.404784
O20   O     O_R   0.675060 0.693497 0.822381 -0.301139
N8    N     N_R   0.412275 0.295425 0.128259 0.214563
O21   O     O_R   0.452463 0.185095 0.123861 -0.404784
O22   O     O_R   0.324961 0.306507 0.177658 -0.301139

loop_
_geom_bond_atom_site_label_1
_geom_bond_atom_site_label_2
_geom_bond_distance
_ccdc_geom_bond_type
C21   C23   1.423454 A    
C22   C24   1.423451 A    
O7    Zn2   2.018126 S    
C17   H5    1.079927 S    
C18   H6    1.079927 S    
C6    C11   1.410418 A    
C15   C20   1.394108 A    
C15   H3    1.082492 S    
N3    O10   1.301572 A    
C3    C6    1.458082 S    
C12   N3    1.439554 S    
C8    H2    1.079840 S    
C4    C5    1.458082 S    
Zn2   N2    2.027320 S    
C13   C14   1.414224 A    
C7    H1    1.079841 S    
N8    O21   1.301054 A    
N7    O19   1.301056 A    
C25   H7    1.084123 S    
C16   H4    1.082492 S    
C23   N1    1.369597 A    
O2    C2    1.289215 A    
N6    O15   1.301820 A    
O5    C3    1.301573 A    
O7    C3    1.296590 A    
C10   N5    1.438447 S    
O3    Zn2   1.986282 S    
O8    C4    1.296591 A    
N3    O9    1.300338 A    
C6    C9    1.413851 A    
O1    C1    1.289214 A    
C18   C20   1.393357 A    
C17   C19   1.393358 A    
Zn1   N1    2.027321 S    
C7    C9    1.384226 A    
N6    O16   1.301686 A    
C11   N4    1.439553 S    
C8    C10   1.384229 A    
C25   O17   1.218693 D    
C11   C13   1.393908 A    
C5    C10   1.413852 A    
O2    Zn2   1.991469 S    
O6    C4    1.301574 A    
C12   C14   1.393908 A    
C1    C20   1.411343 S    
C7    C14   1.399039 A    
O1    Zn1   1.991469 S    
C26   O18   1.218693 D    
C8    C13   1.399041 A    
C21   C25   1.468764 S    
N4    O12   1.301571 A    
O5    Zn1   1.983390 S    
C23   N7    1.430368 S    
C2    C19   1.411343 S    
C22   N1    1.375329 A    
O4    C2    1.286768 A    
N5    O13   1.301826 A    
C5    C12   1.410416 A    
C21   N2    1.375332 A    
N7    O20   1.298892 A    
N4    O11   1.300338 A    
O6    Zn2   1.983389 S    
N5    O14   1.301690 A    
C26   H8    1.084122 S    
C22   C26   1.468763 S    
C15   C17   1.372111 A    
C9    N6    1.438440 S    
C16   C18   1.372111 A    
O4    Zn1   1.986281 S    
C16   C19   1.394107 A    
N8    O22   1.298852 A    
C24   N2    1.369606 A    
O3    C1    1.286767 A    
O8    Zn1   2.018126 S    
C24   N8    1.430372 S    
