data_mof_unit_50450.cif
_audit_creation_date              2012-12-10T17:21:43-0500
_audit_creation_method            fapswitch 2.2
_symmetry_space_group_name_H-M    P1
_symmetry_Int_Tables_number       1
_space_group_crystal_system       triclinic
_cell_length_a                    10.746387
_cell_length_b                    10.858469
_cell_length_c                    9.617201
_cell_angle_alpha                 92.140559
_cell_angle_beta                  90.246749
_cell_angle_gamma                 92.783078
_cell_volume                      1120.09769257

loop_
_atom_site_label
_atom_site_type_symbol
_atom_type_description
_atom_site_fract_x
_atom_site_fract_y
_atom_site_fract_z
_atom_type_partial_charge
C1    C     C_R   0.507760 0.263209 0.498056 0.822933
C2    C     C_3   0.878248 0.501720 0.500653 0.066212
C3    C     C_3   0.934939 0.622986 0.435556 -0.042224
C4    C     C_3   0.923282 0.389887 0.409636 0.075235
C5    C     C_R   0.633140 0.138189 0.720583 -0.164763
C6    C     C_R   0.642727 0.091208 0.851981 -0.182375
C7    C     C_R   0.584661 0.977789 0.878330 0.310227
C8    C     C_R   0.532980 0.903316 0.769128 -0.232056
C9    C     C_R   0.530614 0.946323 0.631860 0.034828
C10   C     C_R   0.563221 0.072135 0.614677 0.122302
C11   C     C_R   0.518621 0.129794 0.496185 -0.073454
C12   C     C_R   0.260163 0.500010 0.499904 0.774040
C13   C     C_R   0.464439 0.058701 0.385989 -0.154548
C14   C     C_R   0.454365 0.931436 0.392421 -0.146216
C15   C     C_R   0.490321 0.873078 0.512408 -0.115177
C16   C     C_R   0.678184 0.651356 0.150045 -0.103847
C17   C     C_R   0.771218 0.717280 0.080767 -0.162860
C18   C     C_R   0.769072 0.719147 0.937566 -0.183255
C19   C     C_R   0.675492 0.653049 0.862934 -0.160426
C20   C     C_R   0.586904 0.574642 0.928604 0.200565
C21   C     C_R   0.587457 0.574221 0.077954 0.226681
C22   C     C_R   0.417391 0.428526 0.070421 -0.057979
C23   C     C_R   0.495289 0.737919 0.503579 0.772524
C24   C     C_R   0.417524 0.428450 0.922630 -0.055098
C25   C     C_R   0.739878 0.499595 0.500248 0.780349
C26   C     C_3   0.071714 0.494111 0.650651 -0.369328
C27   C     C_3   0.929262 0.491062 0.650807 -0.346547
C28   C     C_3   0.079822 0.621323 0.436026 -0.366092
C29   C     C_3   0.066979 0.388612 0.412651 -0.408364
C30   C     C_3   0.122331 0.501082 0.499749 0.071205
Cu1   Cu    Cu3+1 0.499990 0.499990 0.640660 0.921795
Cu2   Cu    Cu3+1 0.500010 0.500010 0.359340 0.946836
H1    H     H_    0.108532 0.575063 0.715302 0.174156
H2    H     H_    0.892950 0.399772 0.299944 0.142109
H3    H     H_    0.113979 0.626971 0.327170 0.151386
H4    H     H_    0.906643 0.616114 0.323862 0.106670
H5    H     H_    0.428193 0.101613 0.295335 0.177841
H6    H     H_    0.676372 0.228558 0.704881 0.193738
H7    H     H_    0.687988 0.146679 0.935230 0.175853
H8    H     H_    0.485571 0.818401 0.797290 0.197701
H9    H     H_    0.414745 0.878113 0.304253 0.197062
H10   H     H_    0.349673 0.369821 0.122660 0.132711
H11   H     H_    0.103376 0.409662 0.699733 0.178052
H12   H     H_    0.679464 0.668000 0.259484 0.192276
H13   H     H_    0.840644 0.773803 0.138903 0.152033
H14   H     H_    0.836654 0.777243 0.884623 0.154892
H15   H     H_    0.674176 0.669508 0.754720 0.202181
H16   H     H_    0.349877 0.369651 0.864815 0.139094
H17   H     H_    0.893190 0.403477 0.695739 0.201325
H18   H     H_    0.896674 0.566254 0.720517 0.175718
H19   H     H_    0.125122 0.701404 0.494141 0.175722
H20   H     H_    0.102444 0.390531 0.304134 0.155858
H21   H     H_    0.098250 0.302283 0.457535 0.199625
N1    N     N_R   0.501200 0.501210 0.147910 -0.200355
N2    N     N_R   0.501250 0.501290 0.852040 -0.205113
O1    O     O_R   0.499990 0.319640 0.618810 -0.589669
O2    O     O_R   0.500000 0.319660 0.381240 -0.562724
O3    O     O_R   0.317680 0.499970 0.618790 -0.587088
O4    O     O_R   0.317700 0.499990 0.381210 -0.587715
O5    O     O_R   0.500000 0.680340 0.618760 -0.613638
O6    O     O_R   0.500010 0.680360 0.381190 -0.582982
O7    O     O_R   0.682300 0.500010 0.618790 -0.604914
O8    O     O_R   0.682320 0.500030 0.381210 -0.606609
Br1   Br    Br    0.566542 0.931218 0.065432 -0.600654
C31   C     C_3   0.881108 0.747237 0.489994 -0.368047
C32   C     C_3   0.949391 0.816486 0.611793 -0.794812
H22   H     H_    0.980028 0.753708 0.691439 0.234734
H23   H     H_    0.031789 0.870832 0.573935 0.247917
H24   H     H_    0.886355 0.883042 0.661491 0.250112
H25   H     H_    0.881139 0.811388 0.402519 0.212030
H26   H     H_    0.781841 0.732846 0.518819 0.179086
Br2   Br    Br    0.850982 0.229973 0.462501 -0.596680

loop_
_geom_bond_atom_site_label_1
_geom_bond_atom_site_label_2
_ccdc_geom_bond_type
Cu1   O5    S    
Cu2   O6    S    
C2    C4    S    
C6    C7    A    
C1    O2    A    
Cu1   O1    S    
C29   C30   S    
C9    C10   A    
C16   H12   S    
C26   H1    S    
C32   H23   S    
C4    C29   S    
C1    C11   S    
C27   H18   S    
C4    Br2   S    
C21   N1    A    
C2    C27   S    
C12   O3    A    
C19   C20   A    
C15   C23   S    
C17   C18   A    
C9    C15   A    
C13   H5    S    
C5    C10   A    
C22   N1    A    
C22   H10   S    
C13   C14   A    
C24   N2    A    
C11   C13   A    
Cu1   O7    S    
C26   C27   S    
C16   C21   A    
C29   H21   S    
Cu2   O2    S    
C20   N2    A    
C5    C6    A    
C3    H4    S    
Cu1   O3    S    
C28   C30   S    
C3    C28   S    
C1    O1    A    
C17   H13   S    
C26   H11   S    
C26   C30   S    
C2    C25   S    
C2    C3    S    
C25   O7    A    
C14   H9    S    
C4    H2    S    
C23   O5    A    
C3    C31   S    
C28   H19   S    
C22   C24   A    
C7    Br1   S    
C32   H24   S    
C7    C8    A    
C10   C11   A    
C31   H25   S    
C24   H16   S    
C16   C17   A    
C18   H14   S    
C23   O6    A    
C32   H22   S    
C20   C21   A    
C28   H3    S    
C31   C32   S    
C25   O8    A    
C19   H15   S    
Cu2   N1    S    
C6    H7    S    
C18   C19   A    
C14   C15   A    
C8    H8    S    
Cu2   O4    S    
Cu1   N2    S    
C5    H6    S    
C12   O4    A    
C12   C30   S    
Cu1   Cu2   S    
C27   H17   S    
Cu2   O8    S    
C31   H26   S    
C8    C9    A    
C29   H20   S    
