data_mof_unit_19574.cif
_audit_creation_date              2012-12-10T19:30:42-0500
_audit_creation_method            fapswitch 2.2
_symmetry_space_group_name_H-M    P1
_symmetry_Int_Tables_number       1
_space_group_crystal_system       triclinic
_cell_length_a                    14.981068
_cell_length_b                    15.713851
_cell_length_c                    16.587465
_cell_angle_alpha                 90.849575
_cell_angle_beta                  84.236345
_cell_angle_gamma                 89.306827
_cell_volume                      3884.32963383

loop_
_atom_site_label
_atom_site_type_symbol
_atom_type_description
_atom_site_fract_x
_atom_site_fract_y
_atom_site_fract_z
_atom_type_partial_charge
Br1   Br    Br    0.652244 0.367366 0.691449 -0.462775
Br2   Br    Br    0.531987 0.662166 0.241928 -0.588926
Br3   Br    Br    0.555110 0.304712 0.305321 -0.504489
Br4   Br    Br    0.300958 0.544648 0.760614 -0.506257
Br5   Br    Br    0.694895 0.063791 0.449194 -0.499618
Br6   Br    Br    0.283657 0.931975 0.547360 -0.556811
C1    C     C_R   0.499261 0.662448 0.501100 0.919047
C2    C     C_3   0.575516 0.025292 0.485095 0.154492
C3    C     C_3   0.489222 0.917355 0.509438 -0.162802
C4    C     C_3   0.492392 0.084050 0.502331 -0.187797
C5    C     C_1   0.492670 0.826488 0.509024 0.153152
C6    C     C_1   0.497194 0.174398 0.502200 0.113318
C7    C     C_3   0.027334 0.574421 0.529936 0.312796
C8    C     C_3   0.971676 0.426494 0.472298 0.301696
C9    C     C_3   0.978758 0.563789 0.452844 0.353510
C10   C     C_3   0.021768 0.436734 0.549958 0.253030
C11   C     C_3   0.959341 0.513769 0.575700 0.318160
C12   C     C_R   0.500088 0.337839 0.502238 0.933421
C13   C     C_3   0.040453 0.486786 0.427221 0.392761
C14   C     C_3   0.909475 0.503408 0.498205 -0.326275
C15   C     C_3   0.090652 0.497853 0.503883 -0.349835
C16   C     C_R   0.487040 0.492447 0.653609 0.988118
C17   C     C_R   0.513159 0.497945 0.346237 1.037441
C18   C     C_1   0.809820 0.501208 0.499469 0.252782
C19   C     C_1   0.190155 0.499563 0.501702 0.207096
C20   C     C_R   0.477406 0.456909 0.735444 -0.328682
C21   C     C_R   0.522935 0.479733 0.259949 -0.282825
C22   C     C_R   0.544462 0.400554 0.759651 0.140015
C23   C     C_3   0.437565 0.027338 0.450283 0.301302
C24   C     C_R   0.521913 0.546282 0.205024 0.095269
C25   C     C_R   0.534289 0.365591 0.836844 0.407099
C26   C     C_R   0.520311 0.527540 0.122262 0.434251
C27   C     C_R   0.458559 0.387263 0.890066 -0.176277
C28   C     C_R   0.526677 0.441978 0.095315 -0.188019
C29   C     C_R   0.385541 0.430199 0.861947 0.373478
C30   C     C_R   0.531498 0.375115 0.150091 0.426100
C31   C     C_R   0.396491 0.469323 0.786612 0.160123
C32   C     C_R   0.532122 0.394643 0.232542 0.112058
C33   C     C_2   0.463399 0.383799 0.977578 -0.155062
C34   C     C_3   0.543317 0.975548 0.561471 0.324804
C35   C     C_2   0.530913 0.423339 0.008767 0.020558
C36   C     C_3   0.988696 0.711229 0.579203 0.137358
C37   C     C_3   0.010153 0.793668 0.533793 -0.286406
C38   C     C_3   0.935917 0.860537 0.552704 -0.973762
C39   C     C_3   0.944722 0.281539 0.480167 0.115129
C40   C     C_3   0.908964 0.205346 0.435798 -0.317926
C41   C     C_3   0.917924 0.123580 0.483173 -0.899130
C42   C     C_3   0.126858 0.401403 0.333333 0.116381
C43   C     C_3   0.183423 0.404051 0.251396 -0.307517
C44   C     C_3   0.236807 0.321528 0.233100 -1.012381
C45   C     C_3   0.520232 0.967880 0.433426 0.406800
C46   C     C_3   0.968799 0.542884 0.713109 0.151279
C47   C     C_3   0.947617 0.479860 0.781506 -0.308479
C48   C     C_3   0.012686 0.488384 0.846195 -0.972511
C49   C     C_3   0.253405 0.374580 0.914425 0.090891
C50   C     C_3   0.177904 0.386174 0.982860 -0.332543
C51   C     C_3   0.114756 0.310592 0.987030 -0.955735
C52   C     C_3   0.472698 0.241685 0.134868 0.091321
C53   C     C_3   0.501738 0.148928 0.144289 -0.266388
C54   C     C_3   0.423216 0.088591 0.140258 -1.004349
C55   C     C_3   0.436476 0.634811 0.071619 0.082494
C56   C     C_3   0.459496 0.033152 0.578401 0.301346
C57   C     C_3   0.375340 0.593188 0.014617 -0.339974
C58   C     C_3   0.288613 0.644358 0.011295 -0.864993
C59   C     C_3   0.595781 0.231882 0.844715 0.141914
C60   C     C_3   0.555250 0.184372 0.919143 -0.366088
C61   C     C_3   0.567264 0.088201 0.907968 -0.982904
C62   C     C_3   0.504214 0.925257 0.299238 0.146343
C63   C     C_3   0.423955 0.865708 0.316337 -0.327921
C64   C     C_3   0.372210 0.855468 0.242199 -0.899782
C65   C     C_3   0.399874 0.022508 0.712380 0.130352
C66   C     C_3   0.357596 0.075036 0.784990 -0.364605
C67   C     C_1   0.496511 0.751269 0.505695 -0.139189
C68   C     C_3   0.330454 0.019069 0.857526 -0.945383
C69   C     C_3   0.320990 0.117346 0.421102 0.143486
C70   C     C_3   0.239967 0.113429 0.372385 -0.297263
C71   C     C_3   0.167484 0.177081 0.405207 -1.023414
C72   C     C_3   0.639572 0.009689 0.658456 0.139787
C73   C     C_3   0.739594 0.989471 0.658601 -0.322522
C74   C     C_3   0.786386 0.057758 0.704725 -0.963109
C75   C     C_3   0.883923 0.655435 0.389197 0.080563
C76   C     C_3   0.847959 0.602230 0.321652 -0.371297
C77   C     C_3   0.752389 0.629144 0.308823 -0.813130
C78   C     C_1   0.500007 0.249355 0.502617 -0.115658
C79   C     C_3   0.113410 0.371261 0.639624 0.098128
C80   C     C_3   0.181311 0.307474 0.597341 -0.380590
C81   C     C_3   0.267192 0.303583 0.639573 -0.884435
C82   C     C_3   0.404500 0.975337 0.525717 0.047473
H1    H     H_    0.583328 0.453429 0.969359 0.195863
H2    H     H_    0.903165 0.290779 0.539311 0.206133
H3    H     H_    0.252262 0.282937 0.703216 0.242892
H4    H     H_    0.015761 0.267469 0.489763 0.173560
H5    H     H_    0.837190 0.216827 0.427264 0.277323
H6    H     H_    0.947059 0.197674 0.375051 0.225067
H7    H     H_    0.988633 0.112212 0.495028 0.254819
H8    H     H_    0.896352 0.068586 0.447510 0.297890
H9    H     H_    0.875194 0.127724 0.541810 0.282315
H10   H     H_    0.078986 0.348052 0.332035 0.184326
H11   H     H_    0.172528 0.389919 0.380972 0.112699
H12   H     H_    0.138772 0.414629 0.202742 0.230209
H13   H     H_    0.404524 0.365881 0.016867 0.133773
H14   H     H_    0.230858 0.457927 0.251489 0.232565
H15   H     H_    0.284151 0.311036 0.279546 0.276836
H16   H     H_    0.275895 0.325636 0.172785 0.251156
H17   H     H_    0.190862 0.266664 0.232074 0.279950
H18   H     H_    0.955519 0.608285 0.738043 0.141276
H19   H     H_    0.041533 0.539051 0.691450 0.148206
H20   H     H_    0.878027 0.491637 0.809803 0.246293
H21   H     H_    0.951587 0.413819 0.756528 0.253601
H22   H     H_    0.082357 0.473493 0.819854 0.279595
H23   H     H_    0.994090 0.443091 0.895609 0.275902
H24   H     H_    0.984221 0.725342 0.645282 0.145297
H25   H     H_    0.009738 0.554011 0.872224 0.279466
H26   H     H_    0.291236 0.314898 0.925330 0.115544
H27   H     H_    0.223911 0.368367 0.855605 0.156487
H28   H     H_    0.207268 0.392918 0.041541 0.218503
H29   H     H_    0.139170 0.445262 0.973156 0.243165
H30   H     H_    0.084138 0.302965 0.929111 0.267043
H31   H     H_    0.060370 0.321437 0.036846 0.276545
H32   H     H_    0.151854 0.251258 0.999171 0.264678
H33   H     H_    0.433882 0.245685 0.081571 0.125904
H34   H     H_    0.427486 0.260910 0.189787 0.149495
H35   H     H_    0.921348 0.688740 0.565708 0.127029
H36   H     H_    0.555080 0.130899 0.095510 0.232976
H37   H     H_    0.529851 0.141445 0.203309 0.258747
H38   H     H_    0.370941 0.102167 0.191225 0.277574
H39   H     H_    0.447287 0.021883 0.144364 0.263434
H40   H     H_    0.393548 0.095456 0.081903 0.267574
H41   H     H_    0.448455 0.701634 0.052882 0.186565
H42   H     H_    0.401111 0.637878 0.134010 0.159971
H43   H     H_    0.411115 0.587825 0.952698 0.266340
H44   H     H_    0.358098 0.528606 0.036903 0.237202
H45   H     H_    0.251262 0.649518 0.072544 0.249556
H46   H     H_    0.074364 0.819374 0.551390 0.261745
H47   H     H_    0.245599 0.611862 0.969927 0.306544
H48   H     H_    0.303546 0.709166 0.988210 0.260093
H49   H     H_    0.664461 0.206238 0.826707 0.187930
H50   H     H_    0.556145 0.219230 0.792283 0.120865
H51   H     H_    0.588850 0.205085 0.972649 0.277466
H52   H     H_    0.482552 0.200251 0.930489 0.207227
H53   H     H_    0.538668 0.066159 0.852358 0.262929
H54   H     H_    0.532285 0.055574 0.960770 0.279900
H55   H     H_    0.639603 0.070453 0.903316 0.271251
H56   H     H_    0.545335 0.900839 0.244096 0.180598
H57   H     H_    0.018270 0.780259 0.467510 0.254617
H58   H     H_    0.483212 0.990557 0.284218 0.186199
H59   H     H_    0.448273 0.802492 0.334131 0.261545
H60   H     H_    0.376980 0.890757 0.367238 0.259231
H61   H     H_    0.343918 0.917858 0.226002 0.264249
H62   H     H_    0.316126 0.810715 0.255924 0.278265
H63   H     H_    0.416779 0.829493 0.189806 0.271636
H64   H     H_    0.457200 0.984604 0.730858 0.153374
H65   H     H_    0.348438 0.978376 0.693288 0.197943
H66   H     H_    0.405892 0.123382 0.802507 0.223714
H67   H     H_    0.297194 0.109311 0.767675 0.234051
H68   H     H_    0.871508 0.837021 0.533605 0.271060
H69   H     H_    0.279758 0.972162 0.841980 0.278891
H70   H     H_    0.300922 0.059445 0.909176 0.262286
H71   H     H_    0.389904 0.984620 0.876392 0.269110
H72   H     H_    0.351409 0.181268 0.413706 0.154359
H73   H     H_    0.297556 0.108567 0.486365 0.176471
H74   H     H_    0.261204 0.127815 0.307999 0.215273
H75   H     H_    0.211861 0.048260 0.375295 0.251759
H76   H     H_    0.142076 0.160814 0.468152 0.270342
H77   H     H_    0.111136 0.175363 0.366668 0.274626
H78   H     H_    0.194902 0.242261 0.404813 0.257319
H79   H     H_    0.953880 0.919658 0.519347 0.282946
H80   H     H_    0.609080 0.013537 0.722160 0.138705
H81   H     H_    0.631684 0.073788 0.631660 0.165772
H82   H     H_    0.748440 0.926925 0.687435 0.231612
H83   H     H_    0.771435 0.985274 0.595218 0.259718
H84   H     H_    0.778028 0.121055 0.677273 0.280853
H85   H     H_    0.859151 0.042298 0.702107 0.273777
H86   H     H_    0.757996 0.060553 0.769212 0.263538
H87   H     H_    0.884306 0.723119 0.370767 0.177685
H88   H     H_    0.839489 0.653897 0.446964 0.112817
H89   H     H_    0.891818 0.610573 0.264255 0.247684
H90   H     H_    0.927286 0.875858 0.618644 0.269163
H91   H     H_    0.849039 0.533663 0.336722 0.240114
H92   H     H_    0.707706 0.623359 0.365970 0.283471
H93   H     H_    0.727081 0.587471 0.261732 0.287165
H94   H     H_    0.750767 0.696116 0.288460 0.277193
H95   H     H_    0.098553 0.351443 0.703501 0.164972
H96   H     H_    0.142395 0.435755 0.642802 0.150155
H97   H     H_    0.151137 0.243200 0.597988 0.230706
H98   H     H_    0.198047 0.325641 0.533266 0.210602
H99   H     H_    0.299052 0.366987 0.639316 0.291626
H100  H     H_    0.315013 0.257074 0.607262 0.270344
N1    N     N_1   0.731990 0.500000 0.499970 -0.080996
N2    N     N_1   0.268010 0.500000 0.500030 -0.087571
O1    O     O_R   0.425540 0.623220 0.500000 -0.582435
O2    O     O_3   0.939942 0.354344 0.432415 -0.640379
O3    O     O_3   0.079590 0.479342 0.346259 -0.591782
O4    O     O_3   0.910824 0.528295 0.652298 -0.613081
O5    O     O_3   0.308703 0.446692 0.913370 -0.620803
O6    O     O_3   0.550005 0.292674 0.121608 -0.597395
O7    O     O_3   0.520993 0.592251 0.066182 -0.605476
O8    O     O_3   0.604162 0.319306 0.864178 -0.600113
O9    O     O_3   0.560577 0.925947 0.362498 -0.602298
O10   O     O_3   0.429142 0.078698 0.650137 -0.644482
O11   O     O_3   0.384163 0.054918 0.389958 -0.649333
O12   O     O_R   0.574460 0.376780 0.500000 -0.558840
O13   O     O_3   0.598342 0.942836 0.618310 -0.626252
O14   O     O_3   0.973223 0.631618 0.398250 -0.596916
O15   O     O_3   0.032234 0.368370 0.603195 -0.655441
O16   O     O_R   0.574480 0.623220 0.499990 -0.628348
O17   O     O_R   0.425520 0.376780 0.500010 -0.645292
O18   O     O_R   0.416730 0.500010 0.615810 -0.592330
O19   O     O_R   0.583270 0.499990 0.384190 -0.597256
O20   O     O_R   0.565670 0.500010 0.615790 -0.569591
O21   O     O_R   0.434330 0.499990 0.384210 -0.609645
O22   O     O_3   0.059507 0.651576 0.560044 -0.606865
Zn1   Zn    Zn3+2 0.400550 0.500000 0.500010 1.008517
Zn2   Zn    Zn3+2 0.599450 0.500000 0.499990 1.038474

loop_
_geom_bond_atom_site_label_1
_geom_bond_atom_site_label_2
_ccdc_geom_bond_type
C69   H72   S    
C35   H1    S    
C49   C50   S    
C58   H48   S    
C44   H16   S    
O18   Zn1   S    
C81   H3    S    
C42   O3    S    
C50   H29   S    
C49   O5    S    
C64   H62   S    
C37   C38   S    
C61   H55   S    
C75   C76   S    
C69   O11   S    
Br6   C82   S    
C65   O10   S    
C1    C67   S    
C20   C31   A    
C79   C80   S    
C25   O8    S    
C9    C13   S    
C64   H61   S    
C48   H22   S    
C27   C33   S    
C49   H27   S    
C77   H92   S    
C62   O9    S    
C75   H87   S    
C73   H82   S    
C23   O11   S    
C13   C15   S    
C74   H85   S    
C19   N2    T    
C3    C82   S    
C21   C32   A    
C71   H77   S    
C65   H65   S    
C48   H25   S    
O17   Zn1   S    
C11   C14   S    
C34   C56   S    
C50   C51   S    
C77   H93   S    
C73   H83   S    
C72   O13   S    
C55   C57   S    
C39   H4    S    
C36   H24   S    
C23   C82   S    
C40   C41   S    
C70   H74   S    
C9    O14   S    
C60   H51   S    
C14   C18   S    
C46   H19   S    
C62   C63   S    
C3    C45   S    
C76   H91   S    
C44   H17   S    
C12   C78   S    
C41   H8    S    
C25   C27   A    
C18   N1    T    
C36   O22   S    
C17   C21   S    
C52   O6    S    
C55   H41   S    
C51   H31   S    
C59   H49   S    
O16   Zn2   S    
C71   H76   S    
C60   C61   S    
C58   H47   S    
C46   H18   S    
C53   C54   S    
C79   H95   S    
C66   H67   S    
C21   C24   A    
C7    O22   S    
C1    O1    A    
C11   O4    S    
C4    C56   S    
C28   C35   S    
C1    O16   A    
C36   H35   S    
C33   H13   S    
C75   O14   S    
C54   H39   S    
C9    C14   S    
C52   H34   S    
C66   H66   S    
C68   H70   S    
C79   O15   S    
C38   H68   S    
C75   H88   S    
C8    C14   S    
C54   H40   S    
C46   O4    S    
C70   C71   S    
Br3   C32   S    
C66   C68   S    
C10   O15   S    
C5    C67   T    
C38   H90   S    
C43   H14   S    
C72   C73   S    
C10   C11   S    
Br2   C24   S    
C81   H99   S    
C17   O19   A    
C6    C78   T    
C71   H78   S    
O20   Zn2   S    
C56   C82   S    
C3    C34   S    
C45   O9    S    
C77   H94   S    
C12   O17   A    
C38   H79   S    
C26   C28   A    
C59   O8    S    
C37   H46   S    
C69   C70   S    
C30   O6    S    
C26   O7    S    
C37   H57   S    
Br1   C22   S    
C80   H98   S    
C39   O2    S    
C65   H64   S    
C40   H6    S    
C34   O13   S    
C50   H28   S    
C7    C15   S    
C12   O12   A    
C57   H44   S    
O12   Zn2   S    
C39   H2    S    
C3    C5    S    
C2    C45   S    
C4    C6    S    
C55   H42   S    
C51   H32   S    
C59   H50   S    
C68   H71   S    
C42   C43   S    
O21   Zn1   S    
C13   O3    S    
C79   H96   S    
C57   H43   S    
C7    C9    S    
C63   H59   S    
C43   C44   S    
C8    C10   S    
C36   C37   S    
C74   H84   S    
C55   O7    S    
C61   H53   S    
C62   H58   S    
C46   C47   S    
C23   C45   S    
C47   H21   S    
C53   H36   S    
C42   H11   S    
C15   C19   S    
C58   H45   S    
C52   H33   S    
C68   H69   S    
C29   C31   A    
C80   C81   S    
C20   C22   A    
C8    C13   S    
C22   C25   A    
C64   H63   S    
C57   C58   S    
Br5   C2    S    
C10   C15   S    
C47   C48   S    
C81   H100  S    
C49   H26   S    
C29   O5    S    
C53   H37   S    
C42   H10   S    
C72   H80   S    
O19   Zn2   S    
C41   H9    S    
C7    C11   S    
C69   H73   S    
C54   H38   S    
C52   C53   S    
C74   H86   S    
C65   C66   S    
C59   C60   S    
O1    Zn1   S    
C43   H12   S    
C24   C26   A    
C4    C23   S    
C40   H5    S    
C17   O21   A    
C47   H20   S    
C16   O20   A    
C76   H89   S    
C30   C32   A    
C27   C29   A    
C48   H23   S    
C62   H56   S    
C28   C30   A    
C8    O2    S    
C72   H81   S    
C63   C64   S    
N2    Zn1   S    
N1    Zn2   S    
C56   O10   S    
C73   C74   S    
C39   C40   S    
C44   H15   S    
C60   H52   S    
Br4   C31   S    
C33   C35   D    
C80   H97   S    
C2    C4    S    
C76   C77   S    
C16   C20   S    
C63   H60   S    
C41   H7    S    
C70   H75   S    
C2    C34   S    
C61   H54   S    
C16   O18   A    
C51   H30   S    
