data_mof_unit_45566.cif
_audit_creation_date              2012-12-10T18:42:32-0500
_audit_creation_method            fapswitch 2.2
_symmetry_space_group_name_H-M    P1
_symmetry_Int_Tables_number       1
_space_group_crystal_system       triclinic
_cell_length_a                    8.58925
_cell_length_b                    10.716756
_cell_length_c                    9.827408
_cell_angle_alpha                 90.011078
_cell_angle_beta                  98.463979
_cell_angle_gamma                 90.187365
_cell_volume                      894.744680515

loop_
_atom_site_label
_atom_site_type_symbol
_atom_type_description
_atom_site_fract_x
_atom_site_fract_y
_atom_site_fract_z
_atom_type_partial_charge
C1    C     C_R   0.499638 0.259796 0.499902 0.877057
C2    C     C_R   0.516568 0.063817 0.625338 -0.194447
C3    C     C_R   0.498851 0.872501 0.499923 0.003232
C4    C     C_R   0.498873 0.127303 0.499851 -0.011338
C5    C     C_R   0.594710 0.580082 0.083966 -0.034723
C6    C     C_R   0.404531 0.420320 0.915744 -0.048164
C7    C     C_R   0.594954 0.579950 0.940105 -0.098008
C8    C     C_R   0.404643 0.420303 0.059759 -0.077880
C9    C     C_3   0.003721 0.696815 0.285286 0.076548
C10   C     C_3   0.909735 0.793390 0.355218 -0.406037
C11   C     C_3   0.945320 0.925910 0.311978 -0.929955
C12   C     C_R   0.499668 0.740153 0.500017 0.805778
C13   C     C_3   0.019994 0.644691 0.759456 0.095104
C14   C     C_3   0.162179 0.729762 0.751980 -0.319709
C15   C     C_3   0.145918 0.853591 0.825087 -0.995180
C16   C     C_R   0.201978 0.511278 0.464960 0.871266
C17   C     C_R   0.797899 0.511446 0.535796 0.886190
C18   C     C_2   0.039219 0.541673 0.448112 0.171854
C19   C     C_2   0.962361 0.533048 0.558092 0.149569
C20   C     C_R   0.480505 0.063669 0.374375 -0.196907
C21   C     C_R   0.516691 0.936076 0.625366 -0.203829
C22   C     C_R   0.480410 0.935912 0.374411 -0.213596
H1    H     H_    0.465836 0.112141 0.276590 0.158326
H2    H     H_    0.132365 0.715997 0.310871 0.135835
H3    H     H_    0.781871 0.775059 0.327552 0.238598
H4    H     H_    0.939692 0.786485 0.468693 0.199993
H5    H     H_    0.072395 0.947501 0.341834 0.269335
H6    H     H_    0.875527 0.993217 0.363983 0.276629
H7    H     H_    0.913255 0.936847 0.198930 0.257309
H8    H     H_    0.013199 0.624688 0.869377 0.164840
H9    H     H_    0.909074 0.694710 0.718443 0.106842
H10   H     H_    0.270846 0.682496 0.801178 0.252242
H11   H     H_    0.173693 0.748706 0.642785 0.207682
H12   H     H_    0.531496 0.887578 0.723151 0.153467
H13   H     H_    0.039657 0.904063 0.775670 0.271107
H14   H     H_    0.251003 0.912645 0.818505 0.271327
H15   H     H_    0.136801 0.837372 0.935310 0.258684
H16   H     H_    0.465728 0.887275 0.276650 0.156744
H17   H     H_    0.531171 0.112386 0.723129 0.157925
H18   H     H_    0.670019 0.644214 0.147889 0.140544
H19   H     H_    0.328212 0.356730 0.851271 0.150914
H20   H     H_    0.670839 0.643854 0.895183 0.116750
H21   H     H_    0.328513 0.356613 0.104652 0.135148
H22   H     H_    0.974242 0.708037 0.172031 0.156517
N1    N     N_R   0.499960 0.499970 0.857200 -0.088748
N2    N     N_R   0.500040 0.500030 0.142800 -0.081634
O1    O     O_R   0.499990 0.316750 0.614620 -0.623893
O2    O     O_3   0.038648 0.529175 0.693272 -0.626744
O3    O     O_R   0.500010 0.683250 0.385380 -0.648679
O4    O     O_R   0.499990 0.316780 0.385290 -0.625444
O5    O     O_R   0.500010 0.683220 0.614710 -0.649284
O6    O     O_R   0.271750 0.499990 0.587840 -0.584488
O7    O     O_R   0.728250 0.500010 0.412160 -0.573197
O8    O     O_R   0.271750 0.500010 0.358510 -0.609138
O9    O     O_R   0.728250 0.499990 0.641490 -0.605549
O10   O     O_3   0.963098 0.573044 0.317796 -0.630541
Zn1   Zn    Zn3+2 0.500000 0.499980 0.653120 0.946726
Zn2   Zn    Zn3+2 0.500000 0.500020 0.346880 0.957029

loop_
_geom_bond_atom_site_label_1
_geom_bond_atom_site_label_2
_ccdc_geom_bond_type
C13   O2    S    
C2    C4    A    
O7    Zn2   S    
C8    H21   S    
C9    H2    S    
O5    Zn1   S    
C6    N1    A    
C11   H5    S    
O1    Zn1   S    
C9    C10   S    
C17   O9    A    
C21   H12   S    
C20   H1    S    
C18   O10   S    
C1    C4    S    
C10   H4    S    
C2    C21   A    
C12   O3    A    
C9    O10   S    
C13   C14   S    
N2    Zn2   S    
N1    Zn1   S    
C5    N2    A    
C11   H6    S    
C14   H11   S    
C22   H16   S    
C7    N1    A    
C10   H3    S    
C15   H13   S    
C17   C19   S    
C20   C22   A    
C16   O8    A    
O9    Zn1   S    
O8    Zn2   S    
C8    N2    A    
C3    C21   A    
C10   C11   S    
O6    Zn1   S    
O4    Zn2   S    
C17   O7    A    
C15   H14   S    
C12   O5    A    
C13   H8    S    
C11   H7    S    
C16   C18   S    
C18   C19   D    
C1    O4    A    
C7    H20   S    
C5    C7    A    
C14   C15   S    
C15   H15   S    
C9    H22   S    
C6    C8    A    
C3    C12   S    
C19   O2    S    
C5    H18   S    
C2    H17   S    
C13   H9    S    
C1    O1    A    
O3    Zn2   S    
C16   O6    A    
C14   H10   S    
C3    C22   A    
C6    H19   S    
C4    C20   A    
