data_mof_unit_10584.cif
_audit_creation_date              2012-12-11T14:01:38-0500
_audit_creation_method            fapswitch 2.2
_symmetry_space_group_name_H-M    P1
_symmetry_Int_Tables_number       1
_space_group_crystal_system       triclinic
_cell_length_a                    18.918606
_cell_length_b                    10.974113
_cell_length_c                    18.750617
_cell_angle_alpha                 89.906505
_cell_angle_beta                  89.841664
_cell_angle_gamma                 90.095592
_cell_volume                      3892.88235421

loop_
_atom_site_label
_atom_site_type_symbol
_atom_type_description
_atom_site_fract_x
_atom_site_fract_y
_atom_site_fract_z
_atom_type_partial_charge
C1    C     C_R   0.271174 0.045789 0.851690 0.560929
C2    C     C_R   0.021995 0.662136 0.960303 -0.127752
C3    C     C_R   0.506630 0.167125 0.032794 -0.125305
C4    C     C_R   0.521994 0.162136 0.960303 -0.127752
C5    C     C_2   0.248160 0.578340 0.920172 -0.110355
C6    C     C_2   0.736081 0.637795 0.067583 -0.108650
C7    C     C_2   0.748160 0.078340 0.920172 -0.110355
C8    C     C_2   0.236081 0.137795 0.067583 -0.108650
C9    C     C_2   0.250351 0.585594 0.076638 -0.101813
C10   C     C_2   0.743549 0.607772 0.914158 -0.105136
C11   C     C_2   0.750351 0.085594 0.076638 -0.101813
C12   C     C_R   0.727730 0.042285 0.146371 0.565257
C13   C     C_2   0.243549 0.107772 0.914158 -0.105136
C14   C     C_2   0.294119 0.517883 0.036534 -0.171775
C15   C     C_2   0.691864 0.559673 0.954278 -0.161913
C16   C     C_2   0.794119 0.017883 0.036534 -0.171775
C17   C     C_2   0.191864 0.059673 0.954278 -0.161912
C18   C     C_2   0.302868 0.541939 0.960327 -0.162082
C19   C     C_2   0.681016 0.601111 0.027915 -0.164717
C20   C     C_2   0.802868 0.041939 0.960327 -0.162082
C21   C     C_2   0.181017 0.101111 0.027915 -0.164717
C22   C     C_2   0.518305 0.836611 0.587588 -0.110455
C23   C     C_R   0.771174 0.545789 0.851690 0.560929
C24   C     C_2   0.543256 0.827853 0.434133 -0.101000
C25   C     C_2   0.018305 0.336611 0.587588 -0.110455
C26   C     C_2   0.043256 0.327853 0.434133 -0.101000
C27   C     C_2   0.563159 0.739513 0.478855 -0.173442
C28   C     C_2   0.540988 0.736946 0.553349 -0.147046
C29   C     C_2   0.063159 0.239512 0.478855 -0.173442
C30   C     C_2   0.040988 0.236946 0.553349 -0.147046
C31   C     C_2   0.244812 0.565894 0.584218 -0.098753
C32   C     C_2   0.732537 0.650400 0.436281 -0.130987
C33   C     C_2   0.744812 0.065894 0.584218 -0.098753
C34   C     C_R   0.227730 0.542285 0.146371 0.565257
C35   C     C_2   0.232537 0.150400 0.436281 -0.130987
C36   C     C_2   0.215404 0.512394 0.435843 -0.123601
C37   C     C_2   0.741583 0.616198 0.590275 -0.101101
C38   C     C_2   0.715404 0.012395 0.435843 -0.123601
C39   C     C_2   0.241584 0.116198 0.590275 -0.101102
C40   C     C_R   0.471203 0.821816 0.853408 0.535086
C41   C     C_R   0.527889 0.822671 0.147286 0.547260
C42   C     C_R   0.971203 0.321816 0.853408 0.535085
C43   C     C_R   0.027889 0.322671 0.147286 0.547260
C44   C     C_2   0.167664 0.566040 0.479581 0.011777
C45   C     C_R   0.495264 0.059837 0.071125 -0.075979
C46   C     C_2   0.778619 0.704214 0.556372 0.030434
C47   C     C_2   0.667664 0.066040 0.479581 0.011777
C48   C     C_2   0.278620 0.204214 0.556371 0.030434
C49   C     C_2   0.179614 0.568319 0.556692 -0.166148
C50   C     C_2   0.772818 0.719425 0.478764 -0.172003
C51   C     C_2   0.679614 0.068318 0.556692 -0.166148
C52   C     C_2   0.272818 0.219424 0.478764 -0.172002
C53   C     C_R   0.260625 0.635562 0.851267 0.555676
C54   C     C_R   0.727121 0.680425 0.140275 0.566550
C55   C     C_R   0.760625 0.135562 0.851267 0.555676
C56   C     C_R   0.521595 0.050490 0.924968 -0.088848
C57   C     C_R   0.227121 0.180425 0.140275 0.566550
C58   C     C_R   0.270077 0.052080 0.651570 0.581046
C59   C     C_R   0.707458 0.997478 0.359574 0.534142
C60   C     C_R   0.770077 0.552081 0.651571 0.581047
C61   C     C_R   0.207458 0.497478 0.359574 0.534142
C62   C     C_R   0.473184 0.824168 0.649808 0.557342
C63   C     C_R   0.561970 0.819539 0.359734 0.524907
C64   C     C_R   0.973184 0.324168 0.649808 0.557343
C65   C     C_R   0.061970 0.319539 0.359734 0.524907
C66   C     C_R   0.259320 0.632722 0.648416 0.573461
C67   C     C_R   0.995265 0.559837 0.071125 -0.075979
C68   C     C_R   0.726214 0.684637 0.362271 0.529764
C69   C     C_R   0.759320 0.132722 0.648416 0.573461
C70   C     C_R   0.226214 0.184637 0.362271 0.529764
C71   C     C_R   0.497672 0.833122 0.075830 0.001187
C72   C     C_R   0.496991 0.828532 0.926683 0.006021
C73   C     C_R   0.997672 0.333122 0.075830 0.001187
C74   C     C_R   0.996991 0.328532 0.926683 0.006021
C75   C     C_R   0.499470 0.944905 0.037280 0.025363
C76   C     C_R   0.506190 0.941346 0.962122 0.023308
C77   C     C_R   0.999471 0.444904 0.037280 0.025363
C78   C     C_R   0.021595 0.550490 0.924968 -0.088848
C79   C     C_R   0.006190 0.441346 0.962122 0.023308
C80   C     C_R   0.490773 0.720722 0.966463 -0.151785
C81   C     C_R   0.489203 0.723374 0.039351 -0.160204
C82   C     C_R   0.990773 0.220722 0.966463 -0.151785
C83   C     C_R   0.989203 0.223374 0.039351 -0.160204
C84   C     C_2   0.107018 0.640868 0.454826 0.614409
C85   C     C_2   0.828568 0.786436 0.594666 0.597452
C86   C     C_2   0.607018 0.140867 0.454826 0.614409
C87   C     C_2   0.328570 0.286434 0.594666 0.597454
C88   C     C_R   0.006630 0.667125 0.032794 -0.125305
Cr1   Cr    Cr6+3 0.230530 0.836340 0.748870 1.032082
Cr2   Cr    Cr6+3 0.614360 0.677860 0.250770 1.034493
Cr3   Cr    Cr6+3 0.885640 0.177860 0.749230 1.029903
Cr4   Cr    Cr6+3 0.114360 0.177860 0.250770 1.034493
Cr5   Cr    Cr6+3 0.769470 0.836340 0.251130 1.029259
Cr6   Cr    Cr6+3 0.730530 0.336340 0.748870 1.032083
Cr7   Cr    Cr6+3 0.269470 0.336340 0.251130 1.029259
Cr8   Cr    Cr6+3 0.387420 0.989430 0.750820 1.056578
Cr9   Cr    Cr6+3 0.612580 0.989430 0.249180 1.043389
Cr10  Cr    Cr6+3 0.887420 0.489430 0.750820 1.056578
Cr11  Cr    Cr6+3 0.112580 0.489430 0.249180 1.043389
Cr12  Cr    Cr6+3 0.385640 0.677860 0.749230 1.029903
H1    H     H_    0.483940 0.632584 0.941434 0.137758
H2    H     H_    0.696072 0.573141 0.566201 0.080732
H3    H     H_    0.760614 0.966849 0.457437 0.079250
H4    H     H_    0.196072 0.073141 0.566201 0.080732
H5    H     H_    0.291034 0.537709 0.554566 0.135288
H6    H     H_    0.701053 0.574583 0.455122 0.118839
H7    H     H_    0.791035 0.037709 0.554566 0.135291
H8    H     H_    0.201052 0.074583 0.455122 0.118839
H9    H     H_    0.481479 0.068302 0.126879 0.142988
H10   H     H_    0.534793 0.050357 0.868818 0.129538
H11   H     H_    0.981479 0.568302 0.126879 0.142988
H12   H     H_    0.485714 0.636886 0.067164 0.139189
H13   H     H_    0.034793 0.550357 0.868818 0.129538
H14   H     H_    0.004314 0.754309 0.059622 0.111701
H15   H     H_    0.033079 0.745203 0.931095 0.111604
H16   H     H_    0.504313 0.254309 0.059623 0.111701
H17   H     H_    0.533079 0.245203 0.931095 0.111604
H18   H     H_    0.322992 0.441599 0.059126 0.148069
H19   H     H_    0.660686 0.483085 0.935408 0.147691
H20   H     H_    0.822992 0.941599 0.059126 0.148069
H21   H     H_    0.160685 0.983086 0.935408 0.147691
H22   H     H_    0.355648 0.533364 0.937979 0.150917
H23   H     H_    0.983940 0.132584 0.941434 0.137758
H24   H     H_    0.628424 0.594183 0.050914 0.152879
H25   H     H_    0.855648 0.033364 0.937979 0.150918
H26   H     H_    0.128424 0.094183 0.050914 0.152879
H27   H     H_    0.195129 0.582836 0.942495 0.112663
H28   H     H_    0.789386 0.638903 0.045842 0.114844
H29   H     H_    0.695129 0.082836 0.942495 0.112663
H30   H     H_    0.289386 0.138903 0.045842 0.114844
H31   H     H_    0.589694 0.659420 0.458424 0.141677
H32   H     H_    0.536779 0.647402 0.577824 0.171868
H33   H     H_    0.089693 0.159420 0.458424 0.141677
H34   H     H_    0.985714 0.136886 0.067165 0.139189
H35   H     H_    0.036778 0.147402 0.577824 0.171868
H36   H     H_    0.512102 0.904969 0.451373 0.171062
H37   H     H_    0.526283 0.927289 0.565985 0.143826
H38   H     H_    0.012102 0.404969 0.451373 0.171062
H39   H     H_    0.026283 0.427289 0.565985 0.143826
H40   H     H_    0.074010 0.789812 0.401217 0.340828
H41   H     H_    0.852349 0.876026 0.685452 0.337393
H42   H     H_    0.574009 0.289811 0.401217 0.340828
H43   H     H_    0.352352 0.376024 0.685452 0.337394
H44   H     H_    0.223137 0.663701 0.053990 0.117367
H45   H     H_    0.135765 0.599044 0.589736 0.170668
H46   H     H_    0.772288 0.687846 0.932102 0.111183
H47   H     H_    0.723137 0.163701 0.053990 0.117367
H48   H     H_    0.272288 0.187846 0.932102 0.111183
H49   H     H_    0.805889 0.788833 0.454505 0.175903
H50   H     H_    0.635765 0.099042 0.589736 0.170668
H51   H     H_    0.305890 0.288832 0.454504 0.175903
H52   H     H_    0.260613 0.466848 0.457437 0.079249
O1    O     O_R   0.215090 0.709860 0.828130 -0.522580
O2    O     O_R   0.543740 0.718170 0.330000 -0.486982
O3    O     O_R   0.956260 0.218170 0.670000 -0.507292
O4    O     O_R   0.043740 0.218170 0.330000 -0.486982
O5    O     O_R   0.320940 0.626760 0.674370 -0.490301
O6    O     O_R   0.679060 0.626760 0.325630 -0.487620
O7    O     O_R   0.820940 0.126760 0.674370 -0.490302
O8    O     O_R   0.179060 0.126760 0.325630 -0.487620
O9    O     O_3   0.334530 0.834540 0.749640 -0.252074
O10   O     O_3   0.665470 0.834540 0.250360 -0.334298
O11   O     O_3   0.834530 0.334540 0.749640 -0.252074
O12   O     O_R   0.784910 0.709860 0.171870 -0.508500
O13   O     O_3   0.165470 0.334540 0.250360 -0.334298
O14   O     O_R   0.236990 0.958390 0.823710 -0.501807
O15   O     O_R   0.763010 0.958390 0.176290 -0.505966
O16   O     O_R   0.736990 0.458390 0.823710 -0.501807
O17   O     O_R   0.263010 0.458390 0.176290 -0.505965
O18   O     O_R   0.332380 0.074750 0.830850 -0.506065
O19   O     O_R   0.667620 0.074750 0.169150 -0.502199
O20   O     O_R   0.832380 0.574750 0.830850 -0.506065
O21   O     O_R   0.167620 0.574750 0.169150 -0.502199
O22   O     O_R   0.445800 0.917770 0.825070 -0.508766
O23   O     O_R   0.715090 0.209860 0.828130 -0.522580
O24   O     O_R   0.554200 0.917770 0.174930 -0.506378
O25   O     O_R   0.945800 0.417770 0.825070 -0.508766
O26   O     O_R   0.054200 0.417770 0.174930 -0.506378
O27   O     O_R   0.456410 0.716580 0.829970 -0.527988
O28   O     O_R   0.543590 0.716580 0.170030 -0.523575
O29   O     O_R   0.956410 0.216580 0.829970 -0.527988
O30   O     O_R   0.043590 0.216580 0.170030 -0.523575
O31   O     O_R   0.321080 0.625290 0.822650 -0.498457
O32   O     O_R   0.678920 0.625290 0.177350 -0.476048
O33   O     O_R   0.821080 0.125290 0.822650 -0.498457
O34   O     O_R   0.284910 0.209860 0.171870 -0.508500
O35   O     O_R   0.178920 0.125290 0.177350 -0.476048
O36   O     O_R   0.214930 0.711450 0.668160 -0.510329
O37   O     O_R   0.785070 0.711450 0.331840 -0.480440
O38   O     O_R   0.714930 0.211450 0.668160 -0.510329
O39   O     O_R   0.285070 0.211450 0.331840 -0.480441
O40   O     O_R   0.236850 0.959870 0.675420 -0.503286
O41   O     O_R   0.763150 0.959870 0.324580 -0.499239
O42   O     O_R   0.736850 0.459870 0.675420 -0.503286
O43   O     O_R   0.263150 0.459870 0.324580 -0.499239
O44   O     O_R   0.332230 0.076350 0.670880 -0.463673
O45   O     O_R   0.445660 0.919250 0.676780 -0.491236
O46   O     O_R   0.667770 0.076350 0.329120 -0.445734
O47   O     O_R   0.832230 0.576350 0.670880 -0.463672
O48   O     O_R   0.167770 0.576350 0.329120 -0.445734
O49   O     O_2   0.047536 0.619437 0.477119 -0.541835
O50   O     O_R   0.119096 0.743904 0.412479 -0.643767
O51   O     O_2   0.880728 0.826960 0.564012 -0.512099
O52   O     O_R   0.814647 0.820261 0.665242 -0.691911
O53   O     O_2   0.547536 0.119436 0.477119 -0.541835
O54   O     O_R   0.619096 0.243904 0.412480 -0.643767
O55   O     O_2   0.380731 0.326955 0.564012 -0.512096
O56   O     O_R   0.554340 0.919250 0.323220 -0.491509
O57   O     O_R   0.314649 0.320261 0.665240 -0.691912
O58   O     O_R   0.945660 0.419250 0.676780 -0.491236
O59   O     O_R   0.054340 0.419250 0.323220 -0.491509
O60   O     O_R   0.456260 0.718170 0.670000 -0.507292

loop_
_geom_bond_atom_site_label_1
_geom_bond_atom_site_label_2
_ccdc_geom_bond_type
C44   C49   S    
C43   C73   S    
C31   C66   S    
C29   H33   S    
C43   O26   A    
C53   O1    A    
C56   C76   A    
C66   O36   A    
C32   H6    S    
C27   H31   S    
C14   C18   S    
C41   O28   A    
C42   O25   A    
C33   H7    S    
H41   O52   S    
C7    C55   S    
C75   C76   A    
C64   O58   A    
C86   O54   S    
C12   O15   A    
Cr10  O11   S    
Cr4   O35   S    
C60   O42   A    
C39   H4    S    
H43   O57   S    
Cr11  O59   S    
C32   C68   S    
C59   O41   A    
Cr5   O15   S    
C15   C19   S    
C6    C19   D    
Cr10  O58   S    
C22   H37   S    
C67   C88   A    
C29   C30   S    
Cr8   O22   S    
Cr10  O47   S    
Cr2   O10   S    
C68   O37   A    
C5    C53   S    
C25   H39   S    
C31   C49   D    
C65   O4    A    
C3    H16   S    
C16   H20   S    
C37   H2    S    
C45   H9    S    
C59   O46   A    
C84   O50   S    
C1    O18   A    
Cr8   O9    S    
C61   O48   A    
C11   C16   D    
Cr1   O9    S    
Cr12  O31   S    
C73   C77   A    
C83   H34   S    
C35   H8    S    
C60   O47   A    
Cr4   O13   S    
C23   O20   A    
C51   H50   S    
C14   H18   S    
C67   C77   A    
Cr11  O48   S    
C24   C27   D    
C2    C88   A    
Cr12  O9    S    
Cr2   O2    S    
C61   O43   A    
Cr3   O7    S    
C85   O52   S    
C33   C69   S    
Cr6   O23   S    
C41   C71   S    
C46   C85   S    
Cr10  O20   S    
C24   H36   S    
H42   O54   S    
Cr3   O33   S    
Cr9   O24   S    
Cr8   O18   S    
C4    C56   A    
C31   H5    S    
Cr3   O11   S    
C6    C54   S    
C68   O6    A    
Cr7   O13   S    
C86   O53   D    
C56   H10   S    
C7    C20   D    
C9    H44   S    
C70   O39   A    
C12   O19   A    
C77   C79   A    
C42   O29   A    
Cr8   O45   S    
Cr2   O28   S    
C19   H24   S    
C42   C74   S    
C65   O59   A    
C47   C86   S    
C35   C70   S    
Cr11  O26   S    
Cr6   O16   S    
C78   C79   A    
C36   H52   S    
C47   C51   S    
C5    C18   D    
C63   O2    A    
Cr5   O12   S    
C26   H38   S    
Cr12  O5    S    
C39   C58   S    
C3    C45   A    
C17   C21   S    
C23   O16   A    
C28   H32   S    
C25   C64   S    
Cr2   O6    S    
C9    C14   D    
Cr6   O38   S    
Cr3   O3    S    
C38   H3    S    
C2    C78   A    
H40   O50   S    
C8    C57   S    
C22   C62   S    
C40   O27   A    
C2    H15   S    
Cr1   O1    S    
Cr11  O21   S    
C81   H12   S    
C48   C52   S    
C16   C20   S    
C32   C50   D    
C5    H27   S    
C8    C21   D    
C57   O34   A    
C48   C87   S    
C49   H45   S    
C72   C76   A    
Cr4   O4    S    
Cr10  O25   S    
Cr7   O17   S    
C55   O23   A    
C38   C47   D    
C34   O17   A    
C18   H22   S    
C67   H11   S    
C41   O24   A    
Cr2   O32   S    
C30   H35   S    
C24   C63   S    
C74   C79   A    
Cr3   O29   S    
C8    H30   S    
C9    C34   S    
Cr1   O36   S    
C54   O32   A    
C4    H17   S    
C36   C44   D    
C78   H13   S    
C1    C13   S    
C3    C4    A    
C10   H46   S    
C82   H23   S    
C35   C52   D    
C74   C82   A    
C17   H21   S    
C25   C30   D    
C84   O49   D    
Cr7   O43   S    
Cr7   O39   S    
C40   C72   S    
C10   C15   D    
Cr6   O42   S    
C26   C65   S    
Cr9   O46   S    
Cr5   O41   S    
C71   C75   A    
C62   O45   A    
C80   C81   A    
C44   C84   S    
C69   O38   A    
C11   C12   S    
C63   O56   A    
Cr5   O37   S    
C10   C23   S    
C33   C51   D    
C46   C50   S    
C43   O30   A    
Cr9   O19   S    
C71   C81   A    
C13   C17   D    
C80   H1    S    
C45   C75   A    
C53   O31   A    
C21   H26   S    
C6    H28   S    
C20   H25   S    
C72   C80   A    
C34   O21   A    
Cr4   O30   S    
C82   C83   A    
C58   O40   A    
Cr4   O8    S    
C50   H49   S    
C64   O3    A    
C87   O57   S    
Cr12  O60   S    
Cr5   O10   S    
C52   H51   S    
C58   O44   A    
C69   O7    A    
Cr1   O40   S    
C15   H19   S    
C87   O55   D    
C70   O8    A    
C55   O33   A    
Cr9   O56   S    
C88   H14   S    
Cr1   O14   S    
C7    H29   S    
C37   C60   S    
C85   O51   D    
C38   C59   S    
Cr8   O44   S    
C57   O35   A    
C40   O22   A    
C26   C29   D    
Cr9   O10   S    
C27   C28   S    
C62   O60   A    
C22   C28   D    
C11   H47   S    
C13   H48   S    
C54   O12   A    
C37   C46   D    
Cr12  O27   S    
Cr6   O11   S    
C73   C83   A    
C66   O5    A    
C36   C61   S    
Cr7   O34   S    
C1    O14   A    
C39   C48   D    
Cr11  O13   S    
