data_mof_unit_46968.cif
_audit_creation_date              2012-10-26T19:15:56-0400
_audit_creation_method            fapswitch 2.2
_symmetry_space_group_name_H-M    P1
_symmetry_Int_Tables_number       1
_space_group_crystal_system       triclinic
_cell_length_a                    7.778282
_cell_length_b                    9.097324
_cell_length_c                    17.122687
_cell_angle_alpha                 89.604246
_cell_angle_beta                  95.207067
_cell_angle_gamma                 90.020558
_cell_volume                      1206.5989396

loop_
_atom_site_label
_atom_site_type_symbol
_atom_type_description
_atom_site_fract_x
_atom_site_fract_y
_atom_site_fract_z
_atom_type_partial_charge
C1    C     C_R   0.499976 0.219993 0.500054 0.548789
C2    C     C_R   0.601347 0.533308 0.142378 -0.112434
C3    C     C_R   0.564569 0.491885 0.902360 0.225859
C4    C     C_R   0.443907 0.518781 0.096139 0.229271
C5    C     C_R   0.691732 0.416407 0.864238 0.033242
C6    C     C_R   0.289340 0.499865 0.132257 0.037580
C7    C     C_R   0.679767 0.412792 0.780940 -0.015323
C8    C     C_R   0.295247 0.487521 0.215314 -0.012357
C9    C     C_1   0.499994 0.065364 0.500076 -0.053371
C10   C     C_1   0.500050 0.934646 0.500064 -0.051436
C11   C     C_3   0.838219 0.338770 0.912323 -0.388257
C12   C     C_R   0.500044 0.780007 0.500027 0.555984
C13   C     C_3   0.118802 0.492198 0.081960 -0.386778
C14   C     C_3   0.808568 0.325972 0.738065 -0.369544
C15   C     C_3   0.131336 0.454961 0.254373 -0.367395
C16   C     C_R   0.523563 0.493881 0.651353 0.542323
C17   C     C_R   0.476001 0.500649 0.348145 0.544719
C18   C     C_R   0.542248 0.488981 0.737564 0.009233
C19   C     C_R   0.457253 0.504131 0.261111 0.004684
C20   C     C_R   0.418733 0.563038 0.776637 -0.178635
C21   C     C_R   0.607348 0.527031 0.223240 -0.178569
C22   C     C_R   0.429639 0.565264 0.857590 -0.112238
Cu1   Cu    Cu3+1 0.669080 0.500010 0.500000 1.003723
Cu2   Cu    Cu3+1 0.330920 0.499990 0.500000 1.002396
H1    H     H_    0.731596 0.540857 0.256364 0.134695
H2    H     H_    0.061522 0.381171 0.087043 0.123861
H3    H     H_    0.892101 0.251725 0.776201 0.119523
H4    H     H_    0.738968 0.254782 0.693202 0.142484
H5    H     H_    0.894801 0.402647 0.709417 0.162784
H6    H     H_    0.017316 0.429885 0.213388 0.108168
H7    H     H_    0.150861 0.356281 0.292664 0.157155
H8    H     H_    0.096190 0.551346 0.289012 0.157234
H9    H     H_    0.313698 0.621722 0.744197 0.133852
H10   H     H_    0.720734 0.551416 0.115896 0.130458
H11   H     H_    0.331921 0.625745 0.885180 0.139027
H12   H     H_    0.964017 0.380173 0.895356 0.125894
H13   H     H_    0.837424 0.355919 0.976220 0.150965
H14   H     H_    0.828947 0.218431 0.902516 0.131474
H15   H     H_    0.029543 0.576972 0.101254 0.121243
H16   H     H_    0.130018 0.513227 0.018816 0.153383
N1    N     N_1   0.076820 0.499970 0.500010 -0.088378
N2    N     N_1   0.923180 0.500030 0.499990 -0.087748
N3    N     N_2   0.574701 0.491088 0.985668 -0.258599
N4    N     N_2   0.436525 0.522996 0.013037 -0.259943
O1    O     O_R   0.642760 0.288400 0.500000 -0.498065
O2    O     O_R   0.357240 0.711600 0.500000 -0.493824
O3    O     O_R   0.357190 0.288380 0.500000 -0.495624
O4    O     O_R   0.642810 0.711620 0.500000 -0.492174
O5    O     O_R   0.658410 0.498660 0.613920 -0.508554
O6    O     O_R   0.341590 0.501340 0.386080 -0.512447
O7    O     O_R   0.372840 0.498650 0.613930 -0.503533
O8    O     O_R   0.627160 0.501350 0.386070 -0.504778

loop_
_geom_bond_atom_site_label_1
_geom_bond_atom_site_label_2
_ccdc_geom_bond_type
C17   O6    A    
C11   H14   S    
C2    C4    A    
N3    N4    D    
C15   H7    S    
C19   C21   A    
Cu1   O1    S    
C14   H3    S    
C5    C7    A    
N1    N2    T    
C16   O7    A    
C12   O4    A    
C7    C18   A    
Cu2   O2    S    
C2    H10   S    
Cu2   O7    S    
C22   H11   S    
C15   H8    S    
C6    C13   S    
Cu2   N1    S    
C1    O1    A    
Cu1   O8    S    
Cu1   N2    S    
C10   C12   S    
C2    C21   A    
C20   H9    S    
C3    N3    S    
C17   O8    A    
C16   C18   S    
C11   H12   S    
C17   C19   S    
C20   C22   A    
C5    C11   S    
C8    C15   S    
C18   C20   A    
Cu2   O6    S    
C13   H2    S    
Cu1   O5    S    
C8    C19   A    
C13   H15   S    
Cu1   Cu2   S    
C3    C5    A    
C1    C9    S    
C16   O5    A    
C15   H6    S    
C4    C6    A    
C9    C10   T    
C11   H13   S    
C21   H1    S    
C1    O3    A    
C3    C22   A    
C6    C8    A    
Cu1   O4    S    
C14   H5    S    
C14   H4    S    
Cu2   O3    S    
C7    C14   S    
C4    N4    S    
C13   H16   S    
C12   O2    A    
