data_mof_unit_30807.cif
_audit_creation_date              2012-12-10T17:51:28-0500
_audit_creation_method            fapswitch 2.2
_symmetry_space_group_name_H-M    P1
_symmetry_Int_Tables_number       1
_space_group_crystal_system       triclinic
_cell_length_a                    9.993525
_cell_length_b                    10.593899
_cell_length_c                    16.636677
_cell_angle_alpha                 92.803349
_cell_angle_beta                  86.120873
_cell_angle_gamma                 89.599269
_cell_volume                      1755.09953022

loop_
_atom_site_label
_atom_site_type_symbol
_atom_type_description
_atom_site_fract_x
_atom_site_fract_y
_atom_site_fract_z
_atom_type_partial_charge
Br1   Br    Br    0.105747 0.660321 0.812066 -0.451439
Br2   Br    Br    0.229098 0.756339 0.635168 -0.405996
Br3   Br    Br    0.170384 0.335360 0.357820 -0.516785
Br4   Br    Br    0.337457 0.207326 0.020593 -0.497668
C1    C     C_R   0.499845 0.738957 0.498337 0.927941
C2    C     C_R   0.529135 0.476762 0.259480 -0.050119
C3    C     C_R   0.439273 0.858176 0.352042 -0.171998
C4    C     C_R   0.482686 0.489324 0.652285 0.927282
C5    C     C_R   0.414036 0.919193 0.282080 -0.118238
C6    C     C_R   0.419536 0.050454 0.281320 -0.072495
C7    C     C_R   0.449200 0.121067 0.350725 -0.131711
C8    C     C_R   0.472914 0.060651 0.422405 0.092233
C9    C     C_R   0.469568 0.928561 0.422824 0.079538
C10   C     C_R   0.499778 0.871143 0.494124 -0.097157
C11   C     C_R   0.533912 0.940039 0.562905 -0.098992
C12   C     C_R   0.353243 0.416668 0.774311 -0.143449
C13   C     C_R   0.534799 0.069123 0.562920 -0.200823
C14   C     C_R   0.502802 0.128164 0.493874 -0.077140
C15   C     C_R   0.845637 0.619802 0.629925 0.635917
C16   C     C_R   0.500719 0.260865 0.498627 0.841159
C17   C     C_R   0.899375 0.631877 0.704376 -0.346610
C18   C     C_R   0.036070 0.618008 0.709247 0.167985
C19   C     C_R   0.117822 0.610065 0.637041 0.271336
C20   C     C_R   0.063829 0.557853 0.565098 -0.060533
C21   C     C_R   0.919974 0.559542 0.563585 -0.013299
C22   C     C_R   0.934988 0.440486 0.440445 -0.124915
C23   C     C_R   0.423248 0.454004 0.133686 -0.081036
C24   C     C_R   0.076890 0.438971 0.440616 0.321595
C25   C     C_R   0.518034 0.497208 0.346740 0.816652
C26   C     C_R   0.476774 0.438733 0.732488 -0.056728
C27   C     C_R   0.595531 0.394875 0.762630 -0.186698
C28   C     C_R   0.591467 0.337633 0.835660 -0.180172
C29   C     C_R   0.469484 0.328854 0.881680 0.128808
C30   C     C_R   0.349638 0.363813 0.849393 -0.090647
C31   C     C_R   0.415477 0.488088 0.215400 -0.185246
C32   C     C_R   0.651598 0.434802 0.220494 -0.190548
C33   C     C_R   0.659114 0.400986 0.138753 -0.148114
C34   C     C_R   0.544249 0.407170 0.095894 0.208707
C35   C     C_2   0.470548 0.312190 0.968381 0.240908
C36   C     C_2   0.556797 0.382925 0.009229 -0.299980
F1    F     F_    0.732702 0.686520 0.622070 -0.637812
H1    H     H_    0.692120 0.404373 0.729962 0.163589
H2    H     H_    0.837290 0.667074 0.756679 0.223075
H3    H     H_    0.320815 0.522624 0.244014 0.188409
H4    H     H_    0.740832 0.425385 0.253307 0.170565
H5    H     H_    0.633448 0.437444 0.977395 0.153290
H6    H     H_    0.254384 0.357198 0.883976 0.181263
H7    H     H_    0.335717 0.466061 0.099712 0.171994
H8    H     H_    0.259987 0.441659 0.749572 0.181801
H9    H     H_    0.684798 0.308144 0.858955 0.153686
H10   H     H_    0.754063 0.369217 0.108991 0.157996
H11   H     H_    0.557679 0.893610 0.616918 0.203763
H12   H     H_    0.435832 0.756172 0.349975 0.128667
H13   H     H_    0.391273 0.864407 0.228157 0.157285
H14   H     H_    0.401301 0.097701 0.226785 0.186225
H15   H     H_    0.454751 0.222616 0.347571 0.156181
H16   H     H_    0.558732 0.123334 0.617009 0.155211
H17   H     H_    0.886810 0.390341 0.392258 0.165405
N1    N     N_R   0.857140 0.501200 0.500750 -0.114232
N2    N     N_R   0.142740 0.501280 0.500770 -0.109476
O1    O     O_R   0.385310 0.683220 0.500000 -0.576269
O2    O     O_R   0.614640 0.683250 0.500010 -0.536257
O3    O     O_R   0.371780 0.500010 0.615800 -0.610096
O4    O     O_R   0.601110 0.500030 0.615800 -0.579236
O5    O     O_R   0.385360 0.316750 0.499990 -0.581214
O6    O     O_R   0.614690 0.316780 0.500000 -0.623727
O7    O     O_R   0.398890 0.499970 0.384200 -0.588215
O8    O     O_R   0.628220 0.499990 0.384200 -0.629163
Zn1   Zn    Zn3+2 0.346870 0.499980 0.499990 1.022136
Zn2   Zn    Zn3+2 0.653130 0.500020 0.500010 1.003632

loop_
_geom_bond_atom_site_label_1
_geom_bond_atom_site_label_2
_ccdc_geom_bond_type
C23   H7    S    
C34   C36   S    
C19   C20   A    
C33   C34   A    
C6    H14   S    
C27   H1    S    
O4    Zn2   S    
C25   O8    A    
C21   N1    A    
C5    C6    A    
C22   C24   A    
C27   C28   A    
C10   C11   A    
Br4   C35   S    
C20   N2    A    
C12   C30   A    
C4    C26   S    
C28   C29   A    
C30   H6    S    
C8    C14   A    
C29   C30   A    
C1    O1    A    
C32   H4    S    
O6    Zn2   S    
C11   H11   S    
C8    C9    A    
C36   H5    S    
C31   H3    S    
C22   H17   S    
C28   H9    S    
C1    C10   S    
C29   C35   S    
N2    Zn1   S    
C4    O4    A    
O5    Zn1   S    
C16   O6    A    
C32   C33   A    
C15   C17   A    
C2    C32   A    
C1    O2    A    
C13   C14   A    
C14   C16   S    
C24   N2    A    
C33   H10   S    
O3    Zn1   S    
C26   C27   A    
C15   C21   A    
C6    C7    A    
C3    H12   S    
N1    Zn2   S    
C12   C26   A    
C12   H8    S    
C35   C36   D    
C3    C5    A    
C16   O5    A    
C3    C9    A    
C2    C25   S    
C20   C21   A    
O2    Zn2   S    
O8    Zn2   S    
C4    O3    A    
C22   N1    A    
C2    C31   A    
O1    Zn1   S    
Br2   C19   S    
C11   C13   A    
C18   C19   A    
Br3   C24   S    
Br1   C18   S    
C25   O7    A    
C5    H13   S    
C23   C34   A    
C23   C31   A    
C17   C18   A    
C9    C10   A    
C17   H2    S    
C7    H15   S    
C15   F1    S    
C7    C8    A    
C13   H16   S    
O7    Zn1   S    
