data_mof_unit_56659.cif
_audit_creation_date              2013-03-05T15:57:39-0500
_audit_creation_method            fapswitch 2.2
_symmetry_space_group_name_H-M    P1
_symmetry_Int_Tables_number       1
_space_group_crystal_system       triclinic
_cell_length_a                    19.537213
_cell_length_b                    17.81604
_cell_length_c                    12.599581
_cell_angle_alpha                 89.491842
_cell_angle_beta                  97.844404
_cell_angle_gamma                 89.889105
_cell_volume                      4344.37712719

loop_
_atom_site_label
_atom_site_type_symbol
_atom_site_description
_atom_site_fract_x
_atom_site_fract_y
_atom_site_fract_z
_atom_type_partial_charge
O1    O     O_R   0.448200 0.076800 0.373930 -0.591125
O2    O     O_R   0.448200 0.923200 0.373930 -0.584495
O3    O     O_R   0.948200 0.576800 0.373930 -0.578242
O4    O     O_R   0.948200 0.423200 0.373930 -0.600853
O5    O     O_R   0.414750 0.076790 0.542400 -0.602510
O6    O     O_R   0.414750 0.923210 0.542400 -0.561671
O7    O     O_R   0.914750 0.576790 0.542400 -0.605954
O8    O     O_R   0.914750 0.423210 0.542400 -0.549091
C1    C     C_R   0.412566 0.104155 0.444600 0.919981
C2    C     C_R   0.411835 0.896017 0.445533 0.936700
C3    C     C_R   0.908462 0.600049 0.442168 0.932472
C4    C     C_R   0.911183 0.396885 0.444850 1.040822
Zn1   Zn    Zn3+2 0.522330 0.000000 0.387520 1.025380
Zn2   Zn    Zn3+2 0.022330 0.500000 0.387520 1.028155
Zn3   Zn    Zn3+2 0.477660 0.000000 0.612480 1.050833
Zn4   Zn    Zn3+2 0.977660 0.500000 0.612480 1.021515
O9    O     O_R   0.585240 0.923200 0.457600 -0.584260
O10   O     O_R   0.585240 0.076800 0.457600 -0.574942
O11   O     O_R   0.085240 0.423200 0.457600 -0.591828
O12   O     O_R   0.085240 0.576800 0.457600 -0.579844
O13   O     O_R   0.551780 0.923190 0.626070 -0.612941
O14   O     O_R   0.551780 0.076810 0.626070 -0.608027
O15   O     O_R   0.051780 0.423190 0.626070 -0.618005
O16   O     O_R   0.051780 0.576810 0.626070 -0.654705
C5    C     C_R   0.590742 0.898139 0.556120 0.915044
C6    C     C_R   0.592677 0.098669 0.557202 0.933402
C7    C     C_R   0.090602 0.399227 0.557291 0.961728
C8    C     C_R   0.090237 0.601175 0.556224 0.861069
C9    C     C_R   0.768277 0.133397 0.710622 0.335379
C10   C     C_R   0.650789 0.705820 0.655499 0.375870
C11   C     C_R   0.218535 0.718817 0.732460 0.383969
C12   C     C_R   0.223075 0.282988 0.731327 0.372669
H1    H     H_    0.676078 0.078581 0.745271 0.159288
H2    H     H_    0.597165 0.795696 0.722854 0.225008
H3    H     H_    0.125605 0.660124 0.755404 0.199846
H4    H     H_    0.137032 0.351239 0.762109 0.194304
C13   C     C_R   0.657831 0.137032 0.594188 -0.081447
C14   C     C_R   0.635474 0.831556 0.578866 -0.141295
C15   C     C_R   0.146237 0.652536 0.592014 -0.135709
C16   C     C_R   0.143161 0.343196 0.592926 -0.102018
C17   C     C_R   0.351073 0.806965 0.310560 0.423052
C18   C     C_R   0.339273 0.174969 0.301061 0.415953
C19   C     C_R   0.828082 0.335672 0.305214 0.485158
C20   C     C_R   0.869193 0.710606 0.326407 0.405288
C21   C     C_R   0.313004 0.740464 0.289320 -0.315613
C22   C     C_R   0.272672 0.201060 0.272998 -0.346487
C23   C     C_R   0.779245 0.279635 0.274716 -0.305213
C24   C     C_R   0.816602 0.759608 0.283872 -0.297695
C25   C     C_R   0.288595 0.701168 0.371817 0.444185
C26   C     C_R   0.230565 0.217772 0.352187 0.503667
C27   C     C_R   0.764896 0.225877 0.348691 0.445098
C28   C     C_R   0.756218 0.764178 0.330937 0.495480
C29   C     C_R   0.292630 0.733731 0.474307 -0.090395
C30   C     C_R   0.264020 0.228150 0.459989 -0.024106
C31   C     C_R   0.787570 0.236951 0.458304 -0.058187
C32   C     C_R   0.751015 0.722717 0.425301 -0.094473
C33   C     C_R   0.343943 0.786630 0.502420 -0.179419
C34   C     C_R   0.333115 0.204458 0.487142 -0.208645
C35   C     C_R   0.847135 0.279416 0.486119 -0.189340
C36   C     C_R   0.791092 0.657727 0.443787 -0.178446
C37   C     C_R   0.758117 0.198088 0.537950 0.019240
C38   C     C_R   0.705569 0.740581 0.498818 0.022973
C39   C     C_R   0.249821 0.712964 0.550678 0.012204
C40   C     C_R   0.231607 0.261389 0.541727 0.015347
C41   C     C_R   0.798887 0.178739 0.635952 -0.161108
C42   C     C_R   0.688665 0.684967 0.571430 -0.122563
C43   C     C_R   0.266141 0.734884 0.659332 -0.135374
C44   C     C_R   0.261979 0.257437 0.651031 -0.169501
C45   C     C_R   0.331593 0.766936 0.691574 0.242572
C46   C     C_R   0.332655 0.238282 0.674634 0.191003
C47   C     C_R   0.868563 0.203683 0.651895 0.193175
C48   C     C_R   0.704874 0.609550 0.550076 0.241494
C49   C     C_R   0.372235 0.789394 0.612361 0.289112
C50   C     C_R   0.369549 0.218807 0.590466 0.247423
C51   C     C_R   0.891634 0.256893 0.579971 0.228106
C52   C     C_R   0.759416 0.595148 0.488012 0.252144
C53   C     C_R   0.688255 0.178614 0.519442 -0.080358
C54   C     C_R   0.679436 0.813126 0.504384 -0.147820
C55   C     C_R   0.188495 0.675505 0.518254 -0.151160
C56   C     C_R   0.174313 0.307354 0.515451 -0.054091
C57   C     C_R   0.697789 0.115419 0.690160 -0.255883
C58   C     C_R   0.626309 0.779851 0.659635 -0.165243
C59   C     C_R   0.160430 0.675061 0.698715 -0.266652
C60   C     C_R   0.164437 0.327402 0.701159 -0.216834
C61   C     C_R   0.368926 0.828845 0.419112 -0.157536
C62   C     C_R   0.364279 0.165222 0.410217 -0.182680
C63   C     C_R   0.862450 0.335961 0.412112 -0.148319
C64   C     C_R   0.855258 0.655732 0.403114 -0.168504
H5    H     H_    0.657200 0.194261 0.444443 0.178242
H6    H     H_    0.692354 0.855904 0.449388 0.243680
H7    H     H_    0.173014 0.664021 0.434321 0.216452
H8    H     H_    0.157182 0.322391 0.433747 0.248771
H9    H     H_    0.303693 0.716329 0.210464 0.204616
H10   H     H_    0.253636 0.202648 0.188706 0.177278
H11   H     H_    0.756004 0.273396 0.192461 0.187838
H12   H     H_    0.822404 0.793654 0.214041 0.206959
C65   C     C_R   0.639778 0.023244 0.125895 0.145105
C66   C     C_R   0.142210 0.496645 0.125750 0.172807
H13   H     H_    0.664150 0.023290 0.924166 0.220466
H14   H     H_    0.167557 0.501806 0.923180 0.216970
N1    N     N_R   0.552340 1.000000 0.237260 -0.186803
N2    N     N_R   0.052340 0.500000 0.237260 -0.190230
C67   C     C_R   0.378411 0.999587 0.762002 0.637967
C68   C     C_R   0.879381 0.500222 0.769324 0.594668
C69   C     C_R   0.351520 0.006672 0.858456 -0.328703
C70   C     C_R   0.856117 0.532509 0.858827 -0.467983
C71   C     C_R   0.395224 0.015894 0.955146 0.445481
C72   C     C_R   0.901731 0.542800 0.953129 0.415435
C73   C     C_R   0.468082 0.013063 0.954366 -0.029115
C74   C     C_R   0.972572 0.524526 0.952809 -0.043557
C75   C     C_R   0.492701 0.006980 0.853484 0.140163
C76   C     C_R   0.994992 0.510581 0.851506 0.080845
C77   C     C_R   0.518175 0.014692 0.048062 -0.023710
C78   C     C_R   0.022099 0.518007 0.046993 -0.006137
C79   C     C_R   0.589223 0.022400 0.036362 -0.008382
C80   C     C_R   0.093064 0.509078 0.035746 -0.005515
C81   C     C_R   0.610201 0.021225 0.935159 -0.172218
C82   C     C_R   0.113787 0.507598 0.934169 -0.132876
C83   C     C_R   0.562922 0.009115 0.846503 -0.139389
C84   C     C_R   0.065387 0.505849 0.844247 -0.169154
C85   C     C_R   0.501835 0.004381 0.152682 -0.119639
C86   C     C_R   0.003918 0.513583 0.151633 -0.094148
C87   C     C_R   0.621001 0.005126 0.225901 0.354644
C88   C     C_R   0.120328 0.488743 0.226019 0.328721
N3    N     N_R   0.448170 1.000000 0.762060 -0.143875
N4    N     N_R   0.948170 0.500000 0.762060 -0.154272
H15   H     H_    0.450315 0.995475 0.169981 0.228008
H16   H     H_    0.951647 0.516142 0.167632 0.210521
H17   H     H_    0.296313 0.007488 0.857230 0.164156
H18   H     H_    0.802112 0.545733 0.856980 0.221095
H19   H     H_    0.582702 0.000554 0.772797 0.188969
H20   H     H_    0.084823 0.497735 0.770264 0.204659
N5    N     N_R   0.709920 0.041779 0.114815 0.219939
O17   O     O_R   0.724352 0.110716 0.091541 -0.346525
O18   O     O_R   0.753445 0.988922 0.099404 -0.367720
N6    N     N_R   0.214289 0.491506 0.115810 0.211077
O19   O     O_R   0.248912 0.552517 0.103422 -0.360486
O20   O     O_R   0.241461 0.426749 0.098800 -0.353844
O21   O     O_3   0.335455 0.987419 0.666559 -0.607577
C89   C     C_3   0.282215 0.042040 0.646458 0.057124
H21   H     H_    0.285072 0.067010 0.566251 0.169601
H22   H     H_    0.286795 0.089590 0.703911 0.153779
C90   C     C_3   0.211534 0.004657 0.642754 -0.394098
H23   H     H_    0.206085 0.960676 0.580119 0.236749
H24   H     H_    0.206999 0.977256 0.720963 0.252433
C91   C     C_3   0.153301 0.062041 0.617201 -0.812437
H25   H     H_    0.156935 0.105748 0.680088 0.289195
H26   H     H_    0.102627 0.033455 0.614132 0.282536
H27   H     H_    0.156126 0.089346 0.538275 0.262006
O22   O     O_3   0.834408 0.465898 0.690186 -0.577027
C92   C     C_3   0.788472 0.416266 0.734807 0.163691
H28   H     H_    0.758149 0.386071 0.667489 0.232332
H29   H     H_    0.750599 0.447648 0.775536 0.190040
C93   C     C_3   0.824754 0.356472 0.811843 -0.505745
H30   H     H_    0.861408 0.324736 0.770032 0.276102
H31   H     H_    0.854657 0.382432 0.883266 0.204895
C94   C     C_3   0.771954 0.303814 0.851270 -0.817019
H32   H     H_    0.738527 0.335310 0.900089 0.255527
H33   H     H_    0.799070 0.258868 0.901947 0.304318
H34   H     H_    0.738972 0.277929 0.782694 0.273132
O23   O     O_3   0.367513 0.041575 0.044020 -0.608790
C95   C     C_3   0.313542 0.994905 0.071148 0.111094
H35   H     H_    0.326010 0.980091 0.157344 0.204830
H36   H     H_    0.307846 0.940809 0.026830 0.155459
C96   C     C_3   0.244972 0.037947 0.056877 -0.321423
H37   H     H_    0.250981 0.089469 0.105491 0.244731
H38   H     H_    0.230186 0.055086 0.972040 0.249188
C97   C     C_3   0.187006 0.990736 0.092514 -0.929106
H39   H     H_    0.179526 0.938834 0.044133 0.302396
H40   H     H_    0.138100 0.023505 0.081083 0.267405
H41   H     H_    0.199360 0.975318 0.178650 0.261244
O24   O     O_3   0.878872 0.578792 0.039441 -0.612873
C98   C     C_3   0.820564 0.542165 0.072471 0.091885
H42   H     H_    0.833888 0.525395 0.157728 0.230359
H43   H     H_    0.804584 0.490000 0.027592 0.115810
C99   C     C_3   0.758955 0.595551 0.065252 -0.335305
H44   H     H_    0.769952 0.639316 0.127347 0.219061
H45   H     H_    0.750674 0.623428 0.985404 0.264738
C100  C     C_3   0.693550 0.552910 0.083023 -0.839387
H46   H     H_    0.681541 0.509371 0.020709 0.279551
H47   H     H_    0.648921 0.591738 0.077870 0.250623
H48   H     H_    0.700352 0.525616 0.163330 0.295572
N7    N     N_R   0.361410 0.764161 0.802037 0.256663
O25   O     O_R   0.370171 0.699766 0.851511 -0.360579
O26   O     O_R   0.376029 0.825773 0.854924 -0.393233
N8    N     N_R   0.369744 0.251979 0.778854 0.263713
O27   O     O_R   0.393579 0.196109 0.840330 -0.353834
O28   O     O_R   0.380796 0.320495 0.811559 -0.340097
N9    N     N_R   0.917461 0.173304 0.736525 0.273007
O29   O     O_R   0.966087 0.128754 0.713522 -0.315358
O30   O     O_R   0.920730 0.199586 0.832974 -0.383283
N10   N     N_R   0.653714 0.553395 0.561609 0.263809
O31   O     O_R   0.590806 0.563435 0.514510 -0.372362
O32   O     O_R   0.666223 0.498835 0.630434 -0.325888
N11   N     N_R   0.807771 0.100002 0.803086 0.230442
O33   O     O_R   0.848753 0.044108 0.790459 -0.321323
O34   O     O_R   0.788846 0.110325 0.896888 -0.346146
N12   N     N_R   0.638996 0.654015 0.739042 0.229430
O35   O     O_R   0.583054 0.658995 0.784068 -0.325525
O36   O     O_R   0.688701 0.610403 0.782286 -0.429229
N13   N     N_R   0.225466 0.750164 0.837920 0.229862
O37   O     O_R   0.211624 0.709416 0.918505 -0.355093
O38   O     O_R   0.231741 0.822434 0.849546 -0.403028
N14   N     N_R   0.241495 0.263698 0.842316 0.220871
O39   O     O_R   0.253866 0.193991 0.870278 -0.431115
O40   O     O_R   0.236127 0.313264 0.915973 -0.369137
O41   O     O_3   0.371575 0.852103 0.229422 -0.665922
C101  C     C_3   0.391464 0.811993 0.141825 0.121355
H49   H     H_    0.407520 0.854175 0.084707 0.174771
H50   H     H_    0.347286 0.782366 0.095759 0.196285
C102  C     C_3   0.453930 0.760476 0.175528 -0.454435
H51   H     H_    0.498387 0.796080 0.207313 0.230881
H52   H     H_    0.443854 0.720666 0.239814 0.232946
C103  C     C_3   0.471548 0.714614 0.081315 -0.765962
H53   H     H_    0.427335 0.678050 0.051150 0.311755
H54   H     H_    0.516711 0.677972 0.107966 0.233440
H55   H     H_    0.483954 0.752101 0.015709 0.300288
O42   O     O_3   0.374143 0.147793 0.220963 -0.597881
C104  C     C_3   0.424631 0.200416 0.199055 0.129201
H56   H     H_    0.464618 0.169379 0.162144 0.190175
H57   H     H_    0.451928 0.226892 0.272960 0.140515
C105  C     C_3   0.392754 0.260576 0.119317 -0.331637
H58   H     H_    0.364542 0.233021 0.047568 0.313669
H59   H     H_    0.355407 0.295196 0.156873 0.241774
C106  C     C_3   0.448065 0.312082 0.084651 -0.761208
H60   H     H_    0.477081 0.339939 0.155447 0.236589
H61   H     H_    0.423242 0.356028 0.029213 0.314169
H62   H     H_    0.484563 0.279476 0.042557 0.280123
O43   O     O_3   0.845459 0.388804 0.231775 -0.616328
C107  C     C_3   0.866501 0.355051 0.139737 0.061179
H63   H     H_    0.880358 0.400316 0.086036 0.133490
H64   H     H_    0.823342 0.324827 0.092236 0.149724
C108  C     C_3   0.931605 0.306139 0.165292 -0.427362
H65   H     H_    0.977356 0.342994 0.183803 0.228531
H66   H     H_    0.929188 0.269940 0.236232 0.226091
C109  C     C_3   0.940476 0.255805 0.071038 -0.824422
H67   H     H_    0.892058 0.224845 0.044083 0.297085
H68   H     H_    0.980793 0.213300 0.096492 0.260632
H69   H     H_    0.955386 0.289901 0.003651 0.288386
O44   O     O_3   0.930487 0.711048 0.282755 -0.594960
C110  C     C_3   0.982432 0.747715 0.353002 0.125451
H70   H     H_    0.032870 0.722365 0.341415 0.176393
H71   H     H_    0.977246 0.739534 0.439526 0.091723
C111  C     C_3   0.984155 0.831645 0.325778 -0.358068
H72   H     H_    0.989828 0.839002 0.239720 0.251841
H73   H     H_    0.934919 0.858519 0.340167 0.227394
C112  C     C_3   0.044068 0.870706 0.393946 -0.933687
H74   H     H_    0.038821 0.865108 0.480350 0.273393
H75   H     H_    0.043904 0.931313 0.372509 0.272175
H76   H     H_    0.094148 0.845857 0.379509 0.264034
O45   O     O_3   0.746395 0.155139 0.310481 -0.605575
C113  C     C_3   0.803641 0.104723 0.334052 0.224406
H77   H     H_    0.788114 0.050328 0.298636 0.254101
H78   H     H_    0.816376 0.094099 0.421625 0.141806
C114  C     C_3   0.868786 0.128350 0.285969 -0.440688
H79   H     H_    0.854205 0.148072 0.202043 0.281563
H80   H     H_    0.894769 0.174369 0.334430 0.214196
C115  C     C_3   0.920240 0.063599 0.287459 -0.840007
H81   H     H_    0.935548 0.042912 0.370779 0.263835
H82   H     H_    0.967186 0.083286 0.254945 0.256014
H83   H     H_    0.897196 0.016740 0.237167 0.295031
O46   O     O_3   0.698615 0.797895 0.274621 -0.572052
C116  C     C_3   0.658094 0.743511 0.213329 0.094425
H84   H     H_    0.604968 0.746905 0.233750 0.163328
H85   H     H_    0.674749 0.684108 0.230701 0.103415
C117  C     C_3   0.657165 0.758741 0.093106 -0.381351
H86   H     H_    0.710365 0.753858 0.072162 0.225956
H87   H     H_    0.624464 0.716355 0.046631 0.208939
C118  C     C_3   0.628852 0.836172 0.059390 -0.697215
H88   H     H_    0.578013 0.845852 0.086929 0.231772
H89   H     H_    0.622662 0.841707 0.970726 0.242361
H90   H     H_    0.665995 0.878928 0.093935 0.308672
O47   O     O_3   0.273380 0.625997 0.356204 -0.598333
C119  C     C_3   0.328455 0.581681 0.410019 0.144501
H91   H     H_    0.308916 0.549833 0.475819 0.201895
H92   H     H_    0.374215 0.614388 0.447480 0.133745
C120  C     C_3   0.353868 0.526792 0.331310 -0.302611
H93   H     H_    0.310069 0.492663 0.293636 0.311598
H94   H     H_    0.375295 0.558841 0.267330 0.235030
C121  C     C_3   0.409345 0.474008 0.387098 -0.820301
H95   H     H_    0.454706 0.506528 0.424215 0.298110
H96   H     H_    0.426448 0.435024 0.327552 0.268880
H97   H     H_    0.388422 0.440332 0.449935 0.282305
O48   O     O_3   0.158371 0.223053 0.329752 -0.643902
C122  C     C_3   0.128922 0.195270 0.228806 0.071167
H98   H     H_    0.075093 0.178203 0.235823 0.166469
H99   H     H_    0.154522 0.142780 0.207111 0.132673
C123  C     C_3   0.125885 0.256864 0.141692 -0.386223
H100  H     H_    0.081869 0.294973 0.148185 0.220637
H101  H     H_    0.172821 0.292424 0.152969 0.288997
C124  C     C_3   0.118580 0.223275 0.029607 -0.783196
H102  H     H_    0.166803 0.193339 0.018102 0.287194
H103  H     H_    0.108888 0.268752 0.968520 0.297242
H104  H     H_    0.075262 0.182758 0.017388 0.262910
N15   N     N_R   0.445820 0.793886 0.639390 0.226772
O49   O     O_R   0.473791 0.823764 0.728621 -0.360537
O50   O     O_R   0.485054 0.762023 0.577304 -0.429194
N16   N     N_R   0.444123 0.222814 0.605260 0.226316
O51   O     O_R   0.475867 0.252015 0.530496 -0.421371
O52   O     O_R   0.480642 0.200576 0.694056 -0.316908
N17   N     N_R   0.963431 0.276312 0.593012 0.211461
O53   O     O_R   0.995273 0.293114 0.687294 -0.361633
O54   O     O_R   0.999478 0.262875 0.515683 -0.445119
N18   N     N_R   0.769664 0.521266 0.446233 0.217656
O55   O     O_R   0.751838 0.461090 0.494251 -0.347704
O56   O     O_R   0.786862 0.514379 0.350617 -0.446548
N19   N     N_R   0.674019 0.982153 0.310430 0.203104
O57   O     O_R   0.685468 0.018918 0.399173 -0.405379
O58   O     O_R   0.721973 0.936562 0.288719 -0.399354
N20   N     N_R   0.169165 0.464155 0.314504 0.216236
O59   O     O_R   0.186861 0.508221 0.394819 -0.374638
O60   O     O_R   0.205798 0.404105 0.305466 -0.444396

loop_
_geom_bond_atom_site_label_1
_geom_bond_atom_site_label_2
_geom_bond_distance
_ccdc_geom_bond_type
C116  C117  1.534148 S    
C114  H80   1.108432 S    
C2    C61   1.476668 S    
C10   C58   1.405916 A    
C94   H32   1.110887 S    
N11   O34   1.300077 A    
C31   C35   1.395084 A    
C90   C91   1.527393 S    
C119  C120  1.528403 S    
C40   C56   1.386967 A    
N13   O37   1.301430 A    
C16   C60   1.396295 A    
C124  H102  1.108959 S    
O10   C6    1.306497 A    
C121  H97   1.111193 S    
C65   N5    1.435159 S    
C48   C52   1.429256 A    
C21   H9    1.078729 S    
C82   C84   1.373706 A    
C68   C70   1.399855 A    
O23   C95   1.420130 S    
C36   C64   1.418094 A    
H1    C57   1.079911 S    
O45   C113  1.430575 S    
N15   O50   1.300614 A    
C39   C55   1.386419 A    
N17   O53   1.301186 A    
C54   H6    1.078804 S    
C66   C88   1.393960 A    
N10   O32   1.297245 A    
C69   C71   1.400121 A    
C53   H5    1.084857 S    
O5    C1    1.316371 A    
C96   H37   1.105576 S    
C112  H74   1.110938 S    
Zn1   O10   1.973365 S    
C40   C44   1.424340 A    
C87   N19   1.436748 S    
O48   C122  1.416407 S    
C124  H103  1.110524 S    
C89   H22   1.114980 S    
C119  H91   1.110799 S    
C122  C123  1.540484 S    
C81   C83   1.367816 A    
C5    C14   1.474676 S    
C103  H54   1.109265 S    
Zn2   N2    2.056944 S    
C104  H57   1.116785 S    
C33   C49   1.420948 A    
C90   H23   1.111958 S    
C109  H68   1.105063 S    
C66   N6    1.433527 S    
C106  H62   1.111000 S    
C11   C59   1.398122 A    
C109  H67   1.109987 S    
C27   C31   1.407372 A    
C107  C108  1.536186 S    
C75   C83   1.387244 A    
C110  H70   1.111343 S    
C18   C22   1.379628 A    
C92   C93   1.539587 S    
C68   O22   1.383450 S    
C28   O46   1.379375 S    
N9    O30   1.299651 A    
O2    Zn1   1.985744 S    
O13   C5    1.320671 A    
C33   C61   1.425804 A    
O6    Zn3   1.973243 S    
C24   C28   1.393393 A    
C97   H39   1.110936 S    
C107  H63   1.105716 S    
Zn3   O14   1.985724 S    
C42   C48   1.416359 A    
C71   O23   1.389238 S    
C37   C53   1.397909 A    
C101  H49   1.110881 S    
C79   C81   1.391913 A    
C52   N18   1.445621 S    
Zn4   O16   1.985724 S    
C46   C50   1.406692 A    
C83   H19   1.065490 S    
C92   H28   1.109937 S    
C16   C56   1.379417 A    
C45   C49   1.413205 A    
N12   O35   1.301547 A    
C18   C62   1.404404 A    
Zn3   N3    2.044564 S    
O15   C7    1.301253 A    
C51   N17   1.433261 S    
O11   C7    1.313573 A    
C111  H72   1.111521 S    
C7    C16   1.454214 S    
C95   H36   1.116274 S    
C120  H94   1.111745 S    
C73   C77   1.427471 A    
C12   C44   1.423094 A    
C100  H48   1.110064 S    
C11   C43   1.423444 A    
C97   H40   1.110557 S    
C100  H47   1.106531 S    
C114  C115  1.526989 S    
C25   O47   1.382358 S    
C93   H31   1.109027 S    
C94   H33   1.107490 S    
C118  H88   1.109579 S    
C14   C58   1.396426 A    
C98   H43   1.114985 S    
C71   C73   1.425609 A    
C13   C57   1.397428 A    
C96   H38   1.108531 S    
H14   C82   1.083021 S    
N16   O52   1.300335 A    
N13   O38   1.301294 A    
N2    C88   1.369480 A    
C20   O44   1.384310 S    
C17   C21   1.408281 A    
O7    C3    1.315239 A    
C91   H26   1.110369 S    
C97   H41   1.111083 S    
N18   O55   1.297756 A    
C12   C60   1.398328 A    
C39   C43   1.420965 A    
O5    Zn3   1.959033 S    
C38   C42   1.412614 A    
C28   C32   1.409696 A    
O41   C101  1.417649 S    
C123  C124  1.527466 S    
Zn2   O12   1.973365 S    
C116  H84   1.104590 S    
C124  H104  1.108971 S    
O1    C1    1.300244 A    
C89   H21   1.108959 S    
C93   C94   1.525248 S    
N6    O20   1.300737 A    
C80   C82   1.394474 A    
C108  H65   1.110221 S    
C104  H56   1.111060 S    
C76   C84   1.393199 A    
C118  H89   1.110614 S    
H3    C59   1.083466 S    
C103  H53   1.109916 S    
N6    O19   1.300798 A    
C23   C27   1.386049 A    
C14   C54   1.396635 A    
C105  C106  1.525148 S    
C20   C64   1.421288 A    
C98   H42   1.108428 S    
C13   C53   1.389676 A    
C36   C52   1.422068 A    
C95   H35   1.109459 S    
N1    C85   1.351492 A    
N19   O57   1.294044 A    
Zn1   N1    2.056944 S    
C26   O48   1.402981 S    
N18   O56   1.300869 A    
C110  H71   1.116843 S    
C15   C55   1.384470 A    
C12   N14   1.434166 S    
O1    Zn1   1.979780 S    
C115  H82   1.110556 S    
N7    O25   1.300574 A    
C75   N3    1.352281 A    
O43   C107  1.420188 S    
C34   C62   1.403632 A    
C67   O21   1.388269 S    
C1    C62   1.462006 S    
H13   C81   1.082319 S    
C91   H27   1.111356 S    
C66   C80   1.398022 A    
C102  H51   1.108519 S    
C22   H10   1.076411 S    
C21   C25   1.386240 A    
C3    C64   1.467815 S    
O8    C4    1.312420 A    
C106  H60   1.110974 S    
C120  C121  1.526289 S    
C112  H75   1.110599 S    
C77   C85   1.408543 A    
C67   C69   1.394840 A    
N1    C87   1.371471 A    
N15   O49   1.300006 A    
C47   N9    1.432573 S    
C89   C90   1.529442 S    
C88   N20   1.429882 S    
C56   H8    1.069698 S    
C108  H66   1.103841 S    
C35   C63   1.426373 A    
C93   H30   1.103062 S    
C10   C42   1.423877 A    
N17   O54   1.301291 A    
C117  H87   1.108549 S    
C45   N7    1.433950 S    
C113  C114  1.540181 S    
C9    C41   1.427345 A    
C65   C87   1.394940 A    
C101  H50   1.109465 S    
C99   H44   1.109874 S    
C102  H52   1.109845 S    
N14   O40   1.301090 A    
C9    C57   1.404221 A    
Zn4   O15   1.979761 S    
C72   O24   1.391797 S    
C69   H17   1.076673 S    
N5    O17   1.300558 A    
C32   C38   1.405795 A    
C50   N16   1.445383 S    
C115  H83   1.110923 S    
O4    C4    1.308274 A    
C107  H64   1.108548 S    
C70   H18   1.077744 S    
N8    O28   1.300840 A    
C114  H79   1.110659 S    
O2    C2    1.312165 A    
N20   O60   1.300477 A    
C35   C51   1.422944 A    
C26   C30   1.438361 A    
C17   C61   1.422676 A    
O24   C98   1.422753 S    
C34   C50   1.421433 A    
C113  H78   1.111924 S    
C91   H25   1.111300 S    
C30   C34   1.409493 A    
C98   C99   1.525085 S    
C90   H24   1.110255 S    
C111  H73   1.111213 S    
C74   C78   1.428868 A    
N20   O59   1.295979 A    
C105  H59   1.111046 S    
C29   C33   1.389738 A    
C24   H12   1.083004 S    
C4    C63   1.469530 S    
C10   N12   1.436223 S    
C84   H20   1.064329 S    
C95   C96   1.530649 S    
C76   N4    1.365820 A    
Zn2   O11   1.959156 S    
C38   C54   1.394591 A    
C44   C46   1.412746 A    
O7    Zn4   1.959033 S    
O16   C8    1.304755 A    
C121  H96   1.110721 S    
C27   O45   1.384114 S    
C18   O42   1.382794 S    
C117  C118  1.520526 S    
O6    C2    1.311164 A    
C122  H98   1.110142 S    
C78   C80   1.421570 A    
O21   C89   1.418745 S    
C19   O43   1.392469 S    
C6    C13   1.466869 S    
N16   O51   1.301800 A    
O46   C116  1.418181 S    
O3    Zn2   1.979780 S    
C94   H34   1.109374 S    
C96   C97   1.525578 S    
O12   C8    1.311054 A    
C65   C79   1.394470 A    
C22   C26   1.410418 A    
C8    C15   1.454024 S    
C111  C112  1.526919 S    
Zn1   O9    1.959156 S    
C49   N15   1.434036 S    
C110  C111  1.532628 S    
O9    C5    1.305878 A    
N10   O31   1.301113 A    
C99   C100  1.529360 S    
C73   C75   1.424013 A    
C115  H81   1.111023 S    
N19   O58   1.297411 A    
C19   C63   1.420635 A    
C121  H95   1.110603 S    
C122  H99   1.113302 S    
N2    C86   1.354017 A    
C9    N11   1.430782 S    
C123  H100  1.106846 S    
C104  C105  1.534117 S    
C47   C51   1.421622 A    
C29   C39   1.406010 A    
O42   C104  1.414726 S    
Zn3   O13   1.979761 S    
C70   C72   1.398222 A    
H4    C60   1.083477 S    
C101  C102  1.536044 S    
C25   C29   1.412795 A    
O4    Zn2   1.985744 S    
C31   C37   1.401562 A    
C99   H45   1.109682 S    
O44   C110  1.416931 S    
C106  H61   1.110170 S    
C85   H15   1.070401 S    
C72   C74   1.421743 A    
C119  H92   1.119522 S    
C92   H29   1.109314 S    
C37   C41   1.414528 A    
C86   H16   1.068553 S    
N9    O29   1.301089 A    
C55   H7    1.080946 S    
C108  C109  1.522820 S    
C74   C76   1.428483 A    
C103  H55   1.110683 S    
C11   N13   1.435335 S    
C19   C23   1.401847 A    
O3    C3    1.304148 A    
C117  H86   1.110164 S    
C46   N8    1.433718 S    
C15   C59   1.397694 A    
N11   O33   1.300965 A    
C78   C86   1.413047 A    
C32   C36   1.396381 A    
C41   C47   1.421340 A    
C102  C103  1.524079 S    
C68   N4    1.359469 A    
N14   O39   1.301033 A    
C30   C40   1.414106 A    
N7    O26   1.301057 A    
O8    Zn4   1.973243 S    
O14   C6    1.314333 A    
C118  H90   1.103678 S    
N5    O18   1.301077 A    
C100  H46   1.111043 S    
C23   H11   1.080005 S    
O22   C92   1.426665 S    
N12   O36   1.299515 A    
C17   O41   1.396672 S    
H2    C58   1.079599 S    
C116  H85   1.117563 S    
C43   C45   1.411192 A    
N8    O27   1.301402 A    
C120  H93   1.106138 S    
C67   N3    1.362837 A    
Zn4   N4    2.044564 S    
C105  H58   1.111283 S    
C48   N10   1.435986 S    
C109  H69   1.110760 S    
C20   C24   1.393924 A    
C112  H76   1.111182 S    
C123  H101  1.109367 S    
C113  H77   1.096434 S    
C77   C79   1.422536 A    
O47   C119  1.424421 S    
