data_mof_unit_28287.cif
_audit_creation_date              2012-10-26T19:04:18-0400
_audit_creation_method            fapswitch 2.2
_symmetry_space_group_name_H-M    P1
_symmetry_Int_Tables_number       1
_space_group_crystal_system       triclinic
_cell_length_a                    14.776685
_cell_length_b                    15.833654
_cell_length_c                    9.594977
_cell_angle_alpha                 89.631332
_cell_angle_beta                  88.706543
_cell_angle_gamma                 89.703882
_cell_volume                      2244.27957251

loop_
_atom_site_label
_atom_site_type_symbol
_atom_type_description
_atom_site_fract_x
_atom_site_fract_y
_atom_site_fract_z
_atom_type_partial_charge
C1    C     C_R   0.377768 0.883965 0.502269 0.528400
C2    C     C_R   0.741315 0.199761 0.393737 -0.151201
C3    C     C_R   0.257627 0.315459 0.415362 -0.147304
C4    C     C_R   0.241315 0.699761 0.393737 -0.151201
C5    C     C_R   0.679189 0.809329 0.498423 0.007306
C6    C     C_R   0.673846 0.194780 0.497358 0.003423
C7    C     C_R   0.179189 0.309329 0.498423 0.007306
C8    C     C_R   0.173846 0.694780 0.497358 0.003423
C9    C     C_R   0.665962 0.996692 0.139244 -0.093633
C10   C     C_R   0.165962 0.496692 0.139244 -0.093633
C11   C     C_R   0.747457 0.992904 0.064640 -0.151666
C12   C     C_R   0.378907 0.116665 0.500777 0.530072
C13   C     C_R   0.247457 0.492904 0.064640 -0.151666
C14   C     C_R   0.747721 0.992026 0.920880 -0.130411
C15   C     C_R   0.247721 0.492026 0.920880 -0.130411
C16   C     C_R   0.666591 0.995661 0.850797 -0.075260
C17   C     C_R   0.166591 0.495661 0.850797 -0.075260
C18   C     C_R   0.581821 0.997440 0.922601 0.160023
C19   C     C_R   0.081821 0.497440 0.922601 0.160023
C20   C     C_R   0.581685 0.997768 0.072241 0.160619
C21   C     C_R   0.081685 0.497768 0.072241 0.160619
C22   C     C_R   0.422255 0.004053 0.076673 0.013481
C23   C     C_R   0.877768 0.383965 0.502269 0.528400
C24   C     C_R   0.922255 0.504053 0.076673 0.013481
C25   C     C_R   0.615035 0.121540 0.498871 0.528365
C26   C     C_R   0.617430 0.880363 0.499358 0.527006
C27   C     C_R   0.115035 0.621540 0.498871 0.528365
C28   C     C_R   0.117430 0.380363 0.499358 0.527006
C29   C     C_R   0.422394 0.004998 0.928887 0.007338
C30   C     C_R   0.922394 0.504998 0.928887 0.007338
C31   C     C_R   0.208404 0.097655 0.661792 -0.121866
C32   C     C_R   0.234085 0.870673 0.731577 -0.124580
C33   C     C_R   0.708404 0.597655 0.661791 -0.121866
C34   C     C_R   0.878907 0.616665 0.500777 0.530073
C35   C     C_R   0.734085 0.370673 0.731577 -0.124580
C36   C     C_R   0.127774 0.089765 0.739133 -0.128202
C37   C     C_R   0.163511 0.867322 0.830193 -0.137020
C38   C     C_R   0.627774 0.589765 0.739132 -0.128202
C39   C     C_R   0.663511 0.367322 0.830193 -0.137020
C40   C     C_R   0.562923 0.653713 0.736071 0.001160
C41   C     C_R   0.590655 0.314145 0.810552 0.003186
C42   C     C_R   0.062923 0.153713 0.736071 0.001160
C43   C     C_R   0.090655 0.814145 0.810552 0.003186
C44   C     C_R   0.578769 0.725847 0.655411 -0.103867
C45   C     C_R   0.321441 0.251438 0.416894 -0.143014
C46   C     C_R   0.591510 0.260181 0.696579 -0.098056
C47   C     C_R   0.078769 0.225847 0.655412 -0.103867
C48   C     C_R   0.091510 0.760180 0.696579 -0.098056
C49   C     C_R   0.661446 0.736411 0.580034 0.015612
C50   C     C_R   0.667169 0.256425 0.603125 0.018978
C51   C     C_R   0.161446 0.236411 0.580034 0.015612
C52   C     C_R   0.167169 0.756425 0.603125 0.018978
C53   C     C_R   0.227073 0.171188 0.582619 0.025527
C54   C     C_R   0.237155 0.816551 0.614498 0.030739
C55   C     C_R   0.727073 0.671188 0.582618 0.025527
C56   C     C_R   0.305420 0.762717 0.397213 -0.148788
C57   C     C_R   0.737155 0.316551 0.614498 0.030739
C58   C     C_R   0.307969 0.180431 0.501830 0.002203
C59   C     C_R   0.305955 0.820347 0.507238 -0.003504
C60   C     C_R   0.807969 0.680431 0.501830 0.002203
C61   C     C_R   0.805955 0.320347 0.507238 -0.003504
C62   C     C_1   0.479391 0.645418 0.815120 0.187636
C63   C     C_1   0.514640 0.314995 0.907265 0.190524
C64   C     C_1   0.979391 0.145418 0.815121 0.187636
C65   C     C_1   0.014640 0.814995 0.907265 0.190524
C66   C     C_R   0.821441 0.751438 0.416894 -0.143014
C67   C     C_R   0.805420 0.262717 0.397213 -0.148788
C68   C     C_R   0.757627 0.815459 0.415362 -0.147304
Cu1   Cu    Cu3+1 0.499990 0.000000 0.640660 0.910372
Cu2   Cu    Cu3+1 0.999990 0.500000 0.640660 0.910372
Cu3   Cu    Cu3+1 0.500010 0.000000 0.359340 0.935581
Cu4   Cu    Cu3+1 0.000010 0.500000 0.359340 0.935581
H1    H     H_    0.382763 0.258161 0.353690 0.145573
H2    H     H_    0.858895 0.511079 0.876487 0.095733
H3    H     H_    0.255030 0.045328 0.662892 0.122368
H4    H     H_    0.284766 0.916296 0.751511 0.134475
H5    H     H_    0.755030 0.545328 0.662891 0.122368
H6    H     H_    0.784766 0.416296 0.751510 0.134475
H7    H     H_    0.115222 0.033347 0.800185 0.115418
H8    H     H_    0.164560 0.908516 0.919920 0.106099
H9    H     H_    0.615222 0.533347 0.800184 0.115418
H10   H     H_    0.664559 0.408516 0.919919 0.106099
H11   H     H_    0.525100 0.772326 0.650842 0.153910
H12   H     H_    0.357189 0.764356 0.315398 0.148606
H13   H     H_    0.531784 0.222537 0.681074 0.152613
H14   H     H_    0.025100 0.272326 0.650842 0.153910
H15   H     H_    0.031784 0.722537 0.681074 0.152613
H16   H     H_    0.770521 0.871057 0.351612 0.117128
H17   H     H_    0.745964 0.153317 0.311356 0.131600
H18   H     H_    0.270521 0.371057 0.351612 0.117128
H19   H     H_    0.245964 0.653317 0.311356 0.131601
H20   H     H_    0.358479 0.007452 0.134019 0.120460
H21   H     H_    0.858479 0.507452 0.134019 0.120460
H22   H     H_    0.672814 0.999379 0.249064 0.173770
H23   H     H_    0.882763 0.758161 0.353690 0.145573
H24   H     H_    0.172814 0.499379 0.249064 0.173770
H25   H     H_    0.810902 0.991441 0.118979 0.135081
H26   H     H_    0.310902 0.491441 0.118979 0.135081
H27   H     H_    0.857189 0.264356 0.315399 0.148606
H28   H     H_    0.811358 0.989503 0.862824 0.153973
H29   H     H_    0.311358 0.489503 0.862824 0.153973
H30   H     H_    0.674588 0.997877 0.740558 0.184914
H31   H     H_    0.174588 0.497877 0.740558 0.184914
H32   H     H_    0.358895 0.011079 0.876487 0.095733
N1    N     N_R   0.501200 0.000000 0.147910 -0.242687
N2    N     N_R   0.001200 0.500000 0.147910 -0.242687
N3    N     N_R   0.501270 1.000000 0.852040 -0.244154
N4    N     N_R   0.001270 0.500000 0.852040 -0.244154
N5    N     N_1   0.412281 0.639212 0.878754 -0.315229
N6    N     N_1   0.453547 0.315668 0.984892 -0.309718
N7    N     N_1   0.912282 0.139213 0.878755 -0.315229
N8    N     N_1   0.953547 0.815668 0.984893 -0.309718
O1    O     O_R   0.409820 0.909830 0.618810 -0.520378
O2    O     O_R   0.590170 0.909830 0.618760 -0.525486
O3    O     O_R   0.090170 0.590170 0.618760 -0.525636
O4    O     O_R   0.090170 0.409830 0.618760 -0.525486
O5    O     O_R   0.590190 0.090180 0.381190 -0.518029
O6    O     O_R   0.590190 0.909820 0.381190 -0.512898
O7    O     O_R   0.090190 0.590180 0.381190 -0.518029
O8    O     O_R   0.090190 0.409820 0.381190 -0.512898
O9    O     O_R   0.409820 0.090170 0.618810 -0.514472
O10   O     O_R   0.909820 0.409830 0.618810 -0.520378
O11   O     O_R   0.909820 0.590170 0.618810 -0.514472
O12   O     O_R   0.409840 0.909830 0.381240 -0.497494
O13   O     O_R   0.409840 0.090170 0.381240 -0.494720
O14   O     O_R   0.909840 0.409830 0.381240 -0.497494
O15   O     O_R   0.909840 0.590170 0.381240 -0.494720
O16   O     O_R   0.590170 0.090170 0.618760 -0.525636

loop_
_geom_bond_atom_site_label_1
_geom_bond_atom_site_label_2
_ccdc_geom_bond_type
C44   C49   A    
C33   C55   A    
C66   C68   A    
C34   O11   A    
C22   C29   A    
C36   C42   A    
C4    C8    A    
C44   H11   S    
Cu1   N3    S    
C39   C41   A    
Cu1   O1    S    
C3    H18   S    
C19   C21   A    
C25   O16   A    
C3    C7    A    
C1    C59   S    
C30   H2    S    
C11   C14   A    
C6    C25   S    
C40   C62   S    
C45   H1    S    
C13   H26   S    
Cu1   Cu3   S    
C61   C67   A    
C18   N3    A    
C28   O4    A    
Cu2   O11   S    
C12   O9    A    
Cu1   O16   S    
C34   O15   A    
C41   C46   A    
C10   C13   A    
Cu1   O9    S    
C43   C48   A    
C8    C52   A    
C40   C44   A    
C21   N2    A    
C67   H27   S    
C4    H19   S    
C12   C58   S    
C19   N4    A    
C60   C66   A    
C55   C60   A    
C4    C56   A    
C34   C60   S    
C5    C49   A    
C2    C6    A    
C1    O1    A    
C5    C68   A    
C32   C54   A    
C52   C54   A    
C56   H12   S    
C23   O10   A    
C54   C59   A    
C10   C21   A    
C45   C58   A    
C37   H8    S    
Cu1   O2    S    
Cu3   O5    S    
Cu4   O15   S    
C47   H14   S    
Cu3   O12   S    
C2    C67   A    
C28   O8    A    
C64   N7    T    
C47   C51   A    
C12   O13   A    
Cu2   O4    S    
C49   C55   A    
C3    C45   A    
C15   H29   S    
C7    C28   S    
C29   H32   S    
Cu4   O14   S    
C51   C53   A    
C37   C43   A    
C2    H17   S    
C35   C39   A    
C26   O2    A    
C65   N8    T    
Cu2   O10   S    
C9    C20   A    
C31   H3    S    
C10   H24   S    
C43   C65   S    
Cu4   O8    S    
C48   H15   S    
C32   C37   A    
C31   C53   A    
C57   C61   A    
C9    C11   A    
C23   O14   A    
C16   H30   S    
Cu4   N2    S    
Cu3   N1    S    
C38   H9    S    
C68   H16   S    
C14   C16   A    
C24   N2    A    
C41   C63   S    
C42   C64   S    
C20   N1    A    
C23   C61   S    
C15   C17   A    
C6    C50   A    
Cu3   O6    S    
C30   N4    A    
C50   C57   A    
C29   N3    A    
C26   O6    A    
C39   H10   S    
C36   H7    S    
C25   O5    A    
C32   H4    S    
C53   C58   A    
C14   H28   S    
C27   O7    A    
Cu2   O3    S    
C22   N1    A    
C46   C50   A    
C35   H6    S    
C33   C38   A    
C56   C59   A    
C11   H25   S    
C35   C57   A    
C46   H13   S    
C63   N6    T    
C13   C15   A    
C17   H31   S    
C1    O12   A    
C7    C51   A    
Cu2   N4    S    
C24   H21   S    
C38   C40   A    
C33   H5    S    
C62   N5    T    
Cu4   O7    S    
C17   C19   A    
C18   C20   A    
C42   C47   A    
C24   C30   A    
C5    C26   S    
C48   C52   A    
C16   C18   A    
C8    C27   S    
C22   H20   S    
C31   C36   A    
Cu3   O13   S    
Cu2   Cu4   S    
C9    H22   S    
C66   H23   S    
C27   O3    A    
