data_mof_unit_18641.cif
_audit_creation_date              2012-12-10T17:08:48-0500
_audit_creation_method            fapswitch 2.2
_symmetry_space_group_name_H-M    P1
_symmetry_Int_Tables_number       1
_space_group_crystal_system       triclinic
_cell_length_a                    27.750936
_cell_length_b                    11.029476
_cell_length_c                    9.808643
_cell_angle_alpha                 111.366547
_cell_angle_beta                  97.63588
_cell_angle_gamma                 91.103238
_cell_volume                      2763.61803217

loop_
_atom_site_label
_atom_site_type_symbol
_atom_type_description
_atom_site_fract_x
_atom_site_fract_y
_atom_site_fract_z
_atom_type_partial_charge
C1    C     C_R   0.496482 0.253942 0.440406 0.861417
C2    C     C_R   0.503518 0.746058 0.559594 0.861445
C3    C     C_R   0.102389 0.488312 0.517020 -0.179312
C4    C     C_R   0.897609 0.511693 0.482961 -0.179321
C5    C     C_R   0.122169 0.378534 0.419731 -0.138003
C6    C     C_R   0.877829 0.621464 0.580263 -0.138005
C7    C     C_R   0.091067 0.267006 0.331266 0.369110
C8    C     C_R   0.908931 0.732993 0.668731 0.369107
C9    C     C_R   0.133836 0.593195 0.620767 -0.133010
C10   C     C_R   0.866162 0.406817 0.379202 -0.133002
C11   C     C_R   0.354863 0.500003 0.507079 -0.289913
C12   C     C_R   0.645136 0.500000 0.492921 -0.289915
C13   C     C_R   0.968580 0.398113 0.389872 0.020863
C14   C     C_R   0.031418 0.601897 0.610105 0.020853
C15   C     C_R   0.980141 0.613510 0.591288 0.019043
C16   C     C_R   0.019856 0.386497 0.408694 0.019046
C17   C     C_R   0.948887 0.506857 0.489578 -0.094303
C18   C     C_R   0.051111 0.493150 0.510402 -0.094304
C19   C     C_R   0.936640 0.310617 0.266494 0.445441
C20   C     C_R   0.063359 0.689399 0.733476 0.445448
C21   C     C_R   0.886124 0.306111 0.269959 0.286499
C22   C     C_R   0.113874 0.693908 0.730003 0.286509
C23   C     C_R   0.407628 0.500636 0.502161 0.899974
C24   C     C_R   0.592371 0.499365 0.497839 0.900001
C25   C     C_R   0.040722 0.267064 0.340299 0.374050
C26   C     C_R   0.959275 0.732940 0.659688 0.374051
C27   C     C_2   0.494559 0.114354 0.406717 -0.319974
C28   C     C_2   0.505442 0.885646 0.593283 -0.319966
C29   C     C_2   0.500912 0.069633 0.516472 -0.128675
C30   C     C_2   0.499089 0.930367 0.483527 -0.128675
C31   C     C_2   0.504227 0.510535 0.081187 -0.056162
C32   C     C_2   0.495773 0.489465 0.918813 -0.056152
C33   C     C_R   0.172938 0.381712 0.418954 0.657249
C34   C     C_R   0.827061 0.618280 0.581047 0.657254
C35   C     C_R   0.184522 0.588893 0.617739 0.681486
C36   C     C_R   0.815476 0.411118 0.382229 0.681476
C37   C     C_R   0.274220 0.562430 0.438559 0.432521
C38   C     C_R   0.725775 0.437500 0.561351 0.432545
C39   C     C_R   0.324704 0.571487 0.439935 0.233380
C40   C     C_R   0.675292 0.428453 0.559986 0.233389
C41   C     C_R   0.334448 0.426386 0.579438 0.247120
C42   C     C_R   0.665553 0.573681 0.420635 0.247123
C43   C     C_R   0.283279 0.417977 0.576963 0.321346
C44   C     C_R   0.716722 0.582089 0.423107 0.321347
C45   C     C_R   0.253923 0.488895 0.510005 0.096525
C46   C     C_R   0.746075 0.511101 0.489981 0.096472
Cu1   Cu    Cu3+1 0.508480 0.521810 0.644910 0.984393
Cu2   Cu    Cu3+1 0.491520 0.478190 0.355090 0.984386
H1    H     H_    0.512061 0.952249 0.708344 0.155302
H2    H     H_    0.487940 0.047751 0.291656 0.155305
H3    H     H_    0.467384 0.417172 0.846068 0.186788
H4    H     H_    0.532617 0.582827 0.153932 0.186775
H5    H     H_    0.547970 0.622524 0.934215 0.204257
H6    H     H_    0.452030 0.377477 0.065785 0.204258
H7    H     H_    0.492479 0.864018 0.368275 0.184321
H8    H     H_    0.507523 0.135982 0.631725 0.184322
N1    N     N_R   0.202433 0.486729 0.514812 -0.420200
N2    N     N_R   0.797565 0.513271 0.485172 -0.420222
N3    N     N_2   0.478780 0.445430 0.137360 -0.283714
N4    N     N_2   0.521220 0.554570 0.862640 -0.283717
O1    O     O_R   0.504520 0.332330 0.577400 -0.580294
O2    O     O_R   0.495480 0.667670 0.422600 -0.580291
O3    O     O_R   0.490210 0.295500 0.332650 -0.577302
O4    O     O_R   0.509790 0.704500 0.667350 -0.577302
O5    O     O_R   0.437420 0.518430 0.622370 -0.535132
O6    O     O_R   0.562580 0.481570 0.377630 -0.535161
O7    O     O_R   0.423110 0.481600 0.377610 -0.578143
O8    O     O_R   0.576890 0.518400 0.622390 -0.578148
O9    O     O_2   0.193020 0.281401 0.323401 -0.477641
O10   O     O_2   0.806979 0.718576 0.676629 -0.477619
O11   O     O_2   0.783916 0.315543 0.282667 -0.486556
O12   O     O_2   0.216082 0.684477 0.717286 -0.486574
O13   O     O_3   0.365279 0.363872 0.650636 -0.715944
H9    H     H_    0.350991 0.359351 0.736095 0.333559
O14   O     O_3   0.634724 0.636257 0.349510 -0.715938
H10   H     H_    0.649015 0.640861 0.264090 0.333566
O15   O     O_3   0.260581 0.340914 0.636903 -0.687651
H11   H     H_    0.280395 0.266243 0.632329 0.348516
O16   O     O_3   0.739423 0.659213 0.363244 -0.687615
H12   H     H_    0.719615 0.733915 0.367906 0.348527
O17   O     O_3   0.110283 0.153577 0.247475 -0.542756
C47   C     C_3   0.099560 0.137097 0.096757 -0.181145
H13   H     H_    0.114144 0.222917 0.076667 0.155316
H14   H     H_    0.059704 0.118484 0.056473 0.179624
H15   H     H_    0.117467 0.050704 0.030534 0.222208
O18   O     O_3   0.889713 0.846419 0.752527 -0.542755
C48   C     C_3   0.900444 0.862906 0.903245 -0.181141
H16   H     H_    0.940300 0.881527 0.943516 0.179626
H17   H     H_    0.885866 0.777086 0.923346 0.155328
H18   H     H_    0.882536 0.949296 0.969473 0.222195
O19   O     O_3   0.657098 0.345556 0.621074 -0.665393
H19   H     H_    0.622302 0.319969 0.579842 0.328163
O20   O     O_3   0.342895 0.654332 0.378780 -0.665410
H20   H     H_    0.377684 0.679977 0.420054 0.328184
O21   O     O_3   0.755299 0.364482 0.621548 -0.529128
C49   C     C_3   0.768088 0.435671 0.774739 -0.172421
H21   H     H_    0.735443 0.452697 0.832172 0.197616
H22   H     H_    0.788610 0.530164 0.796787 0.141370
H23   H     H_    0.792293 0.377856 0.822715 0.201960
O22   O     O_3   0.244691 0.635375 0.378270 -0.529153
C50   C     C_3   0.231922 0.564117 0.225091 -0.172439
H24   H     H_    0.211425 0.469597 0.203080 0.141407
H25   H     H_    0.264573 0.547135 0.167689 0.197655
H26   H     H_    0.207699 0.621853 0.177049 0.201935
O23   O     O_3   0.857141 0.204421 0.162693 -0.698292
H27   H     H_    0.842337 0.155424 0.215671 0.362994
O24   O     O_3   0.142856 0.795612 0.837252 -0.698287
H28   H     H_    0.157661 0.844592 0.784258 0.362995
O25   O     O_3   0.955295 0.237619 0.139728 -0.700443
H29   H     H_    0.928570 0.191284 0.058286 0.366814
O26   O     O_3   0.044705 0.762400 0.860245 -0.700440
H30   H     H_    0.071432 0.808732 0.941684 0.366813
O27   O     O_3   0.012331 0.150844 0.296797 -0.688885
H31   H     H_    0.033010 0.075955 0.270924 0.361128
O28   O     O_3   0.987663 0.849163 0.703181 -0.688877
H32   H     H_    0.966982 0.924049 0.729055 0.361125

loop_
_geom_bond_atom_site_label_1
_geom_bond_atom_site_label_2
_ccdc_geom_bond_type
C48   H16   S    
O20   H20   S    
C27   C29   D    
C8    C26   A    
O13   H9    S    
C14   C18   A    
O21   C49   S    
C31   H4    S    
O17   C47   S    
O15   H11   S    
C45   N1    S    
C42   O14   S    
C50   H24   S    
C19   C21   A    
C36   N2    A    
C9    C22   A    
C31   N3    D    
O28   H32   S    
C49   H23   S    
C40   O19   S    
C3    C18   A    
C23   O7    A    
C26   O28   S    
C39   O20   S    
C12   C42   A    
Cu1   N4    S    
C31   C32   S    
C44   C46   A    
C5    C33   A    
C38   O21   S    
O24   H28   S    
C34   O10   S    
C27   H2    S    
C24   O6    A    
C1    C27   S    
C50   H25   S    
C46   N2    S    
C41   C43   A    
C22   O24   S    
C42   C44   A    
C1    O3    A    
H5    N4    S    
C2    O4    A    
H6    N3    S    
C19   O25   S    
C10   C21   A    
C13   C19   A    
C14   C20   A    
C36   O11   S    
C4    C6    A    
Cu1   O4    S    
C5    C7    A    
O18   C48   S    
Cu2   O3    S    
C6    C8    A    
C6    C34   A    
C49   H22   S    
C12   C40   A    
O14   H10   S    
C32   H3    S    
C29   C30   S    
C3    C9    A    
C25   O27   S    
C20   O26   S    
C28   H1    S    
Cu2   O2    S    
Cu1   Cu2   S    
C49   H21   S    
C11   C39   A    
C43   C45   A    
C4    C17   A    
C7    O17   S    
C20   C22   A    
C35   O12   S    
C50   H26   S    
C47   H14   S    
C48   H17   S    
C48   H18   S    
C32   N4    D    
C37   C45   A    
Cu1   O8    S    
O19   H19   S    
Cu2   N3    S    
C34   N2    A    
O27   H31   S    
C30   H7    S    
C16   C25   A    
C15   C17   A    
C33   N1    A    
O26   H30   S    
C44   O16   S    
C3    C5    A    
C1    O1    A    
Cu1   O1    S    
C10   C36   A    
C15   C26   A    
C29   H8    S    
C33   O9    S    
C43   O15   S    
C47   H15   S    
O23   H27   S    
C12   C24   S    
C7    C25   A    
C13   C17   A    
C35   N1    A    
C23   O5    A    
C28   C30   D    
C37   C39   A    
O25   H29   S    
C38   C40   A    
C11   C23   S    
O22   C50   S    
C11   C41   A    
C8    O18   S    
Cu2   O7    S    
C38   C46   A    
C24   O8    A    
C41   O13   S    
O16   H12   S    
C16   C18   A    
C47   H13   S    
C13   C16   A    
C9    C35   A    
C14   C15   A    
C2    C28   S    
Cu2   O6    S    
C4    C10   A    
Cu1   O5    S    
C37   O22   S    
C21   O23   S    
C2    O2    A    
