data_mof_unit_49575.cif
_audit_creation_date              2012-12-10T17:14:45-0500
_audit_creation_method            fapswitch 2.2
_symmetry_space_group_name_H-M    P1
_symmetry_Int_Tables_number       1
_space_group_crystal_system       triclinic
_cell_length_a                    10.638459
_cell_length_b                    13.013069
_cell_length_c                    11.670295
_cell_angle_alpha                 99.86076
_cell_angle_beta                  93.105901
_cell_angle_gamma                 90.358922
_cell_volume                      1589.2195882

loop_
_atom_site_label
_atom_site_type_symbol
_atom_type_description
_atom_site_fract_x
_atom_site_fract_y
_atom_site_fract_z
_atom_type_partial_charge
C1    C     C_R   0.497529 0.299137 0.478618 0.813196
C2    C     C_R   0.502471 0.700864 0.521383 0.813188
C3    C     C_R   0.520527 0.139463 0.563398 -0.287208
C4    C     C_R   0.479440 0.860539 0.436612 -0.287214
C5    C     C_R   0.516417 0.031243 0.555263 0.084122
C6    C     C_R   0.483530 0.968760 0.444753 0.084114
C7    C     C_R   0.380346 0.403012 0.022908 -0.343423
C8    C     C_R   0.619654 0.596987 0.977092 -0.343424
C9    C     C_R   0.391933 0.412123 0.144919 0.087940
C10   C     C_R   0.608067 0.587877 0.855080 0.087942
C11   C     C_R   0.551575 0.541863 0.156422 0.013250
C12   C     C_R   0.448425 0.458137 0.843578 0.013251
C13   C     C_R   0.543443 0.535211 0.033772 0.071785
C14   C     C_R   0.456558 0.464788 0.966228 0.071784
C15   C     C_R   0.259348 0.499334 0.501030 0.797147
C16   C     C_R   0.740652 0.500665 0.498970 0.797143
C17   C     C_3   0.043501 0.494295 0.607708 0.229627
C18   C     C_3   0.956499 0.505704 0.392292 0.229629
C19   C     C_3   0.957068 0.411533 0.530962 -0.208088
C20   C     C_3   0.042931 0.588466 0.469038 -0.208097
C21   C     C_3   0.877112 0.500712 0.496896 -0.061653
C22   C     C_3   0.122888 0.499287 0.503104 -0.061655
C23   C     C_3   0.962032 0.583446 0.574680 -0.207514
C24   C     C_3   0.037968 0.416552 0.425320 -0.207508
C25   C     C_R   0.506253 0.814254 0.533906 -0.099937
C26   C     C_R   0.493735 0.185749 0.466101 -0.099944
C27   C     C_R   0.455477 0.015595 0.344798 0.154281
C28   C     C_R   0.544455 0.984411 0.655222 0.154293
C29   C     C_R   0.461879 0.124572 0.357920 -0.190820
C30   C     C_R   0.538103 0.875432 0.642092 -0.190810
Cu1   Cu    Cu3+1 0.509400 0.507730 0.615930 0.925927
Cu2   Cu    Cu3+1 0.490600 0.492270 0.384070 0.925925
H1    H     H_    0.919288 0.339441 0.556355 0.135803
H2    H     H_    0.080711 0.660558 0.443643 0.135805
H3    H     H_    0.928404 0.651358 0.635755 0.133714
H4    H     H_    0.071596 0.348640 0.364246 0.133714
H5    H     H_    0.454971 0.810651 0.354409 0.157955
H6    H     H_    0.545009 0.189352 0.645596 0.157962
H7    H     H_    0.559022 0.836655 0.715452 0.168139
H8    H     H_    0.440995 0.163351 0.284558 0.168148
H9    H     H_    0.382296 0.403926 0.790692 0.112719
H10   H     H_    0.617705 0.596073 0.209308 0.112721
H11   H     H_    0.667115 0.635849 0.812232 0.117819
H12   H     H_    0.332884 0.364151 0.187768 0.117823
H13   H     H_    0.312373 0.348119 0.973435 0.136118
H14   H     H_    0.687627 0.651881 0.026565 0.136114
N1    N     N_R   0.523540 0.519360 0.790140 -0.178599
N2    N     N_R   0.476460 0.480640 0.209860 -0.178600
O1    O     O_R   0.506670 0.354460 0.582000 -0.589013
O2    O     O_R   0.493330 0.645540 0.418000 -0.589010
O3    O     O_R   0.490800 0.341410 0.386200 -0.594340
O4    O     O_R   0.509200 0.658590 0.613800 -0.594334
O5    O     O_R   0.324790 0.506500 0.597880 -0.597588
O6    O     O_R   0.675210 0.493500 0.402120 -0.597589
O7    O     O_R   0.308910 0.493440 0.402080 -0.580455
O8    O     O_R   0.691090 0.506560 0.597920 -0.580456
C31   C     C_3   0.094172 0.486716 0.730975 -0.390085
C32   C     C_3   0.987671 0.482184 0.812409 -0.842403
H15   H     H_    0.931788 0.554620 0.820000 0.249580
H16   H     H_    0.924712 0.413852 0.779717 0.256152
H17   H     H_    0.028218 0.474365 0.900030 0.238510
H18   H     H_    0.151074 0.415137 0.727834 0.194191
H19   H     H_    0.155609 0.555654 0.765351 0.213818
C33   C     C_3   0.905829 0.513279 0.269024 -0.390092
C34   C     C_3   0.012332 0.517784 0.187587 -0.842407
H20   H     H_    0.075305 0.586108 0.220271 0.256159
H21   H     H_    0.068196 0.445339 0.180007 0.249577
H22   H     H_    0.971790 0.525599 0.099962 0.238512
H23   H     H_    0.844377 0.444347 0.234656 0.213824
H24   H     H_    0.848942 0.584866 0.272156 0.194188
C35   C     C_3   0.418877 0.948750 0.226396 -0.407793
C36   C     C_3   0.387458 0.007279 0.125582 -0.866704
H25   H     H_    0.305891 0.059020 0.144960 0.248192
H26   H     H_    0.470315 0.053490 0.108337 0.253820
H27   H     H_    0.361720 0.950127 0.045502 0.246294
H28   H     H_    0.497664 0.895592 0.200432 0.202662
H29   H     H_    0.334570 0.900565 0.235630 0.202871
C37   C     C_3   0.580971 0.051265 0.773638 -0.407902
C38   C     C_3   0.612220 0.992753 0.874493 -0.866730
H30   H     H_    0.529313 0.946539 0.891622 0.253878
H31   H     H_    0.693817 0.941026 0.855229 0.248193
H32   H     H_    0.637858 0.049912 0.954598 0.246288
H33   H     H_    0.665322 0.099415 0.764475 0.202897
H34   H     H_    0.502189 0.104448 0.799519 0.202691

loop_
_geom_bond_atom_site_label_1
_geom_bond_atom_site_label_2
_ccdc_geom_bond_type
C16   C21   S    
C27   C29   A    
C18   C21   S    
Cu1   O4    S    
C4    C25   A    
C31   H18   S    
C17   C23   S    
C18   C24   S    
C7    H13   S    
C19   C21   S    
C36   H27   S    
C35   H28   S    
C32   H16   S    
C11   H10   S    
C2    O2    A    
C37   H33   S    
C15   C22   S    
C6    C27   A    
C3    H6    S    
C34   H21   S    
C33   H24   S    
Cu1   O8    S    
C28   C37   S    
Cu2   O7    S    
C20   H2    S    
C32   H17   S    
Cu1   N1    S    
C13   C14   A    
Cu2   N2    S    
C11   N2    A    
Cu1   O1    S    
C12   N1    A    
Cu2   O6    S    
C31   H19   S    
C8    H14   S    
C7    C14   A    
C36   H26   S    
C19   H1    S    
C38   H31   S    
C37   C38   S    
C32   H15   S    
C15   O7    A    
C16   O8    A    
Cu2   O3    S    
C12   H9    S    
C5    C28   A    
Cu1   Cu2   S    
C20   C23   S    
C34   H22   S    
C24   H4    S    
C33   H23   S    
Cu1   O5    S    
C1    O3    A    
Cu2   O2    S    
C2    O4    A    
C26   C29   A    
C4    C6    A    
C12   C14   A    
C23   H3    S    
C21   C23   S    
C1    C26   S    
C22   C24   S    
C15   O5    A    
C35   H29   S    
C27   C35   S    
C25   C30   A    
C7    C9    A    
C9    H12   S    
C10   H11   S    
C3    C26   A    
C20   C22   S    
C36   H25   S    
C3    C5    A    
C38   H32   S    
C17   C22   S    
C33   C34   S    
C28   C30   A    
C19   C24   S    
C35   C36   S    
C11   C13   A    
C18   C33   S    
C31   C32   S    
C5    C6    A    
C29   H8    S    
C17   C19   S    
C30   H7    S    
C2    C25   S    
C18   C20   S    
C16   O6    A    
C38   H30   S    
C8    C13   A    
C37   H34   S    
C4    H5    S    
C9    N2    A    
C8    C10   A    
C34   H20   S    
C10   N1    A    
C1    O1    A    
C17   C31   S    
