data_mof_unit_56053.cif
_audit_creation_date              2013-03-05T15:54:37-0500
_audit_creation_method            fapswitch 2.2
_symmetry_space_group_name_H-M    P1
_symmetry_Int_Tables_number       1
_space_group_crystal_system       triclinic
_cell_length_a                    14.054247
_cell_length_b                    14.038333
_cell_length_c                    29.9698
_cell_angle_alpha                 96.807188
_cell_angle_beta                  96.893009
_cell_angle_gamma                 61.407963
_cell_volume                      5141.69450318

loop_
_atom_site_label
_atom_site_type_symbol
_atom_site_description
_atom_site_fract_x
_atom_site_fract_y
_atom_site_fract_z
_atom_type_partial_charge
O1    O     O_R   0.688580 0.499770 0.460490 -0.547545
O2    O     O_R   0.480400 0.672610 0.462660 -0.537833
C1    C     C_R   0.385676 0.711296 0.442230 0.819214
O3    O     O_R   0.315310 0.685650 0.451800 -0.547576
O4    O     O_R   0.346220 0.474990 0.446280 -0.535615
C2    C     C_R   0.398753 0.380885 0.426613 0.796248
O5    O     O_R   0.492270 0.312460 0.441630 -0.547828
O6    O     O_R   0.669740 0.350480 0.455640 -0.533293
C3    C     C_R   0.710968 0.405115 0.442377 0.777136
O7    O     O_R   0.691150 0.501150 0.557860 -0.526280
O8    O     O_R   0.482790 0.673890 0.552920 -0.514358
C4    C     C_R   0.389664 0.711658 0.568087 0.803853
O9    O     O_R   0.317880 0.687030 0.549170 -0.558364
O10   O     O_R   0.348600 0.476260 0.536540 -0.535822
C5    C     C_R   0.400943 0.381921 0.551881 0.830856
O11   O     O_R   0.494840 0.313840 0.539010 -0.535717
O12   O     O_R   0.672120 0.351750 0.545910 -0.524259
C6    C     C_R   0.713606 0.407373 0.568340 0.803242
Cr1   Cr    Cr6+3 0.581000 0.584320 0.508140 0.989007
Cr2   Cr    Cr6+3 0.339110 0.576430 0.496080 0.934764
Cr3   Cr    Cr6+3 0.579910 0.339270 0.495810 0.964804
O13   O     O_3   0.500010 0.500010 0.500010 -0.338262
C7    C     C_1   0.365285 0.362765 0.381055 -0.157122
C8    C     C_R   0.238410 0.431834 0.270455 0.014606
C9    C     C_R   0.231407 0.426683 0.222735 0.371461
C10   C     C_R   0.399738 0.255389 0.222092 -0.192385
C11   C     C_R   0.406380 0.259319 0.268811 -0.135661
C12   C     C_R   0.326930 0.346561 0.293088 0.059520
C13   C     C_R   0.313196 0.338398 0.198993 -0.031445
C14   C     C_1   0.302761 0.324089 0.150781 0.075385
C15   C     C_1   0.344737 0.352723 0.341289 -0.014816
C16   C     C_1   0.291897 0.304484 0.110972 -0.085318
H1    H     H_    0.461590 0.186432 0.203841 0.184026
H2    H     H_    0.474580 0.194546 0.286156 0.169080
H3    H     H_    0.748513 0.528359 0.393328 0.165644
C17   C     C_R   0.764976 0.369389 0.399266 -0.133890
C18   C     C_R   0.797432 0.263755 0.377526 0.098903
C19   C     C_R   0.807603 0.248824 0.330059 0.099342
C20   C     C_R   0.796070 0.336493 0.306780 0.050112
C21   C     C_R   0.784521 0.433699 0.330599 0.085578
C22   C     C_R   0.766877 0.449669 0.376233 -0.211733
C23   C     C_R   0.798666 0.411690 0.152922 0.283928
C24   C     C_R   0.837330 0.399993 0.110482 0.254390
C25   C     C_R   0.857844 0.216028 0.099199 0.321356
C26   C     C_R   0.821885 0.226741 0.142481 -0.016990
C27   C     C_R   0.800976 0.321987 0.170254 -0.111931
C28   C     C_1   0.794193 0.324883 0.217998 0.087074
C29   C     C_1   0.794360 0.328545 0.258274 -0.027456
C30   C     C_R   0.876806 0.298270 0.085126 -0.350861
H4    H     H_    0.152545 0.884676 0.092710 0.241700
H5    H     H_    0.194553 0.811392 0.392111 0.186189
C31   C     C_R   0.361733 0.777554 0.403592 -0.165204
C32   C     C_R   0.443722 0.793072 0.388517 -0.237268
C33   C     C_R   0.429112 0.837713 0.347259 0.350806
C34   C     C_R   0.331207 0.864454 0.320415 -0.150935
C35   C     C_R   0.242767 0.863528 0.338054 0.362692
C36   C     C_R   0.259833 0.818264 0.379440 -0.255032
C37   C     C_R   0.238409 0.859230 0.157609 0.348599
C38   C     C_R   0.224558 0.879545 0.112178 -0.214732
C39   C     C_R   0.398821 0.879839 0.116896 0.002995
C40   C     C_R   0.409361 0.867547 0.163819 0.352626
C41   C     C_R   0.327297 0.861146 0.184054 -0.182209
C42   C     C_1   0.329614 0.865951 0.232383 0.204796
C43   C     C_1   0.330017 0.868674 0.272634 0.198108
C44   C     C_R   0.298841 0.898416 0.092169 -0.177140
H6    H     H_    0.520909 0.766598 0.408105 0.186253
H7    H     H_    0.131570 0.438582 0.894565 0.184046
C45   C     C_R   0.361995 0.358362 0.591111 -0.198382
C46   C     C_R   0.438334 0.273556 0.617213 -0.223918
C47   C     C_R   0.418636 0.264156 0.660653 0.347762
C48   C     C_R   0.322934 0.345558 0.679159 -0.176184
C49   C     C_R   0.239323 0.421854 0.651696 0.362982
C50   C     C_R   0.256569 0.426066 0.606590 0.006297
C51   C     C_R   0.214884 0.420594 0.836411 0.057163
C52   C     C_R   0.208469 0.395025 0.879210 -0.206717
C53   C     C_R   0.398488 0.257398 0.881583 0.283106
C54   C     C_R   0.405966 0.282456 0.838380 0.282481
C55   C     C_R   0.311989 0.358586 0.814877 -0.080258
C56   C     C_1   0.311851 0.360256 0.767036 0.115771
C57   C     C_1   0.314173 0.355331 0.726906 0.182214
C58   C     C_R   0.297042 0.309333 0.900857 -0.232249
H8    H     H_    0.516025 0.216418 0.604417 0.222779
C59   C     C_1   0.761928 0.376447 0.612464 -0.070514
C60   C     C_R   0.820251 0.417491 0.727905 -0.143798
C61   C     C_R   0.833485 0.409456 0.774545 0.360145
C62   C     C_R   0.823628 0.237765 0.762138 0.297084
C63   C     C_R   0.811959 0.247127 0.714985 0.292588
C64   C     C_R   0.810551 0.337696 0.698389 -0.145187
C65   C     C_R   0.837537 0.317618 0.791740 -0.185113
C66   C     C_1   0.866604 0.300448 0.838996 0.227152
C67   C     C_1   0.789683 0.355982 0.651191 0.163761
C68   C     C_1   0.899763 0.286010 0.877829 -0.016271
H9    H     H_    0.816010 0.487662 0.714245 0.240239
C69   C     C_1   0.376042 0.758689 0.613244 -0.121998
C70   C     C_R   0.251764 0.882076 0.716137 -0.027704
C71   C     C_R   0.240171 0.899424 0.762884 0.347344
C72   C     C_R   0.433875 0.776906 0.777728 0.260924
C73   C     C_R   0.446220 0.758715 0.730986 0.307143
C74   C     C_R   0.355269 0.811399 0.700389 -0.113803
C75   C     C_R   0.330773 0.847288 0.793400 -0.215096
C76   C     C_1   0.315769 0.870378 0.840955 0.192022
C77   C     C_1   0.366920 0.786730 0.652647 0.113637
C78   C     C_1   0.295495 0.900037 0.879575 -0.047694
O14   O     O_R   0.167510 0.972920 0.030390 -0.516169
O15   O     O_R   0.990840 0.178580 0.027590 -0.502909
C79   C     C_R   0.947057 0.274327 0.047301 0.899713
O16   O     O_R   0.972840 0.345510 0.038590 -0.498909
O17   O     O_R   0.181550 0.320660 0.045200 -0.516544
C80   C     C_R   0.275489 0.270226 0.065319 0.801399
O18   O     O_R   0.346150 0.177650 0.050510 -0.544920
O19   O     O_R   0.314200 0.996600 0.036060 -0.547295
C81   C     C_R   0.261241 0.953487 0.049156 0.802043
O20   O     O_R   0.168690 0.969990 0.933130 -0.518652
O21   O     O_R   0.991920 0.175870 0.937430 -0.512428
C82   C     C_R   0.951373 0.269697 0.922360 0.808633
O22   O     O_R   0.974010 0.342590 0.941330 -0.528967
O23   O     O_R   0.182630 0.317940 0.955040 -0.547164
C83   C     C_R   0.276942 0.267302 0.939836 0.854890
O24   O     O_R   0.347320 0.174720 0.953250 -0.493522
O25   O     O_R   0.315290 0.993890 0.945900 -0.523839
C84   C     C_R   0.262125 0.949925 0.923244 0.786495
Cr4   Cr    Cr6+3 0.082090 0.079210 0.982490 1.100400
Cr5   Cr    Cr6+3 0.082460 0.324610 0.994920 1.058954
Cr6   Cr    Cr6+3 0.323630 0.087860 0.996130 1.022680
O26   O     O_3   0.162730 0.163890 0.991180 -0.374294
C85   C     C_3   0.155639 0.529115 0.297256 -0.347561
C86   C     C_3   0.197020 0.611099 0.312817 -0.603929
H10   H     H_    0.276537 0.572523 0.332614 0.202294
H11   H     H_    0.205915 0.646407 0.283297 0.279299
H12   H     H_    0.137896 0.677348 0.334630 0.246227
H13   H     H_    0.076877 0.571261 0.277470 0.246314
H14   H     H_    0.137445 0.501946 0.327013 0.174083
C87   C     C_3   0.802167 0.139426 0.158744 -0.227624
C88   C     C_3   0.680673 0.175384 0.157009 -0.710174
H15   H     H_    0.637879 0.252520 0.177901 0.223738
H16   H     H_    0.644960 0.187534 0.121700 0.259480
H17   H     H_    0.667971 0.111791 0.170038 0.236616
H18   H     H_    0.840966 0.061272 0.138323 0.268058
H19   H     H_    0.838792 0.121101 0.193624 0.192297
N1    N     N_R   0.871150 0.124016 0.068991 0.120255
O27   O     O_R   0.808982 0.138126 0.031890 -0.317725
O28   O     O_R   0.952756 0.028570 0.075802 -0.355385
C89   C     C_3   0.827318 0.142342 0.303447 -0.283653
C90   C     C_3   0.720803 0.147981 0.281726 -0.733169
H20   H     H_    0.664188 0.164195 0.307787 0.227642
H21   H     H_    0.680585 0.213666 0.258158 0.223235
H22   H     H_    0.737329 0.069491 0.262643 0.263555
H23   H     H_    0.883506 0.123798 0.276832 0.220542
H24   H     H_    0.868686 0.071672 0.324256 0.236357
N2    N     N_R   0.158606 0.842746 0.176845 0.156555
O29   O     O_R   0.058947 0.884075 0.159261 -0.323021
O30   O     O_R   0.187355 0.777151 0.208885 -0.329771
N3    N     N_R   0.136952 0.905382 0.313929 0.102211
O31   O     O_R   0.063635 0.883386 0.325495 -0.396350
O32   O     O_R   0.108251 0.977027 0.284412 -0.376694
N4    N     N_R   0.500068 0.867972 0.191509 0.124462
O33   O     O_R   0.558825 0.790128 0.218021 -0.281531
O34   O     O_R   0.518157 0.951019 0.193128 -0.374342
C91   C     C_3   0.495643 0.867788 0.093929 -0.298619
C92   C     C_3   0.530706 0.775224 0.056915 -0.567878
H25   H     H_    0.550036 0.697860 0.071134 0.257264
H26   H     H_    0.466338 0.791965 0.029130 0.199430
H27   H     H_    0.604544 0.765325 0.042655 0.257415
H28   H     H_    0.478438 0.945123 0.080543 0.210875
H29   H     H_    0.568053 0.847451 0.117885 0.251765
N5    N     N_R   0.141886 0.509931 0.198351 0.120715
O35   O     O_R   0.159763 0.564299 0.171115 -0.298461
O36   O     O_R   0.045305 0.518704 0.197614 -0.321646
N6    N     N_R   0.514752 0.852770 0.332551 0.120943
O37   O     O_R   0.492130 0.927833 0.305404 -0.332849
O38   O     O_R   0.613194 0.802657 0.351046 -0.382642
C93   C     C_3   0.116039 0.510949 0.813700 -0.302953
C94   C     C_3   0.133588 0.609198 0.810646 -0.520664
H30   H     H_    0.148603 0.641456 0.844927 0.219618
H31   H     H_    0.203792 0.586988 0.790661 0.225839
H32   H     H_    0.059908 0.674183 0.794003 0.275707
H33   H     H_    0.097102 0.481251 0.779497 0.231829
H34   H     H_    0.043578 0.538336 0.833019 0.237806
N7    N     N_R   0.137492 0.495797 0.669915 0.078755
O39   O     O_R   0.130947 0.574584 0.699149 -0.388779
O40   O     O_R   0.054749 0.477142 0.661191 -0.371261
C95   C     C_3   0.162015 0.499603 0.575633 -0.299820
C96   C     C_3   0.132843 0.619320 0.585813 -0.617984
H35   H     H_    0.087150 0.653015 0.616481 0.261052
H36   H     H_    0.207082 0.629264 0.591002 0.235949
H37   H     H_    0.080645 0.666846 0.557243 0.201565
H38   H     H_    0.179351 0.475515 0.539715 0.166659
H39   H     H_    0.089755 0.489192 0.578992 0.212697
N8    N     N_R   0.508534 0.231629 0.818343 0.176528
O41   O     O_R   0.538210 0.289884 0.798591 -0.326548
O42   O     O_R   0.570436 0.126952 0.817964 -0.225858
N9    N     N_R   0.493886 0.181323 0.905990 0.168821
O43   O     O_R   0.530500 0.077404 0.896438 -0.273222
O44   O     O_R   0.532867 0.215104 0.942295 -0.322995
N10   N     N_R   0.497096 0.173524 0.685766 0.169172
O45   O     O_R   0.466356 0.137369 0.716252 -0.320422
O46   O     O_R   0.595873 0.116085 0.673556 -0.267765
N11   N     N_R   0.841698 0.495693 0.803494 0.144528
O47   O     O_R   0.861949 0.564971 0.786734 -0.324044
O48   O     O_R   0.815521 0.514599 0.845021 -0.317074
N12   N     N_R   0.815350 0.150753 0.779635 0.213701
O49   O     O_R   0.878430 0.100299 0.813837 -0.287276
O50   O     O_R   0.741427 0.123880 0.762208 -0.210587
N13   N     N_R   0.806172 0.162704 0.684229 0.154832
O51   O     O_R   0.871490 0.060968 0.690954 -0.320943
O52   O     O_R   0.738827 0.186626 0.648501 -0.348175
C97   C     C_3   0.152729 0.933464 0.683170 -0.298260
C98   C     C_3   0.105080 0.855997 0.669139 -0.566171
H40   H     H_    0.167499 0.777389 0.654497 0.195877
H41   H     H_    0.074984 0.840731 0.698745 0.284548
H42   H     H_    0.036325 0.892288 0.643381 0.239950
H43   H     H_    0.089061 0.011112 0.697830 0.247214
H44   H     H_    0.174284 0.955192 0.652797 0.167884
N14   N     N_R   0.135223 0.967267 0.779600 0.108363
O53   O     O_R   0.088649 0.924047 0.799043 -0.319262
O54   O     O_R   0.094380 0.072520 0.781510 -0.389951
N15   N     N_R   0.524858 0.719476 0.808939 0.181450
O55   O     O_R   0.582528 0.614330 0.803362 -0.303391
O56   O     O_R   0.548977 0.771412 0.843507 -0.293706
N16   N     N_R   0.551690 0.688184 0.714764 0.142838
O57   O     O_R   0.565704 0.608191 0.684900 -0.382812
O58   O     O_R   0.634832 0.701879 0.730860 -0.275896
N17   N     N_R   0.831710 0.492856 0.092475 0.169507
O59   O     O_R   0.901018 0.527751 0.107595 -0.263971
O60   O     O_R   0.768122 0.532195 0.056687 -0.358980
N18   N     N_R   0.752553 0.515761 0.177848 0.129565
O61   O     O_R   0.656499 0.555129 0.192533 -0.357313
O62   O     O_R   0.806228 0.570570 0.186664 -0.276442
C99   C     C_3   0.784590 0.524399 0.307682 -0.293819
C100  C     C_3   0.898437 0.494435 0.295375 -0.624177
H45   H     H_    0.955418 0.475991 0.326036 0.197647
H46   H     H_    0.929164 0.422874 0.270625 0.233730
H47   H     H_    0.896048 0.563979 0.280167 0.271287
H48   H     H_    0.727381 0.543931 0.277191 0.256303
H49   H     H_    0.755840 0.600192 0.330133 0.226278
C101  C     C_3   0.827652 0.168001 0.405486 -0.359057
C102  C     C_3   0.740742 0.130539 0.400944 -0.612049
H50   H     H_    0.658524 0.199208 0.394126 0.240795
H51   H     H_    0.756780 0.065855 0.373391 0.224451
H52   H     H_    0.742020 0.096021 0.432625 0.215399
H53   H     H_    0.907201 0.099103 0.396558 0.188800
H54   H     H_    0.842524 0.189086 0.441617 0.175321

loop_
_geom_bond_atom_site_label_1
_geom_bond_atom_site_label_2
_geom_bond_distance
_ccdc_geom_bond_type
C25   C30   1.420827 A    
C37   C41   1.406749 A    
C30   C79   1.494498 S    
C8    C85   1.518907 S    
C63   C64   1.409909 A    
C85   C86   1.525998 S    
O22   Cr5   2.026482 S    
C73   N16   1.438062 S    
O23   C83   1.279144 A    
N12   O50   1.301031 A    
N12   O49   1.300502 A    
C70   C71   1.408728 A    
C39   C91   1.526750 S    
O16   Cr5   2.032937 S    
C34   C35   1.413992 A    
C88   H17   1.110505 S    
N16   O58   1.301072 A    
O21   C82   1.274552 A    
O4    Cr2   1.913427 S    
C94   H30   1.110999 S    
C35   C36   1.403319 A    
O8    Cr1   1.915918 S    
C10   C11   1.388311 A    
C99   C100  1.527670 S    
H4    C38   1.080909 S    
C17   C18   1.423557 A    
C93   C94   1.527255 S    
N1    O28   1.300066 A    
C96   H36   1.107975 S    
C23   C27   1.403051 A    
O4    C2    1.274386 A    
N14   O54   1.300792 A    
Cr5   O26   1.977379 S    
O14   Cr4   2.026840 S    
C79   O16   1.276394 A    
C5    C45   1.487013 S    
C70   C74   1.412676 A    
C89   C90   1.528359 S    
C73   C74   1.412907 A    
C97   H44   1.110798 S    
C71   N14   1.432926 S    
O17   C80   1.274098 A    
C100  H47   1.110142 S    
N6    O37   1.301499 A    
C101  H54   1.110282 S    
C99   H48   1.108474 S    
N8    O42   1.300454 A    
C95   C96   1.527949 S    
N16   O57   1.301249 A    
C46   H8    1.082598 S    
O18   Cr6   2.028844 S    
C83   O24   1.275601 A    
O25   Cr6   1.911813 S    
O20   Cr4   2.031975 S    
O19   C81   1.277472 A    
C47   N10   1.444350 S    
C3    C17   1.488117 S    
C8    C9    1.417308 A    
N11   O47   1.301625 A    
H5    C36   1.082721 S    
N3    O32   1.301458 A    
C13   C14   1.434602 S    
C8    C12   1.416101 A    
C51   C93   1.514333 S    
C54   C55   1.409573 A    
C49   C50   1.414550 A    
C94   H31   1.110202 S    
O19   Cr6   1.911799 S    
O25   C84   1.273001 A    
C87   H18   1.106324 S    
C25   N1    1.433634 S    
O24   Cr6   2.027796 S    
C102  H50   1.109105 S    
N5    O36   1.300611 A    
N13   O51   1.300785 A    
N6    O38   1.301193 A    
C33   N6    1.442414 S    
C4    C69   1.426030 S    
C17   C22   1.401792 A    
C40   C41   1.409277 A    
C90   H22   1.110259 S    
C48   C57   1.435701 S    
C72   C73   1.410265 A    
C51   C52   1.396448 A    
C23   N18   1.436575 S    
C11   H2    1.083532 S    
C70   C97   1.520432 S    
C89   H23   1.110307 S    
C60   H9    1.084023 S    
O1    Cr1   2.032970 S    
C5    O11   1.277237 A    
C42   C43   1.201813 T    
C97   C98   1.526096 S    
C92   H27   1.110511 S    
O10   Cr2   1.910880 S    
Cr1   O13   1.977462 S    
O1    C3    1.276395 A    
C60   C61   1.398599 A    
N17   O59   1.300872 A    
C90   H21   1.108319 S    
C101  C102  1.531344 S    
C16   C80   1.425106 S    
C96   H37   1.110242 S    
C98   H40   1.109478 S    
C20   C21   1.408180 A    
O14   C81   1.280878 A    
C61   C65   1.418154 A    
N14   O53   1.300622 A    
C45   C46   1.406126 A    
C88   H16   1.110921 S    
C45   C50   1.423550 A    
C32   C33   1.401223 A    
C58   C83   1.481449 S    
O12   Cr3   1.911155 S    
C1    O3    1.274064 A    
C56   C57   1.199924 T    
C39   C40   1.418568 A    
C7    C15   1.200064 T    
C101  H53   1.110173 S    
C99   H49   1.110027 S    
C24   N17   1.433507 S    
C96   H35   1.108521 S    
C86   H11   1.110766 S    
C44   C81   1.490076 S    
C18   C19   1.427403 A    
C53   N9    1.432662 S    
C10   H1    1.084023 S    
C66   C68   1.203342 T    
C91   C92   1.529233 S    
C91   H28   1.107586 S    
C64   C67   1.437782 S    
C85   H14   1.111249 S    
O7    Cr1   2.027032 S    
O8    C4    1.273650 A    
C34   C43   1.437972 S    
C41   C42   1.439152 S    
O12   C6    1.272336 A    
O6    C3    1.278633 A    
C95   H39   1.110386 S    
C53   C54   1.409703 A    
C100  H46   1.109478 S    
C32   H6    1.082834 S    
C62   N12   1.443305 S    
C47   C48   1.407203 A    
N7    O39   1.300638 A    
C19   C89   1.523613 S    
C98   H41   1.110873 S    
C21   C22   1.392002 A    
N15   O55   1.300989 A    
Cr2   O13   1.980511 S    
C39   C44   1.427162 A    
C87   H19   1.109833 S    
C65   C66   1.441712 S    
N18   O62   1.300142 A    
C102  H51   1.108283 S    
C87   C88   1.527418 S    
C72   N15   1.437002 S    
C91   H29   1.108025 S    
C26   C27   1.409181 A    
H7    C52   1.083444 S    
C23   C24   1.403927 A    
O17   Cr5   1.911907 S    
C86   H10   1.109944 S    
C78   C84   1.427916 S    
C40   N4    1.437366 S    
C63   N13   1.440881 S    
C72   C75   1.406950 A    
C31   C32   1.402808 A    
C62   C63   1.417364 A    
C18   C101  1.524678 S    
C94   H32   1.110421 S    
C93   H34   1.110938 S    
N8    O41   1.301393 A    
C33   C34   1.411726 A    
N4    O33   1.300799 A    
O9    Cr2   2.028848 S    
O2    Cr1   1.911458 S    
C55   C56   1.436512 S    
C12   C15   1.435711 S    
C24   C30   1.417807 A    
C25   C26   1.413852 A    
C60   C64   1.392188 A    
N13   O52   1.301090 A    
C35   N3    1.444251 S    
C28   C29   1.201814 T    
C62   C65   1.419269 A    
O6    Cr3   1.915177 S    
C53   C58   1.414541 A    
C1    C31   1.477013 S    
N17   O60   1.300771 A    
O11   Cr3   2.030461 S    
C2    O5    1.266795 A    
C52   C58   1.405527 A    
C9    N5    1.434293 S    
N15   O56   1.301154 A    
C59   C67   1.202022 T    
O15   C79   1.281278 A    
C88   H15   1.110246 S    
C26   C87   1.521836 S    
N2    O29   1.301409 A    
C90   H20   1.108429 S    
C6    C59   1.427159 S    
C54   N8    1.438549 S    
N9    O43   1.301085 A    
Cr4   O26   1.977554 S    
N4    O34   1.301343 A    
O2    C1    1.277993 A    
C21   C99   1.517109 S    
C86   H12   1.108768 S    
C100  H45   1.110877 S    
O5    Cr3   2.028336 S    
C80   O18   1.267256 A    
C92   H25   1.111058 S    
C14   C16   1.200471 T    
C50   C95   1.520021 S    
C9    C13   1.409749 A    
C19   C20   1.418866 A    
N5    O35   1.300905 A    
C85   H13   1.107150 S    
O7    C6    1.268027 A    
C98   H42   1.110064 S    
N1    O27   1.300900 A    
C2    C7    1.424153 S    
C71   C75   1.407366 A    
O21   Cr4   1.910147 S    
C75   C76   1.441512 S    
O15   Cr4   1.916864 S    
N2    O30   1.301377 A    
C95   H38   1.109162 S    
C97   H43   1.108682 S    
C93   H33   1.111214 S    
O23   Cr5   1.915823 S    
C46   C47   1.396839 A    
H3    C22   1.083566 S    
C68   C82   1.428579 S    
C37   C38   1.395853 A    
C27   C28   1.439931 S    
C31   C36   1.402639 A    
C89   H24   1.103971 S    
N10   O45   1.301383 A    
O3    Cr2   2.027020 S    
C37   N2    1.441888 S    
C61   N11   1.446500 S    
C48   C49   1.406293 A    
C74   C77   1.441706 S    
O20   C84   1.269278 A    
C4    O9    1.268411 A    
C69   C77   1.201542 T    
C10   C13   1.396089 A    
C76   C78   1.202326 T    
N18   O61   1.300929 A    
C51   C55   1.406390 A    
C102  H52   1.110530 S    
C11   C12   1.396782 A    
O10   C5    1.279512 A    
Cr6   O26   1.980324 S    
N11   O48   1.301098 A    
C49   N7    1.433593 S    
N7    O40   1.300596 A    
N3    O31   1.301124 A    
Cr3   O13   1.977369 S    
C38   C44   1.404404 A    
C82   O22   1.265632 A    
C92   H26   1.108645 S    
C20   C29   1.442935 S    
N10   O46   1.300717 A    
N9    O44   1.300822 A    
