data_mof_unit_16527.cif
_audit_creation_date              2012-10-26T19:40:06-0400
_audit_creation_method            fapswitch 2.2
_symmetry_space_group_name_H-M    P1
_symmetry_Int_Tables_number       1
_space_group_crystal_system       triclinic
_cell_length_a                    15.031014
_cell_length_b                    8.669852
_cell_length_c                    7.431435
_cell_angle_alpha                 102.221123
_cell_angle_beta                  94.604289
_cell_angle_gamma                 92.607194
_cell_volume                      941.496087131

loop_
_atom_site_label
_atom_site_type_symbol
_atom_type_description
_atom_site_fract_x
_atom_site_fract_y
_atom_site_fract_z
_atom_type_partial_charge
C1    C     C_R   0.492625 0.200025 0.454776 0.578848
C2    C     C_R   0.177703 0.440557 0.337507 -0.135904
C3    C     C_R   0.768036 0.502681 0.497200 -0.020688
C4    C     C_R   0.231934 0.496361 0.503404 -0.006112
C5    C     C_R   0.806432 0.447395 0.332033 -0.151225
C6    C     C_R   0.193579 0.551210 0.668901 -0.145715
C7    C     C_R   0.899002 0.444576 0.332520 0.004258
C8    C     C_R   0.100945 0.552795 0.668961 0.007646
C9    C     C_R   0.953388 0.499384 0.500053 0.061105
C10   C     C_R   0.046519 0.497333 0.501545 0.061911
C11   C     C_R   0.914731 0.556622 0.665982 0.003305
C12   C     C_R   0.506304 0.799598 0.544618 0.584917
C13   C     C_R   0.085147 0.440338 0.335431 0.008262
C14   C     C_R   0.938033 0.387360 0.168611 -0.143303
C15   C     C_R   0.061852 0.609941 0.833008 -0.141177
C16   C     C_3   0.411632 0.939479 0.135964 0.035583
C17   C     C_3   0.333457 0.016139 0.051654 -0.269241
C18   C     C_3   0.338965 0.005909 0.845502 -0.461129
C19   C     C_3   0.673405 0.021317 0.604929 0.004276
C20   C     C_3   0.748101 0.128706 0.727234 -0.246951
C21   C     C_3   0.836804 0.111703 0.640164 -0.481825
C22   C     C_R   0.030690 0.384894 0.170003 -0.138436
C23   C     C_R   0.969140 0.611900 0.831488 -0.141692
C24   C     C_2   0.477819 0.032660 0.436100 0.204576
C25   C     C_2   0.522876 0.965312 0.559211 0.218231
C26   C     C_R   0.328699 0.498760 0.501563 0.550744
C27   C     C_R   0.671292 0.501100 0.498534 0.533138
C28   C     C_R   0.822193 0.557452 0.663451 -0.153173
Cu1   Cu    Cu3+1 0.510010 0.517380 0.684380 0.947645
Cu2   Cu    Cu3+1 0.489990 0.482620 0.315620 0.942407
H1    H     H_    0.792400 0.601177 0.791155 0.124808
H2    H     H_    0.569730 0.622575 0.051579 0.232396
H3    H     H_    0.407293 0.811612 0.069193 0.177221
H4    H     H_    0.476731 0.989156 0.103309 0.147059
H5    H     H_    0.269449 0.955366 0.071831 0.164614
H6    H     H_    0.333427 0.142452 0.122929 0.185739
H7    H     H_    0.400836 0.071402 0.823244 0.173488
H8    H     H_    0.280510 0.059962 0.788500 0.145963
H9    H     H_    0.338652 0.880523 0.770669 0.171289
H10   H     H_    0.669897 0.049692 0.464909 0.110087
H11   H     H_    0.690174 0.895876 0.593193 0.129305
H12   H     H_    0.207458 0.396891 0.209708 0.119561
H13   H     H_    0.730310 0.253794 0.746757 0.193480
H14   H     H_    0.755774 0.097753 0.865131 0.162233
H15   H     H_    0.857021 0.988155 0.623530 0.153354
H16   H     H_    0.889807 0.191862 0.729884 0.149017
H17   H     H_    0.830721 0.143770 0.502862 0.159983
H18   H     H_    0.764371 0.404384 0.203930 0.128646
H19   H     H_    0.235719 0.594908 0.796764 0.122666
H20   H     H_    0.896842 0.345382 0.039600 0.108864
H21   H     H_    0.102926 0.652927 0.962253 0.118298
H22   H     H_    0.059763 0.340524 0.041723 0.116523
H23   H     H_    0.939986 0.656421 0.959621 0.119567
H24   H     H_    0.430081 0.377775 0.948495 0.237854
N1    N     N_2   0.474890 0.456420 0.038520 -0.257783
N2    N     N_2   0.525110 0.543580 0.961480 -0.265066
O1    O     O_R   0.506510 0.286130 0.619770 -0.472168
O2    O     O_3   0.591527 0.046581 0.684699 -0.583124
O3    O     O_R   0.493490 0.713870 0.380230 -0.503533
O4    O     O_R   0.489600 0.256770 0.308360 -0.519592
O5    O     O_R   0.510400 0.743230 0.691640 -0.506652
O6    O     O_R   0.378710 0.514640 0.655720 -0.524590
O7    O     O_R   0.621290 0.485360 0.344280 -0.512464
O8    O     O_R   0.361800 0.485290 0.344300 -0.505674
O9    O     O_R   0.638200 0.514710 0.655700 -0.508896
O10   O     O_3   0.403135 0.952635 0.326955 -0.602750

loop_
_geom_bond_atom_site_label_1
_geom_bond_atom_site_label_2
_ccdc_geom_bond_type
C2    C4    A    
C18   H9    S    
Cu1   Cu2   S    
C27   O9    A    
C17   H6    S    
Cu2   O8    S    
C16   H3    S    
C9    C10   A    
C4    C26   S    
C19   C20   S    
C24   O10   S    
C12   C25   S    
N1    N2    D    
C16   H4    S    
Cu2   O3    S    
C14   C22   A    
C15   C23   A    
C17   C18   S    
C26   O6    A    
C3    C5    A    
C6    H19   S    
Cu1   O5    S    
Cu2   O7    S    
C24   C25   D    
C12   O5    A    
C9    C11   A    
C25   O2    S    
C14   H20   S    
C27   O7    A    
C11   C28   A    
C2    H12   S    
C21   H15   S    
Cu1   O9    S    
C11   C23   A    
C3    C28   A    
Cu1   N2    S    
C18   H7    S    
Cu1   O1    S    
C13   C22   A    
C23   H23   S    
C8    C15   A    
C1    O1    A    
C3    C27   S    
C7    C14   A    
C19   O2    S    
C18   H8    S    
C8    C10   A    
C5    H18   S    
C15   H21   S    
C16   O10   S    
C19   H10   S    
C22   H22   S    
C7    C9    A    
C20   H13   S    
C20   C21   S    
C1    C24   S    
C4    C6    A    
C21   H16   S    
Cu2   N1    S    
C1    O4    A    
C5    C7    A    
C2    C13   A    
C26   O8    A    
Cu1   O6    S    
C6    C8    A    
C17   H5    S    
C20   H14   S    
H24   N1    S    
C12   O3    A    
H2    N2    S    
C28   H1    S    
C19   H11   S    
C16   C17   S    
C21   H17   S    
C10   C13   A    
Cu2   O4    S    
