data_mof_unit_29635.cif
_audit_creation_date              2012-10-26T18:40:19-0400
_audit_creation_method            fapswitch 2.2
_symmetry_space_group_name_H-M    P1
_symmetry_Int_Tables_number       1
_space_group_crystal_system       triclinic
_cell_length_a                    8.720283
_cell_length_b                    15.143198
_cell_length_c                    13.913043
_cell_angle_alpha                 90.525403
_cell_angle_beta                  98.497451
_cell_angle_gamma                 90.570451
_cell_volume                      1816.89481675

loop_
_atom_site_label
_atom_site_type_symbol
_atom_type_description
_atom_site_fract_x
_atom_site_fract_y
_atom_site_fract_z
_atom_type_partial_charge
C1    C     C_R   0.501292 0.329870 0.499873 0.544194
C2    C     C_R   0.569761 0.571146 0.899105 0.243591
C3    C     C_R   0.499293 0.501851 0.054212 0.016854
C4    C     C_R   0.500458 0.501695 0.945203 0.017410
C5    C     C_R   0.203620 0.499890 0.474904 0.550994
C6    C     C_R   0.796387 0.500152 0.525099 0.549285
C7    C     C_2   0.037348 0.499771 0.461278 -0.154770
C8    C     C_2   0.962670 0.500303 0.538720 -0.157887
C9    C     C_R   0.540882 0.096534 0.589467 -0.121705
C10   C     C_R   0.567644 0.903721 0.428866 -0.122016
C11   C     C_R   0.537434 0.188297 0.588688 -0.132031
C12   C     C_R   0.501077 0.669955 0.500508 0.544892
C13   C     C_R   0.563606 0.811975 0.427833 -0.131334
C14   C     C_R   0.505137 0.233243 0.500367 0.014446
C15   C     C_R   0.504529 0.766261 0.501674 0.017253
C16   C     C_R   0.476840 0.185113 0.413004 -0.133175
C17   C     C_R   0.449374 0.813125 0.576590 -0.134908
C18   C     C_R   0.477326 0.093375 0.413816 -0.121906
C19   C     C_R   0.450617 0.904954 0.576643 -0.122415
C20   C     C_R   0.509662 0.048237 0.502054 0.035496
C21   C     C_R   0.509852 0.951061 0.502767 0.034618
C22   C     C_3   0.236704 0.331247 0.216875 -0.270852
C23   C     C_R   0.629726 0.529819 0.120165 -0.179425
C24   C     C_3   0.834756 0.617474 0.780363 -0.279583
C25   C     C_3   0.143271 0.525283 0.009992 -0.142027
C26   C     C_3   0.518644 0.705517 0.959206 -0.144214
C27   C     C_R   0.430537 0.432285 0.885280 -0.177161
C28   C     C_R   0.625829 0.531198 0.221055 -0.024719
C29   C     C_R   0.427335 0.434079 0.783887 -0.025257
C30   C     C_R   0.374215 0.467775 0.196222 0.297396
C31   C     C_R   0.577924 0.565587 0.798144 0.294613
C32   C     C_R   0.367176 0.474415 0.094090 0.248028
Cu1   Cu    Cu3+1 0.500000 0.499990 0.596430 0.954906
Cu2   Cu    Cu3+1 0.500000 0.500010 0.403570 0.959583
H1    H     H_    0.976301 0.499181 0.387260 0.115725
H2    H     H_    0.402863 0.939728 0.633569 0.101187
H3    H     H_    0.735346 0.550515 0.094276 0.155270
H4    H     H_    0.378375 0.376295 0.916370 0.160499
H5    H     H_    0.725962 0.556037 0.269085 0.132281
H6    H     H_    0.368966 0.381303 0.739481 0.135899
H7    H     H_    0.145244 0.457283 0.216643 0.236917
H8    H     H_    0.159515 0.316639 0.147510 0.157816
H9    H     H_    0.186059 0.300319 0.277227 0.135052
H10   H     H_    0.351899 0.301716 0.213366 0.133704
H11   H     H_    0.635967 0.692675 0.765035 0.239677
H12   H     H_    0.023777 0.500858 0.612736 0.121522
H13   H     H_    0.874257 0.638325 0.856825 0.148868
H14   H     H_    0.895126 0.659013 0.731962 0.129443
H15   H     H_    0.867404 0.547548 0.770832 0.152888
H16   H     H_    0.202003 0.570424 0.964019 0.112873
H17   H     H_    0.116905 0.561011 0.075806 0.103794
H18   H     H_    0.031103 0.504525 0.967016 0.144055
H19   H     H_    0.431849 0.679781 0.003300 0.117774
H20   H     H_    0.460028 0.725862 0.886312 0.095955
H21   H     H_    0.572907 0.765446 0.996766 0.140217
H22   H     H_    0.569299 0.063515 0.658400 0.101275
H23   H     H_    0.617100 0.937509 0.372224 0.102809
H24   H     H_    0.561560 0.223965 0.657187 0.123833
H25   H     H_    0.608650 0.776800 0.370055 0.122400
H26   H     H_    0.452772 0.218122 0.344117 0.115963
H27   H     H_    0.402562 0.778822 0.633985 0.114562
H28   H     H_    0.450365 0.057883 0.345397 0.100534
N1    N     N_R   0.500000 0.500020 0.258690 -0.231610
N2    N     N_R   0.500000 0.499980 0.741310 -0.233670
N3    N     N_2   0.249849 0.425669 0.233552 -0.439711
N4    N     N_2   0.668855 0.628330 0.755587 -0.435236
O1    O     O_R   0.500010 0.371450 0.581430 -0.516454
O2    O     O_3   0.635695 0.643253 0.951957 -0.602559
O3    O     O_R   0.499990 0.628550 0.418570 -0.506854
O4    O     O_R   0.500010 0.371460 0.418560 -0.484583
O5    O     O_R   0.499990 0.628540 0.581440 -0.481588
O6    O     O_R   0.274840 0.499990 0.562640 -0.504862
O7    O     O_R   0.725160 0.500010 0.437360 -0.512934
O8    O     O_R   0.274840 0.500000 0.399770 -0.473235
O9    O     O_R   0.725160 0.500000 0.600230 -0.479661
O10   O     O_3   0.232243 0.449292 0.034503 -0.598009

loop_
_geom_bond_atom_site_label_1
_geom_bond_atom_site_label_2
_ccdc_geom_bond_type
C31   N4    S    
C12   O3    A    
C27   C29   A    
C3    C23   A    
C26   H21   S    
C7    C8    D    
C19   C21   A    
C5    O6    A    
C2    O2    S    
C19   H2    S    
C11   C14   A    
C27   H4    S    
C16   H26   S    
C5    O8    A    
C25   H16   S    
Cu1   O6    S    
C17   C19   A    
Cu1   O9    S    
C22   H10   S    
C11   H24   S    
Cu2   O4    S    
C24   N4    S    
C17   H27   S    
C29   N2    A    
C30   N1    A    
C26   H20   S    
C10   C21   A    
C24   H14   S    
C6    O9    A    
C10   H23   S    
C5    C7    S    
C18   H28   S    
C6    C8    S    
C28   H5    S    
C23   H3    S    
C2    C31   A    
C2    C4    A    
C25   H17   S    
C22   N3    S    
C9    C20   A    
C22   H9    S    
C12   C15   S    
Cu1   Cu2   S    
C9    H22   S    
C23   C28   A    
C9    C11   A    
Cu2   O3    S    
Cu2   O8    S    
C12   O5    A    
C13   C15   A    
C14   C16   A    
C3    C4    S    
C26   H19   S    
C4    C27   A    
Cu1   O1    S    
C6    O7    A    
C24   H15   S    
C15   C17   A    
C24   H13   S    
C7    H1    S    
C31   N2    A    
C10   C13   A    
C32   O10   S    
H7    N3    S    
C13   H25   S    
C1    O4    A    
C25   O10   S    
C26   O2    S    
C25   H18   S    
C30   C32   A    
C22   H8    S    
Cu1   N2    S    
C29   H6    S    
Cu2   N1    S    
C1    O1    A    
C18   C20   A    
C3    C32   A    
C8    H12   S    
C30   N3    S    
Cu1   O5    S    
Cu2   O7    S    
C28   N1    A    
C20   C21   S    
C16   C18   A    
H11   N4    S    
C1    C14   S    
