data_mof_unit_7517.cif
_audit_creation_date              2012-10-26T18:39:09-0400
_audit_creation_method            fapswitch 2.2
_symmetry_space_group_name_H-M    P1
_symmetry_Int_Tables_number       1
_space_group_crystal_system       triclinic
_cell_length_a                    9.44665
_cell_length_b                    10.649474
_cell_length_c                    17.232749
_cell_angle_alpha                 90.188132
_cell_angle_beta                  86.461444
_cell_angle_gamma                 90.719632
_cell_volume                      1730.19933334

loop_
_atom_site_label
_atom_site_type_symbol
_atom_type_description
_atom_site_fract_x
_atom_site_fract_y
_atom_site_fract_z
_atom_type_partial_charge
C1    C     C_R   0.501131 0.740390 0.500137 0.549983
C2    C     C_3   0.633035 0.964280 0.505923 0.013858
C3    C     C_3   0.954088 0.404589 0.463147 0.100981
C4    C     C_3   0.045912 0.595411 0.536852 0.100981
C5    C     C_3   0.046019 0.399829 0.533086 -0.003827
C6    C     C_3   0.953981 0.600171 0.466914 -0.003827
C7    C     C_3   0.058724 0.503899 0.429640 -0.004761
C8    C     C_3   0.941276 0.496100 0.570360 -0.004760
C9    C     C_R   0.482002 0.496751 0.649890 0.541029
C10   C     C_R   0.517998 0.503249 0.350110 0.541029
C11   C     C_R   0.474381 0.483691 0.734453 0.014758
C12   C     C_R   0.498869 0.259610 0.499863 0.549983
C13   C     C_R   0.525619 0.516310 0.265547 0.014758
C14   C     C_R   0.594262 0.443251 0.771260 -0.138781
C15   C     C_R   0.405740 0.556755 0.228741 -0.138781
C16   C     C_R   0.588971 0.429859 0.851421 -0.123404
C17   C     C_R   0.411031 0.570148 0.148580 -0.123404
C18   C     C_R   0.464704 0.458648 0.895700 0.055112
C19   C     C_R   0.535296 0.541354 0.104300 0.055111
C20   C     C_R   0.343471 0.495746 0.859468 -0.124104
C21   C     C_R   0.656527 0.504251 0.140532 -0.124104
C22   C     C_R   0.348058 0.507967 0.778867 -0.141789
C23   C     C_3   0.451141 0.955500 0.433222 -0.123518
C24   C     C_R   0.651940 0.492029 0.221133 -0.141789
C25   C     C_2   0.463961 0.455434 0.980627 0.004143
C26   C     C_2   0.536038 0.544569 0.019373 0.004143
C27   C     C_3   0.903144 0.291361 0.418140 -0.375031
C28   C     C_3   0.096856 0.708639 0.581860 -0.375031
C29   C     C_3   0.617019 0.650758 0.978121 -0.400822
C30   C     C_3   0.382979 0.349247 0.021879 -0.400823
C31   C     C_3   0.213451 0.072856 0.487129 -0.394286
C32   C     C_3   0.786549 0.927144 0.512871 -0.394286
C33   C     C_3   0.548859 0.044500 0.566778 -0.123518
C34   C     C_3   0.581901 0.044178 0.439020 -0.126120
C35   C     C_3   0.418099 0.955822 0.560980 -0.126120
C36   C     C_3   0.496310 0.122840 0.499831 0.043870
C37   C     C_3   0.503690 0.877160 0.500169 0.043870
C38   C     C_3   0.366965 0.035720 0.494077 0.013858
Cu1   Cu    Cu3+1 0.356850 0.500010 0.499980 0.913317
Cu2   Cu    Cu3+1 0.643150 0.499990 0.500020 0.913317
H1    H     H_    0.692110 0.421467 0.738165 0.115467
H2    H     H_    0.682436 0.399497 0.879222 0.102679
H3    H     H_    0.649403 0.082349 0.389351 0.099713
H4    H     H_    0.350597 0.917651 0.610649 0.099713
H5    H     H_    0.410543 0.916913 0.378816 0.104165
H6    H     H_    0.589457 0.083087 0.621184 0.104165
H7    H     H_    0.088560 0.316988 0.562059 0.092653
H8    H     H_    0.911439 0.683012 0.437941 0.092653
H9    H     H_    0.995002 0.247517 0.385796 0.083421
H10   H     H_    0.854067 0.220842 0.458914 0.143628
H11   H     H_    0.826004 0.320600 0.375972 0.154697
H12   H     H_    0.307893 0.578542 0.261835 0.115467
H13   H     H_    0.004998 0.752483 0.614204 0.083421
H14   H     H_    0.173996 0.679400 0.624028 0.154697
H15   H     H_    0.145933 0.779158 0.541085 0.143628
H16   H     H_    0.659905 0.717801 0.020554 0.125951
H17   H     H_    0.707793 0.613547 0.941523 0.123754
H18   H     H_    0.545769 0.703232 0.941264 0.136928
H19   H     H_    0.340093 0.282203 0.979447 0.125950
H20   H     H_    0.454228 0.296774 0.058738 0.136928
H21   H     H_    0.292205 0.386460 0.058476 0.123755
H22   H     H_    0.148340 0.988265 0.475428 0.110441
H23   H     H_    0.111613 0.506180 0.370338 0.094877
H24   H     H_    0.172270 0.116011 0.542427 0.126487
H25   H     H_    0.206246 0.140288 0.438657 0.145930
H26   H     H_    0.851660 0.011735 0.524573 0.110441
H27   H     H_    0.793754 0.859711 0.561343 0.145930
H28   H     H_    0.827730 0.883990 0.457573 0.126487
H29   H     H_    0.888387 0.493820 0.629662 0.094876
H30   H     H_    0.745898 0.461760 0.248460 0.113146
H31   H     H_    0.254099 0.538231 0.751540 0.113146
H32   H     H_    0.246856 0.517632 0.893714 0.103113
H33   H     H_    0.753140 0.482361 0.106285 0.103113
H34   H     H_    0.317568 0.600514 0.120778 0.102680
N1    N     N_3   0.141720 0.500030 0.499940 -0.226759
N2    N     N_3   0.858280 0.499970 0.500060 -0.226759
O1    O     O_R   0.379130 0.683150 0.499960 -0.509728
O2    O     O_R   0.620870 0.316850 0.500040 -0.509728
O3    O     O_R   0.620910 0.683140 0.500000 -0.501332
O4    O     O_R   0.379090 0.316860 0.500000 -0.501332
O5    O     O_R   0.365090 0.500030 0.613580 -0.510262
O6    O     O_R   0.634910 0.499970 0.386420 -0.510262
O7    O     O_R   0.606870 0.500020 0.613610 -0.509577
O8    O     O_R   0.393130 0.499980 0.386390 -0.509577

loop_
_geom_bond_atom_site_label_1
_geom_bond_atom_site_label_2
_ccdc_geom_bond_type
C23   H5    S    
C1    O1    A    
C31   H22   S    
C4    C8    S    
C24   H30   S    
C5    H7    S    
C8    H29   S    
C6    H8    S    
Cu1   O1    S    
C35   C37   S    
Cu1   O8    S    
C3    C7    S    
C11   C14   A    
C21   H33   S    
C8    N2    S    
C33   C36   S    
C2    C32   S    
C10   O8    A    
C19   C26   S    
C4    N1    S    
C17   C19   A    
C30   H20   S    
Cu1   N1    S    
C12   C36   S    
C34   C36   S    
C27   H10   S    
C1    C37   S    
C32   H28   S    
C2    C34   S    
C33   H6    S    
Cu2   O7    S    
C18   C25   S    
C4    C28   S    
C28   H15   S    
C27   H11   S    
C3    C27   S    
Cu2   O2    S    
Cu2   O6    S    
C35   C38   S    
Cu1   O5    S    
C4    C6    S    
Cu1   Cu2   S    
C31   H25   S    
C7    N1    S    
C25   C26   D    
C23   C37   S    
C10   O6    A    
Cu2   N2    S    
C13   C24   A    
C12   O2    A    
C5    N1    S    
C3    N2    S    
C23   C34   S    
C30   H19   S    
Cu2   O3    S    
C15   H12   S    
C35   H4    S    
C9    C11   S    
C7    H23   S    
C9    O7    A    
C14   H1    S    
C2    C33   S    
C20   C22   A    
C32   H27   S    
C17   H34   S    
C1    O3    A    
C14   C16   A    
C21   C24   A    
C16   H2    S    
C22   H31   S    
C32   H26   S    
C25   C30   S    
C15   C17   A    
C28   H14   S    
C19   C21   A    
C31   H24   S    
C34   H3    S    
C29   H17   S    
C3    C5    S    
C10   C13   S    
C5    C8    S    
C28   H13   S    
C6    N2    S    
C6    C7    S    
C29   H16   S    
C23   C38   S    
C11   C22   A    
C31   C38   S    
Cu1   O4    S    
C13   C15   A    
C2    C37   S    
C12   O4    A    
C36   C38   S    
C33   C35   S    
C18   C20   A    
C29   H18   S    
C26   C29   S    
C16   C18   A    
C30   H21   S    
C20   H32   S    
C27   H9    S    
C9    O5    A    
