data_mof_unit_20872.cif
_audit_creation_date              2012-12-10T16:53:28-0500
_audit_creation_method            fapswitch 2.2
_symmetry_space_group_name_H-M    P1
_symmetry_Int_Tables_number       1
_space_group_crystal_system       triclinic
_cell_length_a                    7.79741
_cell_length_b                    8.579531
_cell_length_c                    13.633582
_cell_angle_alpha                 92.035199
_cell_angle_beta                  79.201338
_cell_angle_gamma                 93.805302
_cell_volume                      893.686850052

loop_
_atom_site_label
_atom_site_type_symbol
_atom_type_description
_atom_site_fract_x
_atom_site_fract_y
_atom_site_fract_z
_atom_type_partial_charge
C1    C     C_R   0.546236 0.794732 0.497499 0.958681
C2    C     C_1   0.564875 0.520715 0.121750 -0.065929
C3    C     C_2   0.570501 0.958280 0.496045 -0.375189
C4    C     C_2   0.429499 0.041720 0.503955 -0.375189
C5    C     C_3   0.159519 0.326227 0.001766 -0.305172
C6    C     C_3   0.840482 0.673772 0.998233 -0.305172
C7    C     C_R   0.453764 0.205268 0.502501 0.958681
C8    C     C_R   0.471077 0.500916 0.686909 0.904280
C9    C     C_R   0.528923 0.499084 0.313091 0.904280
C10   C     C_1   0.549753 0.510175 0.209407 -0.163270
C11   C     C_1   0.450247 0.489825 0.790593 -0.163269
C12   C     C_2   0.571001 0.529560 0.016908 0.430248
C13   C     C_2   0.428999 0.470440 0.983092 0.430248
C14   C     C_1   0.435125 0.479285 0.878250 -0.065929
H1    H     H_    0.703593 0.009483 0.488486 0.181691
H2    H     H_    0.948293 0.722795 0.940566 0.195819
H3    H     H_    0.296407 0.990517 0.511514 0.181691
H4    H     H_    0.024488 0.379315 0.426183 0.196771
H5    H     H_    0.975511 0.620685 0.573817 0.196772
H6    H     H_    0.219774 0.226676 0.956502 0.166271
H7    H     H_    0.101227 0.403465 0.954740 0.183034
H8    H     H_    0.051707 0.277204 0.059433 0.195819
H9    H     H_    0.898773 0.596534 0.045260 0.183034
H10   H     H_    0.780227 0.773323 0.043498 0.166271
N1    N     N_2   0.954190 0.457600 0.473930 -0.168896
N2    N     N_2   0.045810 0.542400 0.526070 -0.168896
O1    O     O_R   0.388300 0.738660 0.506400 -0.612949
O2    O     O_3   0.717644 0.588869 0.949865 -0.629257
O3    O     O_R   0.611700 0.261340 0.493600 -0.612948
O4    O     O_R   0.679920 0.711490 0.489690 -0.628771
O5    O     O_R   0.320080 0.288510 0.510310 -0.628771
O6    O     O_R   0.333200 0.515510 0.649910 -0.613710
O7    O     O_R   0.666800 0.484490 0.350090 -0.613710
O8    O     O_R   0.624820 0.488340 0.633200 -0.608728
O9    O     O_R   0.375180 0.511660 0.366800 -0.608728
O10   O     O_3   0.282356 0.411130 0.050134 -0.629257
Zn1   Zn    Zn3+2 0.305280 0.518140 0.511160 0.955075
Zn2   Zn    Zn3+2 0.694720 0.481860 0.488840 0.955075

loop_
_geom_bond_atom_site_label_1
_geom_bond_atom_site_label_2
_ccdc_geom_bond_type
O3    Zn2   S    
N2    Zn1   S    
C7    O3    A    
N1    Zn2   S    
C9    C10   S    
O7    Zn2   S    
C2    C12   S    
C6    H10   S    
C5    H6    S    
C8    O8    A    
C13   C14   S    
C9    O7    A    
H4    N1    S    
O1    Zn1   S    
C4    C7    S    
C6    H9    S    
C1    O4    A    
O9    Zn1   S    
C12   O2    S    
C8    C11   S    
C11   C14   T    
C7    O5    A    
C4    H3    S    
C6    H2    S    
C3    C4    D    
C8    O6    A    
C5    O10   S    
C5    H7    S    
C12   C13   D    
O4    Zn2   S    
C13   O10   S    
C9    O9    A    
C1    O1    A    
H5    N2    S    
C3    H1    S    
N1    N2    D    
O6    Zn1   S    
C2    C10   T    
C6    O2    S    
C5    H8    S    
O5    Zn1   S    
C1    C3    S    
O8    Zn2   S    
