data_mof_unit_16408.cif
_audit_creation_date              2012-12-10T17:23:10-0500
_audit_creation_method            fapswitch 2.2
_symmetry_space_group_name_H-M    P1
_symmetry_Int_Tables_number       1
_space_group_crystal_system       triclinic
_cell_length_a                    15.856287
_cell_length_b                    10.786978
_cell_length_c                    9.633939
_cell_angle_alpha                 88.636515
_cell_angle_beta                  90.38452
_cell_angle_gamma                 94.23605
_cell_volume                      1642.81556327

loop_
_atom_site_label
_atom_site_type_symbol
_atom_type_description
_atom_site_fract_x
_atom_site_fract_y
_atom_site_fract_z
_atom_type_partial_charge
C1    C     C_R   0.492002 0.261770 0.501509 0.801084
C2    C     C_3   0.082946 0.494662 0.500800 0.142222
C3    C     C_3   0.974045 0.537524 0.622345 -0.183101
C4    C     C_3   0.916081 0.488524 0.503335 0.145358
C5    C     C_3   0.032159 0.610718 0.514091 -0.195221
C6    C     C_3   0.973417 0.559968 0.397446 0.159751
C7    C     C_1   0.174684 0.496663 0.499271 -0.050237
C8    C     C_1   0.824436 0.488358 0.503735 -0.051859
C9    C     C_R   0.396524 0.111334 0.724864 -0.213949
C10   C     C_R   0.357417 0.039925 0.831674 -0.171910
C11   C     C_R   0.354618 0.910735 0.829729 0.207064
C12   C     C_R   0.340017 0.499088 0.499607 0.800036
C13   C     C_R   0.391452 0.853019 0.718927 -0.198804
C14   C     C_R   0.433972 0.923664 0.611201 0.036438
C15   C     C_R   0.436977 0.055408 0.614637 0.108330
C16   C     C_R   0.475371 0.125802 0.502265 -0.163416
C17   C     C_R   0.489980 0.066298 0.378319 -0.229118
C18   C     C_R   0.477910 0.937845 0.369056 0.249041
C19   C     C_R   0.466527 0.866535 0.493406 -0.198656
C20   C     C_R   0.640896 0.631515 0.132824 0.309093
C21   C     C_R   0.713168 0.658754 0.050159 -0.226873
C22   C     C_R   0.704564 0.670178 0.908797 -0.276086
C23   C     C_R   0.488401 0.735363 0.498188 0.796436
C24   C     C_R   0.627348 0.638255 0.848696 -0.107638
C25   C     C_R   0.563665 0.567633 0.922616 0.162927
C26   C     C_R   0.566600 0.566049 0.072015 0.064236
C27   C     C_R   0.438774 0.434786 0.074709 0.337791
C28   C     C_R   0.439760 0.434445 0.926869 -0.124250
C29   C     C_R   0.659666 0.496277 0.500807 0.853969
C30   C     C_3   0.966832 0.372473 0.489868 -0.188623
C31   C     C_3   0.024395 0.446658 0.384362 0.161987
C32   C     C_1   0.250293 0.498006 0.498909 -0.182808
C33   C     C_1   0.749018 0.490708 0.502952 -0.195674
C34   C     C_3   0.026246 0.421769 0.609027 -0.182115
Cu1   Cu    Cu3+1 0.499990 0.499990 0.640660 0.923924
Cu2   Cu    Cu3+1 0.500010 0.500010 0.359340 0.973271
H1    H     H_    0.380776 0.753296 0.713980 0.165140
H2    H     H_    0.772429 0.696470 0.093417 0.167990
H3    H     H_    0.756061 0.712868 0.846793 0.161518
H4    H     H_    0.620845 0.669180 0.743718 0.202094
H5    H     H_    0.390748 0.380394 0.871980 0.133848
H6    H     H_    0.939693 0.275359 0.478681 0.141693
H7    H     H_    0.059270 0.708135 0.522496 0.141284
H8    H     H_    0.951964 0.574331 0.721332 0.139166
H9    H     H_    0.049373 0.365232 0.697221 0.140459
H10   H     H_    0.508537 0.121245 0.286896 0.177492
H11   H     H_    0.389478 0.209605 0.726780 0.159791
H12   H     H_    0.326935 0.085522 0.914665 0.138252
N1    N     N_R   0.500800 0.501210 0.147910 -0.204404
N2    N     N_R   0.500830 0.501290 0.852040 -0.204928
O1    O     O_R   0.499990 0.319640 0.618810 -0.581867
O2    O     O_R   0.500000 0.319660 0.381240 -0.573664
O3    O     O_R   0.379070 0.499980 0.618770 -0.600522
O4    O     O_R   0.379080 0.500000 0.381190 -0.543484
O5    O     O_R   0.500000 0.680340 0.618760 -0.610987
O6    O     O_R   0.500010 0.680360 0.381190 -0.549636
O7    O     O_R   0.620920 0.500000 0.618810 -0.587831
O8    O     O_R   0.620930 0.500020 0.381230 -0.541080
N3    N     N_3   0.053043 0.398131 0.254429 -0.602183
H13   H     H_    0.999521 0.377738 0.192893 0.210776
H14   H     H_    0.089293 0.469922 0.203337 0.208591
N4    N     N_3   0.312080 0.839248 0.939435 -0.607150
H15   H     H_    0.247514 0.851754 0.930166 0.212362
H16   H     H_    0.318993 0.744396 0.927735 0.210853
N5    N     N_2   0.469854 0.880112 0.236785 -0.428206
H17   H     H_    0.416898 0.819474 0.226098 0.277232
C35   C     C_3   0.495198 0.948601 0.110881 -0.697931
H18   H     H_    0.493785 0.883810 0.022933 0.247024
H19   H     H_    0.561001 0.990532 0.121085 0.221850
H20   H     H_    0.451179 0.021874 0.087860 0.236576
N6    N     N_2   0.375471 0.359831 0.147343 -0.378620
H21   H     H_    0.380277 0.266134 0.133234 0.224329
C36   C     C_3   0.289984 0.395299 0.125458 -0.685159
H22   H     H_    0.246944 0.342110 0.199486 0.244404
H23   H     H_    0.268243 0.374312 0.018132 0.193049
H24   H     H_    0.286326 0.496092 0.143907 0.240153
N7    N     N_2   0.634203 0.708454 0.249340 -0.357058
H25   H     H_    0.598356 0.780479 0.223110 0.288927
C37   C     C_3   0.709577 0.755941 0.323096 -0.704230
H26   H     H_    0.691773 0.782629 0.428953 0.219340
H27   H     H_    0.739075 0.839849 0.268170 0.211510
H28   H     H_    0.756490 0.685120 0.332343 0.243145
N8    N     N_3   0.943385 0.634514 0.281793 -0.610804
H29   H     H_    0.996207 0.667333 0.223817 0.210624
H30   H     H_    0.906313 0.574965 0.218145 0.207655

loop_
_geom_bond_atom_site_label_1
_geom_bond_atom_site_label_2
_ccdc_geom_bond_type
Cu1   O3    S    
C36   H22   S    
C2    C7    S    
C4    C8    S    
C11   N4    S    
C23   O6    A    
N7    H25   S    
C18   N5    S    
C20   N7    S    
Cu2   O8    S    
C5    C6    S    
C15   C16   A    
C29   C33   S    
C28   H5    S    
C18   C19   A    
C31   N3    S    
C25   N2    A    
N4    H16   S    
C28   N2    A    
C21   H2    S    
Cu1   Cu2   S    
C16   C17   A    
N5    C35   S    
C6    N8    S    
C9    C10   A    
C13   H1    S    
C12   O3    A    
Cu2   O2    S    
C2    C34   S    
C6    C31   S    
C5    H7    S    
N3    H13   S    
C13   C14   A    
C12   C32   S    
C36   H23   S    
N7    C37   S    
C3    H8    S    
N3    H14   S    
C30   C34   S    
Cu1   O5    S    
C35   H18   S    
C17   H10   S    
C4    C6    S    
C26   N1    A    
C37   H27   S    
C3    C34   S    
C25   C26   A    
C2    C31   S    
C35   H19   S    
C19   C23   S    
N4    H15   S    
Cu2   O6    S    
N8    H29   S    
C20   C21   A    
Cu1   N2    S    
C17   C18   A    
C1    C16   S    
C24   C25   A    
C1    O1    A    
C34   H9    S    
N8    H30   S    
C29   O7    A    
C9    H11   S    
Cu1   O1    S    
C36   H24   S    
C22   C24   A    
C2    C5    S    
C3    C4    S    
C27   N6    S    
N6    C36   S    
C7    C32   T    
C14   C19   A    
C3    C5    S    
C37   H28   S    
C23   O5    A    
Cu1   O7    S    
C35   H20   S    
C9    C15   A    
N6    H21   S    
C10   H12   S    
C11   C13   A    
C30   C31   S    
C20   C26   A    
C22   H3    S    
C24   H4    S    
C8    C33   T    
C1    O2    A    
C4    C30   S    
Cu2   O4    S    
C10   C11   A    
C37   H26   S    
C29   O8    A    
N5    H17   S    
C27   C28   A    
C14   C15   A    
C30   H6    S    
C21   C22   A    
C12   O4    A    
Cu2   N1    S    
C27   N1    A    
