data_mof_unit_52849.cif
_audit_creation_date              2012-12-10T17:05:46-0500
_audit_creation_method            fapswitch 2.2
_symmetry_space_group_name_H-M    P1
_symmetry_Int_Tables_number       1
_space_group_crystal_system       triclinic
_cell_length_a                    15.906219
_cell_length_b                    11.033659
_cell_length_c                    10.162463
_cell_angle_alpha                 111.765482
_cell_angle_beta                  99.171851
_cell_angle_gamma                 93.781072
_cell_volume                      1619.94141248

loop_
_atom_site_label
_atom_site_type_symbol
_atom_type_description
_atom_site_fract_x
_atom_site_fract_y
_atom_site_fract_z
_atom_type_partial_charge
C1    C     C_R   0.491776 0.253178 0.440033 0.812597
C2    C     C_2   0.474601 0.071751 0.520081 -0.185656
C3    C     C_2   0.516249 0.888908 0.590150 -0.077483
C4    C     C_R   0.340788 0.497589 0.498886 0.808094
C5    C     C_2   0.460458 0.933648 0.506902 0.169127
C6    C     C_2   0.507816 0.510757 0.080078 0.320466
C7    C     C_2   0.491975 0.487936 0.918907 0.327416
C8    C     C_R   0.507162 0.746245 0.559813 0.822839
C9    C     C_R   0.659480 0.506500 0.502254 0.802936
C10   C     C_3   0.063563 0.521292 0.651260 -0.038789
C11   C     C_3   0.029152 0.346453 0.373837 0.279275
C12   C     C_3   0.963054 0.510702 0.655438 0.157909
C13   C     C_3   0.926028 0.362839 0.364594 0.241425
C14   C     C_1   0.749628 0.515197 0.504732 -0.256806
C15   C     C_3   0.081689 0.485082 0.489242 0.102896
C16   C     C_3   0.929661 0.383880 0.680257 -0.346220
C17   C     C_3   0.936252 0.380605 0.832712 -0.380403
C18   C     C_3   0.895944 0.244978 0.816502 -0.917456
C19   C     C_3   0.935526 0.627858 0.784294 -0.326611
C20   C     C_3   0.002044 0.698263 0.926926 -0.359802
C21   C     C_3   0.963777 0.802380 0.038724 -0.927061
C22   C     C_3   0.908812 0.667160 0.339152 -0.286004
C23   C     C_3   0.916534 0.505316 0.496660 0.066624
C24   C     C_3   0.815684 0.698328 0.345264 -0.347309
C25   C     C_3   0.789696 0.781098 0.258086 -0.953710
C26   C     C_3   0.377469 0.850516 0.411026 -0.798702
C27   C     C_3   0.594882 0.981141 0.696247 -0.458384
C28   C     C_3   0.655719 0.917706 0.777453 -0.320047
C29   C     C_3   0.738578 0.010160 0.861749 -0.902460
C30   C     C_3   0.473528 0.011306 0.256198 -0.866556
C31   C     C_3   0.415378 0.389936 0.820149 -0.799402
C32   C     C_3   0.575967 0.621478 0.181705 -0.807491
C33   C     C_3   0.618147 0.639533 0.929361 -0.556112
C34   C     C_3   0.960345 0.632688 0.467244 0.288998
C35   C     C_3   0.122530 0.471720 0.754156 -0.870684
C36   C     C_3   0.400252 0.328545 0.063107 -0.539417
C37   C     C_3   0.061647 0.303995 0.222824 -0.315078
C38   C     C_3   0.032363 0.160770 0.110816 -0.375590
C39   C     C_3   0.072701 0.134288 0.977540 -0.890405
C40   C     C_3   0.058505 0.234259 0.424462 -0.897334
C41   C     C_3   0.871518 0.229615 0.353891 -0.368260
C42   C     C_3   0.772187 0.221041 0.335442 -0.329745
C43   C     C_3   0.728750 0.079550 0.281764 -0.916275
C44   C     C_3   0.884645 0.366190 0.215307 -0.853971
C45   C     C_3   0.055592 0.604643 0.446860 -0.094312
C46   C     C_3   0.083793 0.616802 0.311788 -0.938374
C47   C     C_3   0.973555 0.772374 0.595529 -0.933357
C48   C     C_1   0.824846 0.514719 0.500810 -0.059603
C49   C     C_1   0.175170 0.486864 0.494771 -0.037764
C50   C     C_1   0.250965 0.491512 0.496729 -0.211869
C51   C     C_2   0.479606 0.110025 0.408582 0.015489
Cu1   Cu    Cu3+1 0.514650 0.521810 0.644910 0.913325
Cu2   Cu    Cu3+1 0.485350 0.478190 0.355090 0.913415
H1    H     H_    0.088664 0.626774 0.705226 0.148346
H2    H     H_    0.963787 0.304566 0.628386 0.203805
H3    H     H_    0.942023 0.877443 0.997227 0.261112
H4    H     H_    0.908516 0.755089 0.064021 0.261328
H5    H     H_    0.012784 0.851920 0.139779 0.243721
H6    H     H_    0.023209 0.627364 0.974447 0.223019
H7    H     H_    0.059145 0.749181 0.909859 0.215420
H8    H     H_    0.906282 0.701786 0.752960 0.197936
H9    H     H_    0.876099 0.592391 0.810789 0.186796
H10   H     H_    0.836589 0.871720 0.294037 0.269870
H11   H     H_    0.785915 0.723065 0.141506 0.253787
H12   H     H_    0.482843 0.144741 0.629238 0.139157
H13   H     H_    0.725509 0.810195 0.273804 0.261547
H14   H     H_    0.770505 0.605594 0.297528 0.221084
H15   H     H_    0.805586 0.751652 0.456087 0.229019
H16   H     H_    0.946259 0.755144 0.337339 0.205904
H17   H     H_    0.906877 0.598991 0.228823 0.171937
H18   H     H_    0.331940 0.913053 0.382275 0.218487
H19   H     H_    0.390275 0.777599 0.309178 0.252965
H20   H     H_    0.345040 0.798863 0.468401 0.210355
H21   H     H_    0.776004 0.026913 0.785427 0.262247
H22   H     H_    0.724246 0.105762 0.936525 0.267483
H23   H     H_    0.101337 0.689290 0.530368 0.179443
H24   H     H_    0.778324 0.964507 0.925963 0.238713
H25   H     H_    0.623135 0.893923 0.855484 0.234946
H26   H     H_    0.673356 0.826191 0.699947 0.207623
H27   H     H_    0.632258 0.021870 0.634703 0.217820
H28   H     H_    0.572463 0.064475 0.778179 0.202866
H29   H     H_    0.489652 0.059895 0.183683 0.236174
H30   H     H_    0.519441 0.939735 0.255668 0.236787
H31   H     H_    0.407299 0.958155 0.211236 0.240574
H32   H     H_    0.354910 0.426952 0.848589 0.198877
H33   H     H_    0.407068 0.366446 0.706462 0.274398
H34   H     H_    0.826186 0.229223 0.769430 0.262294
H35   H     H_    0.421962 0.290497 0.817221 0.175782
H36   H     H_    0.638918 0.599867 0.155042 0.200546
H37   H     H_    0.557208 0.716874 0.183837 0.194930
H38   H     H_    0.590311 0.636360 0.293510 0.278871
H39   H     H_    0.639455 0.676667 0.851798 0.228349
H40   H     H_    0.612248 0.732563 0.016839 0.170117
H41   H     H_    0.669253 0.583151 0.954241 0.174360
H42   H     H_    0.129401 0.540369 0.868095 0.214293
H43   H     H_    0.100341 0.374214 0.751475 0.230240
H44   H     H_    0.189100 0.469946 0.735185 0.245455
H45   H     H_    0.927189 0.165555 0.745900 0.260889
H46   H     H_    0.375382 0.298954 0.143602 0.234058
H47   H     H_    0.341283 0.348075 0.005194 0.166832
H48   H     H_    0.430438 0.243395 0.000653 0.167052
H49   H     H_    0.061283 0.209739 0.931459 0.265294
H50   H     H_    0.143192 0.135682 0.006940 0.251406
H51   H     H_    0.044565 0.035788 0.893851 0.253978
H52   H     H_    0.053422 0.087822 0.155525 0.232117
H53   H     H_    0.961777 0.140026 0.076336 0.218462
H54   H     H_    0.049970 0.368867 0.165192 0.191656
H55   H     H_    0.132890 0.313309 0.244945 0.198038
H56   H     H_    0.903664 0.238361 0.922967 0.264454
H57   H     H_    0.124733 0.216343 0.407716 0.230359
H58   H     H_    0.064989 0.252764 0.537158 0.229588
H59   H     H_    0.017451 0.138213 0.365486 0.206258
H60   H     H_    0.747970 0.016759 0.180460 0.266730
H61   H     H_    0.745911 0.040555 0.367163 0.262149
H62   H     H_    0.657960 0.077374 0.259818 0.259188
H63   H     H_    0.754126 0.271712 0.440808 0.219728
H64   H     H_    0.743796 0.263980 0.258729 0.240568
H65   H     H_    0.883739 0.148638 0.257097 0.199023
H66   H     H_    0.893172 0.190518 0.435697 0.175752
H67   H     H_    0.003747 0.398666 0.890789 0.218903
H68   H     H_    0.927429 0.410013 0.167078 0.213089
H69   H     H_    0.860645 0.267708 0.129394 0.216405
H70   H     H_    0.826763 0.416232 0.222129 0.225468
H71   H     H_    0.092888 0.722268 0.326907 0.233929
H72   H     H_    0.146373 0.580877 0.296270 0.252662
H73   H     H_    0.037058 0.566852 0.209739 0.222629
H74   H     H_    0.913464 0.809310 0.624407 0.232878
H75   H     H_    0.017900 0.780993 0.694299 0.214453
H76   H     H_    0.005715 0.848915 0.566470 0.223477
H77   H     H_    0.900741 0.452842 0.902510 0.224973
H78   H     H_    0.860504 0.356659 0.631601 0.200913
N1    N     N_2   0.463320 0.445430 0.137380 -0.140258
N2    N     N_2   0.536720 0.554500 0.862620 -0.136005
O1    O     O_R   0.507820 0.332330 0.577400 -0.599050
O2    O     O_R   0.483070 0.295500 0.332660 -0.572629
O3    O     O_R   0.391820 0.518430 0.622420 -0.576790
O4    O     O_R   0.367070 0.481600 0.377680 -0.574474
O5    O     O_R   0.516930 0.704500 0.667340 -0.580064
O6    O     O_R   0.492180 0.667670 0.422600 -0.584444
O7    O     O_R   0.632930 0.518400 0.622320 -0.576693
O8    O     O_R   0.608180 0.481570 0.377580 -0.580063

loop_
_geom_bond_atom_site_label_1
_geom_bond_atom_site_label_2
_ccdc_geom_bond_type
C6    C32   S    
C30   C51   S    
C37   H54   S    
C38   H53   S    
C31   H32   S    
Cu1   O1    S    
C41   C42   S    
C46   H72   S    
C19   C20   S    
Cu2   O2    S    
C18   H56   S    
C2    H12   S    
C33   H41   S    
C13   C41   S    
C39   H51   S    
C40   H59   S    
C45   C46   S    
C12   C23   S    
C47   H76   S    
C8    O6    A    
Cu2   O4    S    
C28   C29   S    
C47   H75   S    
C7    N2    D    
C10   C15   S    
C36   N1    S    
C43   H61   S    
C38   C39   S    
C9    O7    A    
C32   H38   S    
C19   H9    S    
C44   H68   S    
C26   H20   S    
C26   H19   S    
C13   C23   S    
C8    O5    A    
C25   H10   S    
C30   H30   S    
C11   C37   S    
C28   H26   S    
C17   H67   S    
C43   H62   S    
C4    O4    A    
C11   C15   S    
C32   H37   S    
C12   C16   S    
C16   C17   S    
Cu1   O5    S    
C10   C35   S    
C23   C48   S    
C41   H65   S    
C20   H7    S    
C28   H25   S    
C22   H16   S    
C24   H14   S    
C4    O3    A    
C31   H33   S    
Cu1   N2    S    
C46   H71   S    
C40   H58   S    
C22   C34   S    
C7    C31   S    
C27   H28   S    
C24   C25   S    
C37   H55   S    
C6    N1    D    
C3    C8    S    
C33   H39   S    
Cu2   N1    S    
C9    O8    A    
C40   H57   S    
C29   H21   S    
C35   H43   S    
C4    C50   S    
C36   H48   S    
C25   H11   S    
C30   H29   S    
C9    C14   S    
C21   H4    S    
C37   C38   S    
C32   H36   S    
C23   C34   S    
C17   C18   S    
C36   H47   S    
C34   C45   S    
C41   H66   S    
C20   H6    S    
C47   H74   S    
C1    C51   S    
C10   C12   S    
C42   H63   S    
C27   H27   S    
C45   H23   S    
Cu1   O3    S    
C22   C24   S    
C2    C5    S    
C42   C43   S    
C15   C45   S    
C1    O1    A    
Cu1   Cu2   S    
C39   H49   S    
C31   H35   S    
C17   H77   S    
Cu2   O6    S    
C46   H73   S    
C25   H13   S    
C3    C5    D    
C33   H40   S    
C21   H3    S    
C14   C48   T    
C42   H64   S    
C39   H50   S    
C6    C7    S    
C29   H22   S    
C35   H42   S    
C16   H78   S    
C44   H70   S    
C18   H34   S    
C38   H52   S    
C3    C27   S    
C16   H2    S    
C21   H5    S    
C35   H44   S    
C43   H60   S    
C11   C13   S    
C26   H18   S    
C19   H8    S    
C12   C19   S    
C44   H69   S    
Cu1   O7    S    
C36   H46   S    
Cu2   O8    S    
C15   C49   S    
C30   H31   S    
C11   C40   S    
C10   H1    S    
C2    C51   D    
C24   H15   S    
C5    C26   S    
C33   N2    S    
C29   H24   S    
C20   C21   S    
C49   C50   T    
C27   C28   S    
C34   C47   S    
C18   H45   S    
C1    O2    A    
C22   H17   S    
C13   C44   S    
