data_mof_unit_59408.cif
_audit_creation_date              2013-03-05T15:54:53-0500
_audit_creation_method            fapswitch 2.2
_symmetry_space_group_name_H-M    P1
_symmetry_Int_Tables_number       1
_space_group_crystal_system       triclinic
_cell_length_a                    12.351597
_cell_length_b                    13.27848
_cell_length_c                    14.277804
_cell_angle_alpha                 93.221647
_cell_angle_beta                  107.681081
_cell_angle_gamma                 117.037789
_cell_volume                      1934.48049768

loop_
_atom_site_label
_atom_site_type_symbol
_atom_site_description
_atom_site_fract_x
_atom_site_fract_y
_atom_site_fract_z
_atom_type_partial_charge
O1    O     O_R   0.545970 0.684450 0.528810 -0.576573
O2    O     O_R   0.687130 0.639470 0.490120 -0.596616
C1    C     C_R   0.651226 0.714134 0.509210 0.775415
O3    O     O_R   0.519670 0.535100 0.660030 -0.584435
O4    O     O_R   0.660830 0.490120 0.621340 -0.604513
C2    C     C_R   0.617833 0.515848 0.686580 0.791729
Cu1   Cu    Cu3+1 0.416420 0.526630 0.522910 0.940049
Cu2   Cu    Cu3+1 0.583580 0.473370 0.477090 0.945607
O5    O     O_R   0.312870 0.360530 0.509880 -0.586929
O6    O     O_R   0.454030 0.315550 0.471190 -0.589172
O7    O     O_R   0.339170 0.509880 0.378660 -0.584211
O8    O     O_R   0.480330 0.464900 0.339970 -0.578126
C3    C     C_R   0.345203 0.285397 0.484950 0.804647
C4    C     C_R   0.380283 0.481579 0.313170 0.800916
C5    C     C_R   0.677188 0.515257 0.792346 -0.049057
C6    C     C_R   0.307027 0.463277 0.205521 -0.068958
C7    C     C_R   0.680709 0.522714 0.962755 -0.135788
C8    C     C_R   0.627538 0.530814 0.864431 -0.207641
C9    C     C_R   0.781441 0.493262 0.819866 -0.219480
C10   C     C_R   0.833060 0.479145 0.917153 0.045745
C11   C     C_R   0.782077 0.495198 0.990204 0.030967
C12   C     C_R   0.937071 0.453663 0.944038 0.070343
C13   C     C_R   0.000819 0.460062 0.046955 -0.000057
C14   C     C_R   0.944993 0.471541 0.117065 -0.269917
C15   C     C_R   0.835613 0.486288 0.089449 0.339422
C16   C     C_R   0.978500 0.420589 0.871270 -0.196899
C17   C     C_R   0.085824 0.403722 0.899685 -0.227111
C18   C     C_R   0.157324 0.421520 0.001311 0.162531
C19   C     C_R   0.116665 0.451503 0.076063 0.119385
C20   C     C_R   0.269583 0.409984 0.029124 -0.192267
C21   C     C_R   0.343348 0.429655 0.130693 -0.171698
C22   C     C_R   0.195953 0.475883 0.177779 -0.238669
H1    H     H_    0.174918 0.507946 0.237063 0.158759
H2    H     H_    0.428822 0.419095 0.150568 0.204144
H3    H     H_    0.114302 0.378494 0.841635 0.140884
H4    H     H_    0.642284 0.539350 0.016822 0.180455
H5    H     H_    0.547675 0.549377 0.845002 0.155810
H6    H     H_    0.822927 0.490100 0.764262 0.149480
H7    H     H_    0.980074 0.462824 0.193418 0.179291
H8    H     H_    0.927432 0.403194 0.791079 0.141093
H9    H     H_    0.300337 0.385828 0.972266 0.146355
C23   C     C_R   0.135353 0.968719 0.358818 -0.170470
H10   H     H_    0.318612 0.103808 0.361751 0.160303
H11   H     H_    0.913465 0.767627 0.295827 0.194226
H12   H     H_    0.131143 0.906324 0.303505 0.148951
C24   C     C_R   0.248513 0.162729 0.462723 -0.051737
C25   C     C_R   0.734491 0.920537 0.579425 -0.172246
C26   C     C_R   0.826116 0.037239 0.600021 -0.137258
C27   C     C_R   0.925814 0.072359 0.562426 -0.171195
C28   C     C_R   0.932998 0.990747 0.499666 0.089703
C29   C     C_R   0.830219 0.873786 0.469097 0.068484
C30   C     C_R   0.038124 0.021530 0.465441 0.079698
C31   C     C_R   0.032134 0.939181 0.393250 0.140610
C32   C     C_R   0.922099 0.829161 0.354610 -0.200280
C33   C     C_R   0.822101 0.796955 0.391322 -0.170616
C34   C     C_R   0.149973 0.131621 0.501636 -0.241705
C35   C     C_R   0.242930 0.080453 0.392962 -0.182433
C36   C     C_R   0.737277 0.837533 0.516283 -0.099583
H13   H     H_    0.162884 0.196041 0.559685 0.144402
H14   H     H_    0.662962 0.894980 0.615027 0.152292
H15   H     H_    0.993641 0.164329 0.581985 0.124333
H16   H     H_    0.822278 0.100677 0.648044 0.142388
H17   H     H_    0.737045 0.712086 0.355723 0.190711
C37   C     C_R   0.254171 0.686435 0.660204 -0.293685
H18   H     H_    0.442769 0.707487 0.678276 0.123420
H19   H     H_    0.075399 0.724839 0.692382 0.157848
H20   H     H_    0.294302 0.759350 0.722575 0.147840
N1    N     N_R   0.290690 0.566960 0.557640 -0.181318
C38   C     C_R   0.654386 0.340834 0.365122 0.069883
C39   C     C_R   0.731768 0.304549 0.336534 0.385631
C40   C     C_R   0.867286 0.364119 0.387555 -0.218213
C41   C     C_R   0.927586 0.461222 0.468319 -0.042965
C42   C     C_R   0.843759 0.494546 0.495430 0.283519
C43   C     C_R   0.067324 0.526170 0.523320 -0.007021
C44   C     C_R   0.119128 0.621542 0.604572 0.173273
C45   C     C_R   0.036148 0.651957 0.630152 -0.278949
C46   C     C_R   0.902071 0.590238 0.576890 -0.169757
C47   C     C_R   0.159176 0.501496 0.501793 0.020420
C48   C     C_R   0.338572 0.657512 0.635467 0.067905
N2    N     N_R   0.709100 0.433710 0.442970 -0.234491
H21   H     H_    0.128426 0.430934 0.441015 0.125228
H22   H     H_    0.549463 0.294319 0.325111 0.149278
H23   H     H_    0.922741 0.332785 0.362438 0.157198
H24   H     H_    0.847748 0.620776 0.602883 0.201925
N3    N     N_R   0.780559 0.491947 0.163665 0.107576
O9    O     O_R   0.857213 0.548832 0.256266 -0.411393
O10   O     O_R   0.656277 0.424719 0.143478 -0.381213
Cl1   Cl    Cl    0.658602 0.184197 0.235790 -0.595429

loop_
_geom_bond_atom_site_label_1
_geom_bond_atom_site_label_2
_geom_bond_distance
_ccdc_geom_bond_type
C5    C8    1.397397 A    
H18   C48   1.081861 S    
C9    C10   1.403936 A    
C39   Cl1   1.754602 S    
Cu1   Cu2   2.699467 S    
C31   C32   1.390884 A    
C6    C21   1.400591 A    
Cu1   O7    1.939999 S    
C16   C17   1.387620 A    
C13   C19   1.423024 A    
C18   C19   1.417541 A    
C8    H5    1.083182 S    
C19   C22   1.402847 A    
C23   C31   1.403110 A    
C3    C24   1.457137 S    
O7    C4    1.302240 A    
C14   H7    1.078167 S    
O5    C3    1.300071 A    
C38   H22   1.081788 S    
C2    C5    1.466976 S    
C42   N2    1.390572 A    
C33   H17   1.080237 S    
C28   C30   1.420286 A    
C13   C14   1.413649 A    
C20   H9    1.083995 S    
C39   C40   1.396054 A    
C7    H4    1.081064 S    
N1    C48   1.354400 A    
C25   H14   1.083384 S    
O3    Cu1   1.949396 S    
C23   C35   1.391903 A    
C28   C29   1.417342 A    
C40   H23   1.078158 S    
N3    O10   1.301119 A    
N1    C47   1.371736 A    
C27   H15   1.077325 S    
C43   C44   1.416423 A    
C37   H20   1.083866 S    
C14   C15   1.394520 A    
O3    C2    1.301012 A    
Cu1   N1    2.034302 S    
C46   H24   1.064937 S    
C17   H3    1.084391 S    
N3    O9    1.300847 A    
C7    C11   1.410203 A    
O1    C1    1.300536 A    
C23   H12   1.084048 S    
C5    C9    1.394751 A    
C44   C45   1.390726 A    
C9    H6    1.075892 S    
C26   H16   1.083088 S    
C25   C26   1.385928 A    
C20   C21   1.392780 A    
Cu2   O8    1.949396 S    
H19   C45   1.084531 S    
C15   N3    1.437382 S    
C7    C8    1.390981 A    
C21   H2    1.082524 S    
C29   C36   1.416794 A    
C45   C46   1.386914 A    
C41   C43   1.444560 A    
C26   C27   1.389092 A    
C10   C12   1.422167 A    
C24   C35   1.399240 A    
C12   C16   1.417797 A    
C37   C48   1.389771 A    
C4    C6    1.467466 S    
C30   C31   1.420214 A    
Cu1   O5    1.944126 S    
C11   C15   1.407105 A    
C32   C33   1.386153 A    
O1    Cu1   1.951607 S    
O2    Cu2   1.944127 S    
O8    C4    1.301401 A    
C41   C42   1.434715 A    
O6    C3    1.298338 A    
O4    Cu2   1.939999 S    
C6    C22   1.397597 A    
C34   H13   1.077077 S    
C22   H1    1.076518 S    
C18   C20   1.403293 A    
O2    C1    1.302563 A    
C40   C41   1.408917 A    
C25   C36   1.403705 A    
C47   H21   1.077044 S    
C16   H8    1.077617 S    
O4    C2    1.302347 A    
C37   C44   1.402570 A    
C29   C33   1.412802 A    
C38   C39   1.394928 A    
H10   C35   1.083327 S    
C1    C36   1.468864 S    
H11   C32   1.082933 S    
C10   C11   1.423331 A    
Cu2   O6    1.951607 S    
C27   C28   1.418366 A    
C43   C47   1.423866 A    
C24   C34   1.392909 A    
C17   C18   1.390864 A    
Cu2   N2    2.022511 S    
C42   C46   1.406786 A    
C12   C13   1.417295 A    
C38   N2    1.358293 A    
C30   C34   1.399270 A    
