data_mof_unit_38036.cif
_audit_creation_date              2012-12-11T15:17:47-0500
_audit_creation_method            fapswitch 2.2
_symmetry_space_group_name_H-M    P1
_symmetry_Int_Tables_number       1
_space_group_crystal_system       triclinic
_cell_length_a                    15.757014
_cell_length_b                    15.757015
_cell_length_c                    34.621149
_cell_angle_alpha                 89.964773
_cell_angle_beta                  89.964759
_cell_angle_gamma                 120.024656
_cell_volume                      7442.37750363

loop_
_atom_site_label
_atom_site_type_symbol
_atom_type_description
_atom_site_fract_x
_atom_site_fract_y
_atom_site_fract_z
_atom_type_partial_charge
C1    C     C_R   0.578436 0.441328 0.554894 0.554307
C2    C     C_R   0.512150 0.004346 0.209242 0.344181
C3    C     C_1   0.708003 0.084144 0.331409 0.249543
C4    C     C_1   0.376362 0.291382 0.331534 0.249471
C5    C     C_1   0.889592 0.604757 0.328877 0.246019
C6    C     C_R   0.493148 0.486210 0.208898 0.343402
C7    C     C_R   0.988961 0.502807 0.208423 0.344344
C8    C     C_R   0.018895 0.446107 0.849851 -0.116972
C9    C     C_R   0.552988 0.574497 0.849317 -0.115341
C10   C     C_R   0.429473 0.981530 0.849677 -0.051901
C11   C     C_R   0.446107 0.018895 0.349851 -0.116972
C12   C     C_R   0.574494 0.552989 0.349318 -0.115342
C13   C     C_R   0.981530 0.429472 0.349677 -0.051901
C14   C     C_R   0.043759 0.451119 0.889052 0.238328
C15   C     C_R   0.558508 0.137039 0.554876 0.554984
C16   C     C_R   0.548412 0.593952 0.888597 0.237842
C17   C     C_R   0.414329 0.962989 0.889254 0.237595
C18   C     C_R   0.451119 0.043759 0.389052 0.238327
C19   C     C_R   0.593950 0.548413 0.388598 0.237843
C20   C     C_R   0.962989 0.414327 0.389254 0.237594
C21   C     C_R   0.090078 0.623259 0.889081 -0.179082
C22   C     C_R   0.376643 0.466973 0.889081 -0.178743
C23   C     C_R   0.526317 0.898870 0.887835 -0.165633
C24   C     C_R   0.623258 0.090075 0.389081 -0.179082
C25   C     C_R   0.466973 0.376643 0.389081 -0.178743
C26   C     C_R   0.862823 0.421482 0.554905 0.551239
C27   C     C_R   0.898876 0.526321 0.387836 -0.165633
C28   C     C_R   0.066156 0.618432 0.850064 -0.031505
C29   C     C_R   0.381030 0.448292 0.849984 -0.029059
C30   C     C_R   0.542297 0.918678 0.848464 -0.031039
C31   C     C_R   0.618431 0.066152 0.350064 -0.031505
C32   C     C_R   0.448292 0.381030 0.349984 -0.029059
C33   C     C_R   0.918686 0.542303 0.348465 -0.031039
C34   C     C_R   0.033768 0.529846 0.829657 -0.013185
C35   C     C_R   0.469189 0.505203 0.829330 -0.012362
C36   C     C_R   0.490829 0.957385 0.828691 -0.030600
C37   C     C_R   0.441328 0.578436 0.054894 0.554307
C38   C     C_R   0.529845 0.033766 0.329657 -0.013186
C39   C     C_R   0.505202 0.469191 0.329330 -0.012361
C40   C     C_R   0.957389 0.490832 0.328692 -0.030601
C41   C     C_R   0.084304 0.541916 0.908262 0.047223
C42   C     C_R   0.457980 0.542863 0.908101 0.047154
C43   C     C_R   0.458466 0.915157 0.908157 -0.007279
C44   C     C_R   0.541915 0.084304 0.408262 0.047223
C45   C     C_R   0.542862 0.457981 0.408102 0.047153
C46   C     C_R   0.915159 0.458466 0.408157 -0.007280
C47   C     C_R   0.578109 0.441946 0.445359 0.583431
C48   C     C_R   0.137039 0.558508 0.054876 0.554985
C49   C     C_R   0.558076 0.136117 0.445388 0.584800
C50   C     C_R   0.864387 0.422369 0.445514 0.538984
C51   C     C_R   0.441946 0.578109 0.945359 0.583431
C52   C     C_R   0.136117 0.558076 0.945388 0.584801
C53   C     C_R   0.422369 0.864387 0.945514 0.538983
C54   C     C_R   0.919076 0.456807 0.590926 0.023086
C55   C     C_R   0.542738 0.462361 0.590809 0.024141
C56   C     C_R   0.536605 0.079631 0.590663 0.024295
C57   C     C_R   0.456807 0.919076 0.090926 0.023086
C58   C     C_R   0.462361 0.542738 0.090809 0.024141
C59   C     C_R   0.421482 0.862824 0.054905 0.551239
C60   C     C_R   0.079631 0.536605 0.090663 0.024295
C61   C     C_R   0.952179 0.400085 0.609908 -0.126814
C62   C     C_R   0.599051 0.552477 0.609625 -0.125384
C63   C     C_R   0.446314 0.046241 0.609379 -0.125052
C64   C     C_R   0.400085 0.952179 0.109909 -0.126814
C65   C     C_R   0.552476 0.599052 0.109626 -0.125384
C66   C     C_R   0.046242 0.446315 0.109379 -0.125052
C67   C     C_R   0.985929 0.421796 0.647802 -0.113793
C68   C     C_R   0.576870 0.564817 0.647421 -0.113760
C69   C     C_R   0.432959 0.010751 0.647051 -0.114060
C70   C     C_R   0.004347 0.512150 0.709242 0.344182
C71   C     C_R   0.421795 0.985929 0.147802 -0.113793
C72   C     C_R   0.564816 0.576871 0.147422 -0.113760
C73   C     C_R   0.010753 0.432960 0.147052 -0.114060
C74   C     C_R   0.986734 0.500358 0.667313 0.034851
C75   C     C_R   0.498262 0.487060 0.667001 0.034799
C76   C     C_R   0.509784 0.008294 0.666595 0.034588
C77   C     C_R   0.500357 0.986734 0.167313 0.034851
C78   C     C_R   0.487059 0.498263 0.167001 0.034799
C79   C     C_R   0.008295 0.509785 0.166596 0.034588
C80   C     C_R   0.961604 0.561980 0.647144 -0.114116
C81   C     C_R   0.486208 0.493150 0.708898 0.343403
C82   C     C_R   0.437033 0.399980 0.646974 -0.114191
C83   C     C_R   0.596966 0.033691 0.646631 -0.113944
C84   C     C_R   0.561980 0.961603 0.147144 -0.114116
C85   C     C_R   0.399979 0.437034 0.146974 -0.114191
C86   C     C_R   0.033692 0.596967 0.146632 -0.113944
C87   C     C_R   0.928194 0.540467 0.609222 -0.127536
C88   C     C_R   0.459006 0.387788 0.609145 -0.127852
C89   C     C_R   0.610252 0.069048 0.608943 -0.127845
C90   C     C_R   0.540467 0.928194 0.109222 -0.127536
C91   C     C_R   0.387788 0.459007 0.109145 -0.127852
C92   C     C_R   0.502805 0.988959 0.708423 0.344344
C93   C     C_R   0.069048 0.610253 0.108943 -0.127845
C94   C     C_R   0.021792 0.523379 0.787264 0.346195
C95   C     C_R   0.475189 0.499716 0.786919 0.346154
C96   C     C_R   0.495844 0.969328 0.786350 0.341237
C97   C     C_R   0.523378 0.021790 0.287264 0.346194
C98   C     C_R   0.499715 0.475191 0.286920 0.346152
C99   C     C_R   0.969331 0.495846 0.286350 0.341237
C100  C     C_1   0.084150 0.708005 0.831408 0.249542
C101  C     C_1   0.291381 0.376361 0.831534 0.249472
C102  C     C_1   0.604746 0.889579 0.828875 0.246017
Cr1   Cr    Cr6+3 0.522350 0.263930 0.500020 1.052075
Cr2   Cr    Cr6+3 0.736070 0.258420 0.500020 1.036255
Cr3   Cr    Cr6+3 0.741580 0.477650 0.500020 1.051892
Cr4   Cr    Cr6+3 0.263930 0.522350 0.000020 1.052075
Cr5   Cr    Cr6+3 0.258420 0.736070 0.000020 1.036254
Cr6   Cr    Cr6+3 0.477650 0.741580 0.000020 1.051892
H1    H     H_    0.946759 0.335660 0.596315 0.135823
H2    H     H_    0.586015 0.903967 0.095115 0.133371
H3    H     H_    0.317799 0.413763 0.095155 0.133282
H4    H     H_    0.093448 0.680316 0.095020 0.133056
H5    H     H_    0.006111 0.373690 0.662409 0.145620
H6    H     H_    0.624691 0.633335 0.661922 0.146138
H7    H     H_    0.364362 0.990348 0.661475 0.145995
H8    H     H_    0.373689 0.006110 0.162409 0.145621
H9    H     H_    0.633333 0.624692 0.161922 0.146138
H10   H     H_    0.990350 0.364363 0.161476 0.145995
H11   H     H_    0.963004 0.624036 0.661205 0.144743
H12   H     H_    0.663504 0.611514 0.595985 0.137594
H13   H     H_    0.374957 0.339310 0.661092 0.144914
H14   H     H_    0.656992 0.031146 0.660717 0.144905
H15   H     H_    0.624036 0.963004 0.161205 0.144743
H16   H     H_    0.339309 0.374959 0.161092 0.144914
H17   H     H_    0.031147 0.656992 0.160717 0.144905
H18   H     H_    0.991035 0.377092 0.834684 0.138166
H19   H     H_    0.621696 0.616239 0.833942 0.140514
H20   H     H_    0.392137 0.014515 0.835166 0.175601
H21   H     H_    0.377092 0.991036 0.334684 0.138167
H22   H     H_    0.616235 0.621698 0.333943 0.140511
H23   H     H_    0.387912 0.052683 0.595766 0.137817
H24   H     H_    0.014513 0.392134 0.335166 0.175602
H25   H     H_    0.120326 0.693279 0.903744 0.157186
H26   H     H_    0.306897 0.426601 0.903956 0.157188
H27   H     H_    0.561650 0.863190 0.901925 0.162754
H28   H     H_    0.693277 0.120321 0.403744 0.157186
H29   H     H_    0.426603 0.306896 0.403955 0.157189
H30   H     H_    0.863200 0.561656 0.401926 0.162753
H31   H     H_    0.003930 0.312487 0.890759 0.329658
H32   H     H_    0.686747 0.693824 0.889897 0.330173
H33   H     H_    0.371557 0.999353 0.935674 0.338837
H34   H     H_    0.335659 0.946758 0.096315 0.135823
H35   H     H_    0.312489 0.003935 0.390758 0.329660
H36   H     H_    0.693816 0.686750 0.389898 0.330173
H37   H     H_    0.999351 0.371553 0.435673 0.338837
H38   H     H_    0.611514 0.663504 0.095986 0.137594
H39   H     H_    0.052684 0.387913 0.095767 0.137817
H40   H     H_    0.903967 0.586014 0.595115 0.133371
H41   H     H_    0.413762 0.317800 0.595155 0.133282
H42   H     H_    0.680316 0.093448 0.595020 0.133056
N1    N     N_R   0.036951 0.458228 0.767147 -0.210409
N2    N     N_R   0.452489 0.028097 0.228925 -0.217565
N3    N     N_R   0.576931 0.545366 0.228439 -0.216124
N4    N     N_R   0.969371 0.420692 0.228301 -0.215446
N5    N     N_R   0.989126 0.577289 0.729349 -0.216386
N6    N     N_R   0.421598 0.412641 0.729142 -0.215990
N7    N     N_R   0.581451 0.998891 0.728303 -0.216713
N8    N     N_R   0.577290 0.989127 0.229349 -0.216386
N9    N     N_R   0.412638 0.421602 0.229143 -0.215990
N10   N     N_R   0.998893 0.581453 0.228303 -0.216712
N11   N     N_R   0.997858 0.582908 0.767597 -0.193912
N12   N     N_R   0.539730 0.580215 0.766664 -0.207084
N13   N     N_R   0.416084 0.415922 0.767390 -0.191648
N14   N     N_R   0.577966 0.989116 0.766499 -0.191363
N15   N     N_R   0.582909 0.997859 0.267597 -0.193912
N16   N     N_R   0.415919 0.416089 0.267391 -0.191648
N17   N     N_R   0.989118 0.577968 0.266499 -0.191363
N18   N     N_1   0.098810 0.779964 0.816576 -0.228526
N19   N     N_1   0.219357 0.318782 0.816871 -0.239446
N20   N     N_1   0.654653 0.865967 0.813309 -0.243419
N21   N     N_1   0.779962 0.098801 0.316577 -0.228525
N22   N     N_1   0.318784 0.219358 0.316870 -0.239447
N23   N     N_R   0.417191 0.959504 0.766506 -0.209400
N24   N     N_1   0.865986 0.654668 0.313311 -0.243416
N25   N     N_R   0.458226 0.036947 0.267147 -0.210410
N26   N     N_R   0.580214 0.539730 0.266664 -0.207085
N27   N     N_R   0.959508 0.417193 0.266507 -0.209402
N28   N     N_R   0.028100 0.452491 0.728924 -0.217564
N29   N     N_R   0.545366 0.576932 0.728439 -0.216124
N30   N     N_R   0.420689 0.969368 0.728300 -0.215447
O1    O     O_R   0.498680 0.159540 0.541860 -0.517104
O2    O     O_R   0.358060 0.532760 0.040030 -0.508387
O3    O     O_R   0.174700 0.641940 0.040030 -0.506557
O4    O     O_R   0.467240 0.825300 0.040030 -0.507018
O5    O     O_R   0.498590 0.161190 0.456930 -0.449252
O6    O     O_R   0.838810 0.337400 0.456930 -0.498076
O7    O     O_R   0.662600 0.501410 0.456930 -0.450187
O8    O     O_R   0.161190 0.498590 0.956930 -0.449252
O9    O     O_R   0.337400 0.838810 0.956930 -0.498077
O10   O     O_R   0.501410 0.662600 0.956930 -0.450188
O11   O     O_R   0.532680 0.359580 0.461300 -0.523832
O12   O     O_R   0.840460 0.339140 0.541860 -0.520343
O13   O     O_R   0.640420 0.173100 0.461300 -0.520822
O14   O     O_R   0.826900 0.467320 0.461300 -0.507714
O15   O     O_R   0.359580 0.532680 0.961300 -0.523833
O16   O     O_R   0.173100 0.640420 0.961300 -0.520823
O17   O     O_R   0.467320 0.826900 0.961300 -0.507714
O18   O     O_3   0.666667 0.333333 0.499990 -0.260051
O19   O     O_3   0.333333 0.666667 0.999990 -0.260052
O20   O     O_3   0.032469 0.369487 0.908512 -0.668382
O21   O     O_3   0.630075 0.664720 0.907857 -0.668944
O22   O     O_3   0.354362 0.990349 0.907892 -0.671776
O23   O     O_R   0.660860 0.501320 0.541860 -0.516820
O24   O     O_3   0.369488 0.032472 0.408511 -0.668384
O25   O     O_3   0.664717 0.630076 0.407858 -0.668944
O26   O     O_3   0.990344 0.354357 0.407892 -0.671776
O27   O     O_R   0.159540 0.498680 0.041860 -0.517104
O28   O     O_R   0.339140 0.840460 0.041860 -0.520342
O29   O     O_R   0.501320 0.660860 0.041860 -0.516820
O30   O     O_R   0.532760 0.358060 0.540030 -0.508387
O31   O     O_R   0.641940 0.174700 0.540030 -0.506557
O32   O     O_R   0.825300 0.467240 0.540030 -0.507019

loop_
_geom_bond_atom_site_label_1
_geom_bond_atom_site_label_2
_ccdc_geom_bond_type
C44   C49   S    
C59   O28   A    
C11   C18   A    
C102  N20   T    
C97   N25   A    
C22   C29   A    
C25   C45   A    
C4    C32   S    
C5    N24   T    
Cr1   O5    S    
C20   O26   S    
C61   H1    S    
C32   C39   A    
C40   C99   S    
C6    N9    A    
C85   C91   A    
C67   H5    S    
N5    N11   A    
C68   C75   A    
C49   O13   A    
N3    N26   A    
C9    H19   S    
C81   N6    A    
C12   H22   S    
C69   C76   A    
C9    C16   A    
C99   N27   A    
C80   C87   A    
C18   C44   A    
C54   C87   A    
C82   C88   A    
C6    C78   S    
C10   C17   A    
Cr2   O12   S    
C55   C62   A    
C26   C54   S    
Cr6   O17   S    
C23   C43   A    
Cr1   O30   S    
C85   H16   S    
C88   H41   S    
C64   C71   A    
C91   H3    S    
C55   C88   A    
C36   C96   S    
Cr5   O16   S    
C13   C40   A    
C72   C78   A    
C92   N30   A    
N2    N25   A    
C43   C53   S    
Cr4   O2    S    
C63   C69   A    
N6    N13   A    
C5    C33   S    
C72   H9    S    
C70   C74   S    
C15   O31   A    
Cr2   O13   S    
C101  N19   T    
C63   H23   S    
C58   C91   A    
C41   C52   S    
C62   H12   S    
C37   C58   S    
C42   C51   S    
C60   C93   A    
C24   H28   S    
C25   C32   A    
H35   O24   S    
C80   H11   S    
C28   C34   A    
C74   C80   A    
C86   H17   S    
Cr6   O10   S    
C17   O22   S    
C84   C90   A    
N10   N17   A    
C38   C97   S    
C10   H20   S    
C11   H21   S    
C76   C83   A    
C21   H25   S    
H37   O26   S    
C48   O27   A    
C48   C60   S    
C99   N17   A    
C45   C47   S    
C2    N2    A    
Cr3   O14   S    
C83   C89   A    
C27   H30   S    
C66   H39   S    
C57   C90   A    
Cr6   O4    S    
C70   N5    A    
C33   C40   A    
C23   C30   A    
H33   O22   S    
C81   N29   A    
C87   H40   S    
C95   N12   A    
Cr4   O27   S    
C26   O12   A    
H31   O20   S    
C70   N28   A    
C39   C98   S    
C7    N10   A    
C77   C84   A    
C69   H7    S    
C94   N1    A    
C66   C73   A    
C14   O20   S    
C12   C39   A    
C27   C33   A    
C96   N14   A    
Cr5   O3    S    
C92   N7    A    
C84   H15   S    
Cr1   O18   S    
C11   C38   A    
C25   H29   S    
C30   C36   A    
C17   C43   A    
Cr5   O28   S    
C86   C93   A    
C95   N13   A    
C98   N26   A    
C61   C67   A    
C58   C65   A    
N7    N14   A    
C2    N8    A    
Cr5   O9    S    
C73   C79   A    
C56   C63   A    
C29   C101  S    
C67   C74   A    
C8    C34   A    
C3    C31   S    
Cr3   O32   S    
C94   N11   A    
C37   O29   A    
N12   N29   A    
C98   N16   A    
C51   O10   A    
C30   C102  S    
C76   C92   S    
C14   C41   A    
C21   C41   A    
C27   C46   A    
C8    H18   S    
C56   C89   A    
C21   C28   A    
C22   H26   S    
C35   C95   S    
C3    N21   T    
C24   C44   A    
Cr1   O11   S    
C90   H2    S    
C47   O7    A    
C16   O21   S    
C1    O23   A    
C16   C42   A    
C71   C77   A    
C78   C85   A    
C57   C64   A    
C7    C79   S    
H36   O25   S    
C29   C35   A    
C89   H42   S    
C8    C14   A    
C73   H10   S    
C4    N22   T    
C13   C20   A    
C18   O24   S    
C1    O30   A    
Cr1   O1    S    
Cr2   O18   S    
Cr6   O29   S    
C34   C94   S    
C52   O16   A    
N1    N28   A    
C48   O3    A    
C10   C36   A    
C19   C45   A    
C75   C82   A    
Cr4   O15   S    
C54   C61   A    
C75   C81   S    
C65   C72   A    
Cr2   O6    S    
C46   C50   S    
N23   N30   A    
N9    N16   A    
C23   H27   S    
C100  N18   T    
C53   O17   A    
C15   C56   S    
Cr3   O7    S    
C31   C38   A    
Cr3   O18   S    
C24   C31   A    
Cr4   O8    S    
C2    C77   S    
C51   O15   A    
H32   O21   S    
Cr5   O19   S    
C50   O14   A    
C28   C100  S    
C22   C42   A    
C7    N4    A    
C64   H34   S    
Cr6   O19   S    
C97   N15   A    
C37   O2    A    
C15   O1    A    
C12   C19   A    
C13   H24   S    
C71   H8    S    
C1    C55   S    
C62   C68   A    
C83   H14   S    
C47   O11   A    
C59   O4    A    
C6    N3    A    
C57   C59   S    
C93   H4    S    
C60   C66   A    
Cr3   O23   S    
C49   O5    A    
C19   O25   S    
N4    N27   A    
C9    C35   A    
C82   H13   S    
C26   O32   A    
C96   N23   A    
C52   O8    A    
Cr2   O31   S    
C65   H38   S    
C53   O9    A    
C79   C86   A    
C20   C46   A    
N8    N15   A    
C68   H6    S    
Cr4   O19   S    
C50   O6    A    
