data_mof_unit_20941.cif
_audit_creation_date              2012-12-10T17:32:59-0500
_audit_creation_method            fapswitch 2.2
_symmetry_space_group_name_H-M    P1
_symmetry_Int_Tables_number       1
_space_group_crystal_system       triclinic
_cell_length_a                    12.35897
_cell_length_b                    13.291852
_cell_length_c                    14.202008
_cell_angle_alpha                 93.571365
_cell_angle_beta                  107.317965
_cell_angle_gamma                 117.102856
_cell_volume                      1928.16673525

loop_
_atom_site_label
_atom_site_type_symbol
_atom_type_description
_atom_site_fract_x
_atom_site_fract_y
_atom_site_fract_z
_atom_type_partial_charge
C1    C     C_R   0.650982 0.714040 0.508763 0.779933
C2    C     C_R   0.879034 0.542075 0.924761 0.088577
C3    C     C_R   0.839776 0.571272 0.001348 0.121792
C4    C     C_R   0.992742 0.530293 0.952168 0.076281
C5    C     C_R   0.056528 0.535998 0.055465 0.064940
C6    C     C_R   0.016548 0.569274 0.129697 -0.221486
C7    C     C_R   0.910515 0.586898 0.102810 -0.223373
C8    C     C_R   0.046257 0.515065 0.880567 -0.227474
C9    C     C_R   0.153939 0.498892 0.908479 -0.233176
C10   C     C_R   0.210143 0.494477 0.007782 0.165341
C11   C     C_R   0.160310 0.510812 0.081678 0.087712
C12   C     C_R   0.619423 0.518777 0.687650 0.804991
C13   C     C_R   0.315826 0.473725 0.034259 -0.203857
C14   C     C_R   0.372594 0.469074 0.133541 -0.199103
C15   C     C_R   0.214045 0.498656 0.179249 -0.249043
C16   C     C_R   0.139855 0.966777 0.361870 -0.190253
C17   C     C_R   0.249050 0.162455 0.463033 -0.049981
C18   C     C_R   0.730970 0.920862 0.575456 -0.187077
C19   C     C_R   0.821292 0.037738 0.594659 -0.144050
C20   C     C_R   0.922111 0.072487 0.557992 -0.182985
C21   C     C_R   0.931826 0.990181 0.497575 0.080102
C22   C     C_R   0.830252 0.872760 0.467927 0.081657
C23   C     C_R   0.345233 0.285320 0.484965 0.804042
C24   C     C_R   0.038349 0.020721 0.464804 0.074237
C25   C     C_R   0.035191 0.937326 0.394858 0.168134
C26   C     C_R   0.926523 0.826337 0.356985 -0.240246
C27   C     C_R   0.824752 0.794791 0.391912 -0.199572
C28   C     C_R   0.149021 0.131576 0.500575 -0.254570
C29   C     C_R   0.246123 0.079313 0.395282 -0.193823
C30   C     C_R   0.736125 0.837169 0.514429 -0.102388
C31   C     C_R   0.253964 0.688064 0.659667 -0.298686
C32   C     C_R   0.654901 0.341625 0.363767 0.067680
C33   C     C_R   0.732531 0.306583 0.333871 -0.251522
C34   C     C_R   0.382197 0.483622 0.313097 0.792827
C35   C     C_R   0.867690 0.365864 0.385136 -0.194210
C36   C     C_R   0.927720 0.461882 0.467579 -0.007372
C37   C     C_R   0.843761 0.494871 0.495455 0.289631
C38   C     C_R   0.067323 0.526459 0.523118 -0.038896
C39   C     C_R   0.119020 0.622391 0.604529 0.174185
C40   C     C_R   0.036117 0.652969 0.630455 -0.292923
C41   C     C_R   0.902131 0.590899 0.577385 -0.195848
C42   C     C_R   0.159135 0.500923 0.502003 0.011610
C43   C     C_R   0.338391 0.659221 0.634508 0.065673
C44   C     C_R   0.690628 0.536309 0.797107 -0.074287
C45   C     C_R   0.321640 0.481729 0.206543 -0.052827
C46   C     C_R   0.729760 0.584803 0.976425 -0.196692
C47   C     C_R   0.654713 0.568675 0.875362 0.177573
C48   C     C_R   0.800933 0.522327 0.823346 -0.309309
Cu1   Cu    Cu3+1 0.416420 0.526630 0.522910 0.928906
Cu2   Cu    Cu3+1 0.583580 0.473370 0.477090 0.920191
H1    H     H_    0.882633 0.611464 0.162084 0.135240
H2    H     H_    0.354900 0.461680 0.978301 0.136349
H3    H     H_    0.323056 0.102405 0.365186 0.148207
H4    H     H_    0.920281 0.763383 0.300333 0.136385
H5    H     H_    0.137789 0.903636 0.308203 0.137428
H6    H     H_    0.159938 0.196671 0.557386 0.146080
H7    H     H_    0.658487 0.895810 0.610425 0.151238
H8    H     H_    0.988780 0.164664 0.576348 0.128828
H9    H     H_    0.815536 0.101685 0.640924 0.144396
H10   H     H_    0.740538 0.709385 0.356291 0.173153
H11   H     H_    0.442526 0.710957 0.676008 0.114913
H12   H     H_    0.171953 0.499804 0.235328 0.150334
H13   H     H_    0.075370 0.726238 0.692907 0.157746
H14   H     H_    0.294109 0.761934 0.721713 0.139764
H15   H     H_    0.128123 0.429182 0.441657 0.122531
H16   H     H_    0.550242 0.294804 0.323334 0.123008
H17   H     H_    0.922812 0.334945 0.358666 0.136591
H18   H     H_    0.687637 0.232984 0.270574 0.146548
H19   H     H_    0.847937 0.621755 0.603596 0.208021
H20   H     H_    0.455966 0.455707 0.153048 0.152214
H21   H     H_    0.192420 0.488312 0.851519 0.148626
H22   H     H_    0.702350 0.608258 0.036599 0.132418
H23   H     H_    0.822721 0.492985 0.762799 0.168556
H24   H     H_    0.067604 0.586066 0.210024 0.144969
H25   H     H_    0.009806 0.518756 0.802635 0.154450
N1    N     N_R   0.290690 0.566960 0.557640 -0.175878
N2    N     N_R   0.709100 0.433710 0.442970 -0.204053
O1    O     O_R   0.545970 0.684450 0.528810 -0.578866
O2    O     O_R   0.687130 0.639470 0.490120 -0.602691
O3    O     O_R   0.519670 0.535100 0.660030 -0.574568
O4    O     O_R   0.660830 0.490120 0.621340 -0.600421
O5    O     O_R   0.312870 0.360530 0.509880 -0.586865
O6    O     O_R   0.454030 0.315550 0.471190 -0.584065
O7    O     O_R   0.339170 0.509880 0.378660 -0.584177
O8    O     O_R   0.480330 0.464900 0.339970 -0.595513
C49   C     C_3   0.538799 0.587039 0.855263 -0.848424
H26   H     H_    0.552858 0.659794 0.817047 0.234404
H27   H     H_    0.447430 0.506135 0.808229 0.240536
H28   H     H_    0.526853 0.610712 0.926412 0.211600

loop_
_geom_bond_atom_site_label_1
_geom_bond_atom_site_label_2
_ccdc_geom_bond_type
C23   O5    A    
C17   C29   A    
C35   C36   A    
C4    C8    A    
Cu2   O2    S    
C28   H6    S    
C26   C27   A    
C17   C23   S    
C40   H13   S    
C31   C43   A    
Cu1   O7    S    
C32   H16   S    
C36   C37   A    
C5    C11   A    
C3    C7    A    
C27   H10   S    
C38   C39   A    
C49   H27   S    
C16   C25   A    
Cu1   O1    S    
C18   C19   A    
Cu2   O8    S    
C32   N2    A    
C11   C15   A    
C19   C20   A    
C8    C9    A    
C42   H15   S    
C18   C30   A    
C9    C10   A    
C46   H22   S    
C44   C47   A    
C21   C22   A    
C1    O1    A    
C14   H20   S    
C34   O7    A    
C26   H4    S    
Cu2   O6    S    
C6    H24   S    
C14   C45   A    
C47   C49   S    
C24   C28   A    
C24   C25   A    
C39   C40   A    
C49   H26   S    
C2    C48   A    
C25   C26   A    
C37   N2    A    
C10   C13   A    
C8    H25   S    
C34   O8    A    
Cu1   O5    S    
C2    C4    A    
C13   H2    S    
C18   H7    S    
C35   H17   S    
Cu1   N1    S    
C34   C45   S    
C23   O6    A    
C40   C41   A    
C22   C27   A    
C1    O2    A    
C15   C45   A    
C20   H8    S    
Cu2   N2    S    
C43   H11   S    
C41   H19   S    
C43   N1    A    
C46   C47   A    
C22   C30   A    
C17   C28   A    
C31   H14   S    
C9    H21   S    
C48   H23   S    
C4    C5    A    
C49   H28   S    
C38   C42   A    
C6    C7    A    
C3    C46   A    
C42   N1    A    
Cu1   O3    S    
C19   H9    S    
C32   C33   A    
C36   C38   A    
C2    C3    A    
C16   C29   A    
C16   H5    S    
C7    H1    S    
C12   C44   S    
C5    C6    A    
C29   H3    S    
C12   O3    A    
C1    C30   S    
C33   C35   A    
C15   H12   S    
C31   C39   A    
C12   O4    A    
C37   C41   A    
C10   C11   A    
C20   C21   A    
C33   H18   S    
Cu1   Cu2   S    
C21   C24   A    
C13   C14   A    
C44   C48   A    
Cu2   O4    S    
