data_mof_unit_35546.cif
_audit_creation_date              2013-03-05T15:49:15-0500
_audit_creation_method            fapswitch 2.2
_symmetry_space_group_name_H-M    P1
_symmetry_Int_Tables_number       1
_space_group_crystal_system       triclinic
_cell_length_a                    15.841663
_cell_length_b                    13.000964
_cell_length_c                    11.84138
_cell_angle_alpha                 98.955642
_cell_angle_beta                  93.487066
_cell_angle_gamma                 93.97117
_cell_volume                      2396.94559368

loop_
_atom_site_label
_atom_site_type_symbol
_atom_site_description
_atom_site_fract_x
_atom_site_fract_y
_atom_site_fract_z
_atom_type_partial_charge
O1    O     O_R   0.504400 0.354460 0.582000 -0.557055
O2    O     O_R   0.495600 0.645540 0.418000 -0.582392
O3    O     O_R   0.493920 0.341410 0.386200 -0.588639
O4    O     O_R   0.506080 0.658590 0.613800 -0.535334
C1    C     C_R   0.501322 0.300127 0.479242 0.791122
C2    C     C_R   0.496967 0.700121 0.521058 0.825649
O5    O     O_R   0.384320 0.506520 0.597880 -0.563279
O6    O     O_R   0.615680 0.493480 0.402120 -0.545296
O7    O     O_R   0.373840 0.493460 0.402080 -0.597495
O8    O     O_R   0.626160 0.506540 0.597920 -0.555344
C3    C     C_R   0.340117 0.499851 0.500234 0.792085
C4    C     C_R   0.659824 0.499929 0.499678 0.801296
Cu1   Cu    Cu3+1 0.506200 0.507730 0.615930 0.980070
Cu2   Cu    Cu3+1 0.493800 0.492270 0.384070 0.952450
C5    C     C_3   0.965506 0.401280 0.497823 -0.248065
C6    C     C_3   0.034154 0.597737 0.501856 -0.238569
C7    C     C_3   0.021059 0.437582 0.405205 -0.238621
C8    C     C_3   0.978595 0.561434 0.594474 -0.243009
H1    H     H_    0.039270 0.387289 0.327288 0.146325
H2    H     H_    0.960286 0.611691 0.672362 0.142585
H3    H     H_    0.936587 0.320845 0.496813 0.143536
H4    H     H_    0.063050 0.678184 0.502870 0.141708
C9    C     C_1   0.250421 0.499738 0.500852 -0.158997
C10   C     C_1   0.749404 0.499505 0.498811 -0.172398
C11   C     C_3   0.028563 0.463507 0.592594 0.063264
C12   C     C_3   0.971066 0.535501 0.407102 0.078478
C13   C     C_3   0.083067 0.499318 0.501222 0.164745
C14   C     C_3   0.916630 0.499673 0.498489 0.167240
C15   C     C_1   0.174829 0.499570 0.501177 0.009912
C16   C     C_1   0.824940 0.499452 0.498507 0.001812
C17   C     C_R   0.487706 0.812807 0.532571 -0.140248
C18   C     C_R   0.506148 0.187671 0.467714 -0.164367
C19   C     C_R   0.544848 0.023831 0.364612 0.236726
C20   C     C_R   0.439373 0.975134 0.629507 0.231103
C21   C     C_R   0.547592 0.133006 0.377713 0.216819
C22   C     C_R   0.448192 0.867493 0.624592 0.202841
C23   C     C_R   0.468562 0.135250 0.548301 -0.305604
C24   C     C_R   0.516960 0.865056 0.446957 -0.312155
C25   C     C_R   0.472746 0.027857 0.543612 0.026926
C26   C     C_R   0.511002 0.971694 0.450613 0.021379
H5    H     H_    0.547016 0.821881 0.378812 0.167634
H6    H     H_    0.437186 0.179912 0.615672 0.187389
N1    N     N_R   0.515540 0.519350 0.790140 -0.208633
N2    N     N_R   0.484460 0.480650 0.209860 -0.218393
C27   C     C_R   0.403339 0.427640 0.028491 -0.110872
C28   C     C_R   0.590351 0.595058 0.971727 -0.125574
C29   C     C_R   0.419594 0.418688 0.144528 0.356408
C30   C     C_R   0.577490 0.587783 0.850908 0.361973
C31   C     C_R   0.544693 0.534162 0.155545 0.367801
C32   C     C_R   0.462709 0.458628 0.845903 0.399267
C33   C     C_R   0.534959 0.535668 0.033185 -0.156714
C34   C     C_R   0.465497 0.475612 0.968891 -0.112148
C35   C     C_2   0.940901 0.576413 0.301559 0.329807
H7    H     H_    0.986584 0.599178 0.243620 0.070406
O9    O     O_2   0.865545 0.584363 0.280117 -0.561060
C36   C     C_2   0.058240 0.422498 0.698238 0.354648
H8    H     H_    0.012328 0.400167 0.756096 0.060279
O10   O     O_2   0.133449 0.413949 0.719845 -0.535200
N3    N     N_2   0.414428 0.813203 0.709528 -0.403074
H9    H     H_    0.349407 0.811980 0.711432 0.256373
C37   C     C_3   0.458832 0.836283 0.822260 -0.588309
H10   H     H_    0.455738 0.764826 0.862830 0.231335
H11   H     H_    0.428472 0.898321 0.877233 0.222617
H12   H     H_    0.526586 0.862546 0.817340 0.213139
N4    N     N_2   0.603570 0.187562 0.312854 -0.407655
H13   H     H_    0.635706 0.255647 0.355388 0.245512
C38   C     C_3   0.578666 0.189283 0.193557 -0.577084
H14   H     H_    0.562122 0.268848 0.182187 0.224522
H15   H     H_    0.523600 0.133214 0.161489 0.222181
H16   H     H_    0.632592 0.168627 0.141196 0.225255
N5    N     N_2   0.578997 0.968757 0.266344 -0.404592
H17   H     H_    0.627406 0.923198 0.283612 0.258324
C39   C     C_3   0.516248 0.918245 0.177059 -0.648588
H18   H     H_    0.546384 0.903103 0.094646 0.269627
H19   H     H_    0.463395 0.968455 0.165802 0.209294
H20   H     H_    0.489273 0.843010 0.197892 0.220811
N6    N     N_2   0.399741 0.029136 0.723609 -0.435141
H21   H     H_    0.433510 0.096277 0.765468 0.240941
C40   C     C_3   0.310397 0.040764 0.701439 -0.710522
H22   H     H_    0.284167 0.077328 0.781524 0.226936
H23   H     H_    0.275306 0.963318 0.672174 0.234357
H24   H     H_    0.300682 0.091301 0.635045 0.225453
N7    N     N_2   0.425594 0.360923 0.784434 -0.431973
H25   H     H_    0.438206 0.297157 0.822935 0.202910
C41   C     C_3   0.340480 0.353794 0.730047 -0.505930
H26   H     H_    0.298641 0.296820 0.765972 0.187504
H27   H     H_    0.341687 0.323910 0.637279 0.203357
H28   H     H_    0.312555 0.430242 0.741876 0.290147
N8    N     N_2   0.624457 0.567094 0.216962 -0.390386
H29   H     H_    0.675906 0.532436 0.183042 0.241554
C42   C     C_3   0.640252 0.674896 0.271510 -0.551521
H30   H     H_    0.704357 0.706394 0.254541 0.220645
H31   H     H_    0.640437 0.680695 0.365665 0.225582
H32   H     H_    0.592772 0.723122 0.237982 0.214187
N9    N     N_2   0.629780 0.651360 0.790711 -0.360433
H33   H     H_    0.620789 0.729751 0.808166 0.260079
C43   C     C_3   0.718752 0.631243 0.788079 -0.655943
H34   H     H_    0.742892 0.651173 0.707548 0.225135
H35   H     H_    0.727847 0.547747 0.791769 0.220613
H36   H     H_    0.757268 0.681461 0.859869 0.213209
N10   N     N_2   0.367712 0.343157 0.190958 -0.424820
H37   H     H_    0.366074 0.348097 0.277330 0.311780
C44   C     C_3   0.364285 0.235250 0.134678 -0.797611
H38   H     H_    0.388080 0.185422 0.195871 0.242537
H39   H     H_    0.402725 0.225460 0.058761 0.219246
H40   H     H_    0.297411 0.206981 0.107112 0.238687
C45   C     C_2   0.314277 0.407056 0.980641 0.403020
H41   H     H_    0.278978 0.333084 0.982611 0.086766
O11   O     O_2   0.277839 0.476251 0.944272 -0.520860
C46   C     C_2   0.660143 0.669164 0.028702 0.345419
H42   H     H_    0.718979 0.640513 0.057824 0.093029
O12   O     O_2   0.654055 0.763109 0.037803 -0.575865

loop_
_geom_bond_atom_site_label_1
_geom_bond_atom_site_label_2
_geom_bond_distance
_ccdc_geom_bond_type
N2    C31   1.389299 A    
N10   H37   1.016780 S    
C29   N10   1.432950 S    
C30   N9    1.427556 S    
C13   C15   1.453479 S    
C45   O11   1.220764 D    
C39   H18   1.108554 S    
N9    H33   1.029462 S    
C11   C36   1.497005 S    
C22   N3    1.424779 S    
C43   H34   1.109180 S    
N6    H21   1.030622 S    
O5    C3    1.302577 A    
O1    C1    1.304739 A    
C7    C12   1.543145 S    
C9    C15   1.197598 T    
C20   N6    1.425257 S    
C5    C11   1.542971 S    
C21   N4    1.429918 S    
O4    Cu1   1.965539 S    
C36   H8    1.084425 S    
C27   C29   1.406680 A    
C23   H6    1.079177 S    
C37   H11   1.110829 S    
C46   H42   1.084147 S    
C7    H1    1.110267 S    
C31   C33   1.451058 A    
C32   C34   1.436085 A    
C45   H41   1.082684 S    
N8    C42   1.447077 S    
N1    C30   1.366132 A    
C20   C22   1.408553 A    
N2    C29   1.377662 A    
C1    C18   1.454870 S    
C6    C13   1.540365 S    
N6    C40   1.446307 S    
C2    C17   1.468490 S    
N3    H9    1.030736 S    
N10   C44   1.452287 S    
Cu1   Cu2   2.715531 S    
C39   H19   1.110928 S    
O2    C2    1.310838 A    
C8    C11   1.542998 S    
C38   H14   1.110617 S    
C43   H35   1.112069 S    
C32   N7    1.430274 S    
C46   O12   1.220351 D    
C35   O9    1.220094 D    
C6    C12   1.543177 S    
C28   C30   1.420212 A    
N3    C37   1.448669 S    
C19   C26   1.419521 A    
C41   H27   1.108482 S    
C20   C25   1.419910 A    
C7    C13   1.540347 S    
C18   C21   1.409207 A    
C8    C14   1.539849 S    
C24   H5    1.065677 S    
O4    C2    1.301742 A    
C42   H30   1.110040 S    
C40   H23   1.110544 S    
C27   C34   1.411797 A    
N4    C38   1.447404 S    
C41   H26   1.110554 S    
C28   C33   1.433391 A    
C33   C34   1.412142 A    
C38   H15   1.105434 S    
C37   H12   1.111329 S    
O7    Cu2   1.925993 S    
C42   H31   1.105511 S    
N7    H25   1.031784 S    
C5    H3    1.110258 S    
O6    C4    1.301558 A    
C44   H39   1.112147 S    
C18   C23   1.394631 A    
O7    C3    1.301845 A    
O3    Cu2   1.965542 S    
O8    C4    1.302221 A    
N7    C41   1.449091 S    
C28   C46   1.471452 S    
C39   H20   1.109163 S    
O6    Cu2   1.928316 S    
O1    Cu1   1.968351 S    
C12   C35   1.497563 S    
Cu1   N1    2.040335 S    
C43   H36   1.109118 S    
Cu2   N2    2.040334 S    
C41   H28   1.108257 S    
C5    C7    1.555988 S    
C6    H4    1.110259 S    
C31   N8    1.423101 S    
O3    C1    1.301066 A    
O8    Cu1   1.925997 S    
C40   H24   1.110669 S    
N9    C43   1.452533 S    
N1    C32   1.377573 A    
C35   H7    1.084421 S    
C11   C13   1.532237 S    
C4    C10   1.420148 S    
C12   C14   1.531822 S    
C17   C24   1.389934 A    
C38   H16   1.109372 S    
C14   C16   1.452346 S    
N5    H17   1.030674 S    
C23   C25   1.394991 A    
C42   H32   1.105893 S    
C24   C26   1.390255 A    
C5    C14   1.539707 S    
C3    C9    1.421294 S    
C19   C21   1.400956 A    
C36   O10   1.219621 D    
C44   H40   1.109324 S    
C8    H2    1.110351 S    
C37   H10   1.109854 S    
O2    Cu2   1.968348 S    
C10   C16   1.196890 T    
C19   N5    1.424851 S    
C40   H22   1.110352 S    
C25   C26   1.416085 A    
O5    Cu1   1.928312 S    
C6    C8    1.556042 S    
N4    H13   1.031477 S    
N5    C39   1.450088 S    
C44   H38   1.110658 S    
C17   C22   1.409993 A    
N8    H29   1.031007 S    
C27   C45   1.478685 S    
