data_mof_unit_25219.cif
_audit_creation_date              2012-10-26T21:21:06-0400
_audit_creation_method            fapswitch 2.2
_symmetry_space_group_name_H-M    P1
_symmetry_Int_Tables_number       1
_space_group_crystal_system       triclinic
_cell_length_a                    10.778303
_cell_length_b                    10.926647
_cell_length_c                    9.707118
_cell_angle_alpha                 90.003086
_cell_angle_beta                  89.897122
_cell_angle_gamma                 89.967369
_cell_volume                      1143.21216968

loop_
_atom_site_label
_atom_site_type_symbol
_atom_type_description
_atom_site_fract_x
_atom_site_fract_y
_atom_site_fract_z
_atom_type_partial_charge
C1    C     C_R   0.496562 0.265348 0.499896 0.570936
C2    C     C_2   0.487210 0.133229 0.502024 -0.076089
C3    C     C_2   0.436942 0.423108 0.923756 0.096084
C4    C     C_R   0.262805 0.502618 0.500148 0.522714
C5    C     C_2   0.422985 0.436001 0.077654 0.051928
C6    C     C_R   0.500410 0.734554 0.500117 0.526410
C7    C     C_R   0.737320 0.500747 0.499765 0.531245
C8    C     C_R   0.127870 0.713488 0.606449 -0.090193
C9    C     C_R   0.061995 0.813885 0.656736 -0.112395
C10   C     C_R   0.932944 0.813268 0.655596 -0.118613
C11   C     C_R   0.869001 0.712254 0.604163 -0.092390
C12   C     C_R   0.064901 0.609757 0.554700 0.021734
C13   C     C_R   0.933835 0.608797 0.553672 0.013348
C14   C     C_R   0.875951 0.297061 0.385901 0.035600
C15   C     C_R   0.859040 0.192976 0.468541 -0.102274
C16   C     C_R   0.805381 0.087472 0.413016 -0.119508
C17   C     C_R   0.768654 0.085423 0.274985 -0.055362
C18   C     C_R   0.784355 0.189219 0.192589 -0.068224
C19   C     C_R   0.838351 0.294745 0.247595 -0.065546
C20   C     C_R   0.129299 0.508154 0.500312 -0.004849
C21   C     C_R   0.066357 0.409131 0.443492 -0.152069
C22   C     C_R   0.937927 0.406585 0.442656 -0.044458
C23   C     C_R   0.871373 0.505629 0.499052 0.000818
C24   C     C_2   0.473844 0.931810 0.390145 -0.135408
C25   C     C_2   0.503944 0.866518 0.501949 -0.191119
C26   C     C_2   0.477395 0.065806 0.386715 0.338043
Cu1   Cu    Cu3+1 0.500020 0.500020 0.638630 1.050916
Cu2   Cu    Cu3+1 0.499980 0.499980 0.361370 0.997519
F1    F     F_    0.526519 0.607441 0.901883 -0.560273
F2    F     F_    0.469543 0.119749 0.260641 -0.629357
H1    H     H_    0.117933 0.332270 0.401539 0.129264
H2    H     H_    0.448069 0.885702 0.295242 0.190439
H3    H     H_    0.532909 0.908003 0.597762 0.106822
H4    H     H_    0.888061 0.193434 0.575310 0.108230
H5    H     H_    0.792231 0.007291 0.476821 0.103476
H6    H     H_    0.727292 0.003634 0.232134 0.142016
H7    H     H_    0.755273 0.187680 0.085939 0.121272
H8    H     H_    0.851390 0.374295 0.182592 0.117997
H9    H     H_    0.485413 0.092501 0.603519 0.042425
H10   H     H_    0.390477 0.346600 0.874855 0.076360
H11   H     H_    0.349010 0.385428 0.127730 0.141447
H12   H     H_    0.578291 0.530782 0.107488 0.276523
H13   H     H_    0.228064 0.718682 0.607042 0.138060
H14   H     H_    0.111302 0.892849 0.695796 0.120532
H15   H     H_    0.882125 0.891750 0.693854 0.110577
H16   H     H_    0.768826 0.716963 0.603002 0.137821
N1    N     N_2   0.498640 0.498660 0.846910 0.036173
N2    N     N_2   0.498610 0.498630 0.153040 -0.321057
O1    O     O_R   0.500020 0.321960 0.617040 -0.541232
O2    O     O_R   0.499980 0.321920 0.382900 -0.422850
O3    O     O_R   0.319670 0.500020 0.617100 -0.511368
O4    O     O_R   0.319630 0.499980 0.382950 -0.503742
O5    O     O_R   0.500020 0.678080 0.617100 -0.446360
O6    O     O_R   0.499980 0.678040 0.382960 -0.494747
O7    O     O_R   0.680370 0.500020 0.617050 -0.485958
O8    O     O_R   0.680330 0.499980 0.382900 -0.511289

loop_
_geom_bond_atom_site_label_1
_geom_bond_atom_site_label_2
_ccdc_geom_bond_type
Cu1   O5    S    
C19   H8    S    
C11   C13   A    
C9    C10   A    
C15   H4    S    
C8    H13   S    
C7    O7    A    
C8    C12   A    
C14   C22   S    
C10   H15   S    
C24   H2    S    
C17   C18   A    
Cu2   O8    S    
C2    C26   D    
H12   N2    S    
C21   C22   A    
C12   C13   A    
Cu2   O4    S    
C12   C20   A    
C21   H1    S    
C16   C17   A    
C1    O1    A    
C7    O8    A    
F1    N1    S    
C7    C23   S    
C2    H9    S    
C3    N1    D    
C17   H6    S    
C18   H7    S    
C4    O4    A    
C3    H10   S    
C26   F2    S    
C16   H5    S    
C5    N2    D    
Cu1   O7    S    
C6    C25   S    
C25   H3    S    
C10   C11   A    
C6    O5    A    
C15   C16   A    
C4    C20   S    
Cu1   O1    S    
C24   C25   D    
C13   C23   A    
C1    C2    S    
C1    O2    A    
Cu1   N1    S    
Cu1   Cu2   S    
C5    H11   S    
C14   C15   A    
C18   C19   A    
C11   H16   S    
Cu2   O6    S    
C4    O3    A    
C3    C5    S    
C20   C21   A    
C22   C23   A    
Cu2   O2    S    
C14   C19   A    
C6    O6    A    
Cu2   N2    S    
C24   C26   S    
Cu1   O3    S    
C8    C9    A    
C9    H14   S    
