data_mof_unit_22773.cif
_audit_creation_date              2012-12-10T17:43:33-0500
_audit_creation_method            fapswitch 2.2
_symmetry_space_group_name_H-M    P1
_symmetry_Int_Tables_number       1
_space_group_crystal_system       triclinic
_cell_length_a                    14.973627
_cell_length_b                    10.847876
_cell_length_c                    9.95689
_cell_angle_alpha                 89.548277
_cell_angle_beta                  90.817502
_cell_angle_gamma                 94.182311
_cell_volume                      1612.80903019

loop_
_atom_site_label
_atom_site_type_symbol
_atom_type_description
_atom_site_fract_x
_atom_site_fract_y
_atom_site_fract_z
_atom_type_partial_charge
C1    C     C_R   0.495779 0.259007 0.501573 0.891777
C2    C     C_R   0.180376 0.415674 0.415972 -0.273148
C3    C     C_R   0.232205 0.498135 0.497193 -0.050215
C4    C     C_R   0.327222 0.497016 0.499039 0.874918
C5    C     C_R   0.193844 0.583145 0.577794 -0.243456
C6    C     C_R   0.503985 0.110632 0.761891 -0.130326
C7    C     C_R   0.535457 0.051538 0.875560 -0.135352
C8    C     C_R   0.572066 0.939241 0.863402 -0.162335
C9    C     C_R   0.571709 0.882776 0.738870 -0.097422
C10   C     C_R   0.533595 0.937521 0.623780 0.093171
C11   C     C_R   0.509905 0.060029 0.631016 0.044811
C12   C     C_R   0.915903 0.595695 0.578819 0.075547
C13   C     C_R   0.492635 0.124147 0.507459 -0.225773
C14   C     C_R   0.481678 0.056939 0.386494 0.379007
C15   C     C_R   0.489558 0.932462 0.387272 -0.258547
C16   C     C_R   0.507439 0.739521 0.500452 0.901359
C17   C     C_R   0.515213 0.872295 0.503120 -0.196684
C18   C     C_R   0.366354 0.357842 0.137885 -0.063818
C19   C     C_R   0.298893 0.289860 0.067400 -0.139797
C20   C     C_R   0.299632 0.288111 0.928411 -0.186132
C21   C     C_R   0.367366 0.355158 0.859409 -0.177849
C22   C     C_R   0.433699 0.430611 0.927205 0.161074
C23   C     C_R   0.941064 0.333709 0.343944 -0.228277
C24   C     C_R   0.433320 0.431515 0.071375 0.149712
C25   C     C_R   0.565760 0.562671 0.070427 0.019032
C26   C     C_R   0.564238 0.563882 0.928037 -0.166361
C27   C     C_R   0.673288 0.506196 0.501040 0.893636
C28   C     C_R   0.822180 0.598969 0.578846 -0.060560
C29   C     C_R   0.769663 0.510140 0.503264 -0.089223
C30   C     C_R   0.809185 0.422157 0.426704 -0.276374
C31   C     C_R   0.901483 0.420158 0.423544 0.107916
C32   C     C_R   0.954992 0.506149 0.500667 0.035877
C33   C     C_R   0.783291 0.701752 0.649965 0.117653
C34   C     C_R   0.033890 0.332312 0.340389 -0.215803
C35   C     C_R   0.780241 0.816133 0.583604 -0.190978
C36   C     C_R   0.777652 0.925491 0.655969 -0.136600
C37   C     C_R   0.778276 0.921679 0.795927 -0.107759
C38   C     C_R   0.777620 0.808084 0.862828 -0.202843
C39   C     C_R   0.779810 0.698277 0.790706 -0.177475
C40   C     C_R   0.644807 0.624874 0.135965 0.178862
C41   C     C_R   0.726431 0.568642 0.135470 -0.151558
C42   C     C_R   0.804806 0.632637 0.182800 -0.130857
C43   C     C_R   0.802318 0.753428 0.229166 -0.160422
C44   C     C_R   0.721354 0.810446 0.228258 -0.209569
C45   C     C_R   0.087625 0.416492 0.417576 0.128382
C46   C     C_R   0.642962 0.746597 0.180795 -0.128988
C47   C     C_R   0.048112 0.503345 0.498594 0.065165
C48   C     C_R   0.102016 0.587658 0.577488 0.119449
C49   C     C_R   0.063774 0.675842 0.654258 -0.227623
C50   C     C_R   0.971900 0.681035 0.653878 -0.211690
Cl1   Cl    Cl    0.452432 0.117075 0.228775 -0.710823
H1    H     H_    0.470993 0.191604 0.783060 0.175845
H2    H     H_    0.767525 0.355220 0.368817 0.155626
H3    H     H_    0.616584 0.615326 0.873745 0.148785
H4    H     H_    0.900230 0.267676 0.284080 0.144765
H5    H     H_    0.063607 0.265304 0.277988 0.145241
H6    H     H_    0.212180 0.349821 0.354539 0.133761
H7    H     H_    0.235906 0.647217 0.638710 0.157008
H8    H     H_    0.105010 0.741634 0.713949 0.152465
H9    H     H_    0.946086 0.752691 0.713675 0.181281
H10   H     H_    0.787776 0.822298 0.476922 0.146108
H11   H     H_    0.777725 0.013336 0.603635 0.137963
H12   H     H_    0.532224 0.094000 0.973021 0.203553
H13   H     H_    0.777812 0.006408 0.852511 0.137373
H14   H     H_    0.778236 0.805977 0.970548 0.175843
H15   H     H_    0.786227 0.612134 0.844495 0.143032
H16   H     H_    0.729402 0.475918 0.097022 0.123970
H17   H     H_    0.867601 0.589195 0.181993 0.147651
H18   H     H_    0.863336 0.803445 0.264040 0.137364
H19   H     H_    0.719715 0.904893 0.261871 0.145205
H20   H     H_    0.581691 0.793128 0.174504 0.135464
H21   H     H_    0.599966 0.895107 0.950496 0.142280
H22   H     H_    0.604236 0.797629 0.733730 0.171594
H23   H     H_    0.473088 0.882003 0.295739 0.200870
H24   H     H_    0.368190 0.343177 0.243775 0.208562
H25   H     H_    0.248366 0.233441 0.121164 0.146739
H26   H     H_    0.249590 0.230534 0.873848 0.151378
H27   H     H_    0.369435 0.339135 0.753973 0.192273
N1    N     N_R   0.499150 0.498800 0.142780 -0.139720
N2    N     N_R   0.499120 0.498720 0.857170 -0.125572
O1    O     O_R   0.500000 0.316780 0.614690 -0.659321
O2    O     O_R   0.499990 0.316750 0.385360 -0.572549
O3    O     O_R   0.367850 0.499980 0.614680 -0.635892
O4    O     O_R   0.367840 0.499960 0.385350 -0.643220
O5    O     O_R   0.500010 0.683250 0.614640 -0.624585
O6    O     O_R   0.500000 0.683220 0.385310 -0.624242
O7    O     O_R   0.632160 0.500040 0.614650 -0.623742
O8    O     O_R   0.632150 0.500020 0.385320 -0.605401
Zn1   Zn    Zn3+2 0.500010 0.500020 0.653130 0.933124
Zn2   Zn    Zn3+2 0.499990 0.499980 0.346870 0.966407

loop_
_geom_bond_atom_site_label_1
_geom_bond_atom_site_label_2
_ccdc_geom_bond_type
C16   O6    A    
C34   H5    S    
C18   H24   S    
C27   C29   S    
C41   C42   A    
C19   C20   A    
C2    H6    S    
C7    C8    A    
C41   H16   S    
C40   C46   A    
C33   C39   A    
C9    H22   S    
C20   H26   S    
C12   C28   A    
C18   C24   A    
C19   H25   S    
C37   C38   A    
C25   C40   S    
C30   C31   A    
C10   C17   A    
C1    O1    A    
C18   C19   A    
N2    Zn1   S    
N1    Zn2   S    
C33   C35   A    
C31   C32   A    
C8    C9    A    
C21   H27   S    
C44   H19   S    
C9    C10   A    
O1    Zn1   S    
C43   H18   S    
C13   C14   A    
C12   C32   A    
C42   H17   S    
O4    Zn2   S    
C36   H11   S    
C26   H3    S    
C30   H2    S    
C44   C46   A    
C45   C47   A    
C2    C45   A    
O3    Zn1   S    
C5    C48   A    
C8    H21   S    
O6    Zn2   S    
C6    C11   A    
O5    Zn1   S    
C16   C17   S    
C1    O2    A    
C26   N2    A    
C35   C36   A    
C23   C31   A    
C43   C44   A    
C29   C30   A    
C24   N1    A    
C47   C48   A    
C4    O4    A    
C38   H14   S    
C23   C34   A    
C35   H10   S    
C34   C45   A    
C27   O7    A    
C7    H12   S    
C46   H20   S    
C5    H7    S    
C48   C49   A    
O8    Zn2   S    
C28   C33   S    
O7    Zn1   S    
C16   O5    A    
C39   H15   S    
C22   C24   A    
C1    C13   S    
C42   C43   A    
C3    C4    S    
C37   H13   S    
C15   C17   A    
C28   C29   A    
C25   N1    A    
C3    C5    A    
C49   H8    S    
C12   C50   A    
C23   H4    S    
C6    C7    A    
O2    Zn2   S    
C50   H9    S    
C2    C3    A    
C25   C26   A    
C22   N2    A    
C11   C13   A    
C38   C39   A    
C4    O3    A    
C32   C47   A    
C27   O8    A    
C10   C11   A    
C15   H23   S    
C20   C21   A    
C14   Cl1   S    
C36   C37   A    
C49   C50   A    
C14   C15   A    
C40   C41   A    
C6    H1    S    
C21   C22   A    
