data_mof_unit_61027.cif
_audit_creation_date              2012-12-10T21:09:16-0500
_audit_creation_method            fapswitch 2.2
_symmetry_space_group_name_H-M    P1
_symmetry_Int_Tables_number       1
_space_group_crystal_system       triclinic
_cell_length_a                    10.711548
_cell_length_b                    17.587938
_cell_length_c                    16.74823
_cell_angle_alpha                 90.478812
_cell_angle_beta                  103.174645
_cell_angle_gamma                 90.257019
_cell_volume                      3072.04623402

loop_
_atom_site_label
_atom_site_type_symbol
_atom_type_description
_atom_site_fract_x
_atom_site_fract_y
_atom_site_fract_z
_atom_type_partial_charge
C1    C     C_R   0.501498 0.353292 0.499811 0.915308
C2    C     C_R   0.579963 0.548031 0.264018 0.699223
C3    C     C_R   0.570607 0.553084 0.758763 0.665055
C4    C     C_R   0.420362 0.451874 0.239710 0.683940
C5    C     C_R   0.571880 0.554276 0.843191 -0.334476
C6    C     C_R   0.419195 0.451145 0.155311 -0.328632
C7    C     C_R   0.500512 0.500465 0.875775 -0.029323
C8    C     C_R   0.500401 0.500131 0.124478 -0.027705
C9    C     C_1   0.500648 0.500504 0.963599 0.056237
C10   C     C_1   0.500552 0.500347 0.036699 0.055789
C11   C     C_R   0.258156 0.496224 0.466582 0.956252
C12   C     C_R   0.497550 0.646838 0.500039 0.918351
C13   C     C_R   0.741716 0.496219 0.533265 0.965937
C14   C     C_2   0.121482 0.482885 0.448255 -0.435128
C15   C     C_2   0.877893 0.482515 0.550880 -0.455693
C16   C     C_2   0.067557 0.453091 0.505562 0.552918
C17   C     C_2   0.930549 0.453287 0.492326 0.527929
C18   C     C_R   0.433003 0.848406 0.556201 0.612385
C19   C     C_R   0.540411 0.150248 0.438786 0.626540
C20   C     C_R   0.442464 0.769421 0.560434 -0.013897
C21   C     C_R   0.552955 0.229472 0.441744 -0.005818
C22   C     C_R   0.488036 0.729423 0.499277 -0.116020
C23   C     C_R   0.467717 0.886482 0.491798 -0.026130
C24   C     C_R   0.498515 0.270795 0.498011 -0.131676
C25   C     C_R   0.521519 0.768953 0.434686 -0.211391
C26   C     C_R   0.435938 0.233009 0.551237 -0.183645
C27   C     C_R   0.511550 0.847334 0.431108 -0.221910
C28   C     C_R   0.424522 0.154611 0.547829 -0.222556
C29   C     C_R   0.475892 0.113907 0.491453 -0.029798
C30   C     C_1   0.465253 0.966503 0.490239 0.092446
C31   C     C_1   0.467709 0.033948 0.490291 0.092379
C32   C     C_R   0.429305 0.446307 0.821934 -0.335606
C33   C     C_R   0.581500 0.548938 0.180065 -0.330688
C34   C     C_R   0.430379 0.446912 0.737919 0.711487
F1    F     F_    0.859773 0.431903 0.417009 -0.649766
F2    F     F_    0.137303 0.430964 0.580163 -0.610903
F3    F     F_    0.390730 0.887886 0.614911 -0.663612
F4    F     F_    0.592075 0.108356 0.385915 -0.665410
F5    F     F_    0.361866 0.393613 0.687339 -0.599860
F6    F     F_    0.659093 0.595542 0.316716 -0.637949
F7    F     F_    0.641127 0.605083 0.728691 -0.633972
F8    F     F_    0.341343 0.404186 0.268379 -0.622224
H1    H     H_    0.628503 0.596882 0.882772 0.196862
H2    H     H_    0.645674 0.587553 0.158730 0.194327
H3    H     H_    0.458901 0.750736 0.681369 0.250404
H4    H     H_    0.307710 0.743313 0.623181 0.214995
H5    H     H_    0.648841 0.230654 0.347942 0.259230
H6    H     H_    0.707089 0.289419 0.427212 0.212633
H7    H     H_    0.355227 0.412564 0.114415 0.198319
H8    H     H_    0.936049 0.497920 0.610981 0.175441
H9    H     H_    0.064052 0.498942 0.388591 0.178349
H10   H     H_    0.556540 0.739326 0.387257 0.217483
H11   H     H_    0.393631 0.264248 0.594356 0.236371
H12   H     H_    0.539289 0.877483 0.381603 0.197623
H13   H     H_    0.375707 0.125733 0.589015 0.199026
H14   H     H_    0.373327 0.403632 0.844706 0.199060
N1    N     N_R   0.500030 0.500030 0.707240 -0.200685
N2    N     N_R   0.499970 0.499970 0.292760 -0.193584
N3    N     N_3   0.403622 0.730239 0.625599 -0.390572
N4    N     N_3   0.622213 0.268158 0.389728 -0.370883
O1    O     O_R   0.500000 0.389130 0.566570 -0.591910
O2    O     O_R   0.500000 0.610870 0.433430 -0.609161
O3    O     O_R   0.499990 0.389100 0.433480 -0.556520
O4    O     O_R   0.500010 0.610900 0.566520 -0.557817
O5    O     O_R   0.317810 0.500010 0.541690 -0.534810
O6    O     O_R   0.682190 0.499990 0.458310 -0.511824
O7    O     O_R   0.317800 0.499990 0.408610 -0.593299
O8    O     O_R   0.682200 0.500010 0.591390 -0.599513
Zn1   Zn    Zn3+2 0.500010 0.500020 0.588860 1.081180
Zn2   Zn    Zn3+2 0.499990 0.499980 0.411140 1.090886

loop_
_geom_bond_atom_site_label_1
_geom_bond_atom_site_label_2
_ccdc_geom_bond_type
C34   N1    A    
C2    N2    A    
C32   C34   A    
H3    N3    S    
C19   F4    S    
C12   C22   S    
H4    N3    S    
C25   C27   A    
C12   O2    A    
C9    C10   T    
C26   C28   A    
C14   H9    S    
O3    Zn2   S    
C20   C22   A    
C13   O6    A    
O7    Zn2   S    
C7    C9    S    
C3    C5    A    
C5    H1    S    
C25   H10   S    
C5    C7    A    
C29   C31   S    
O4    Zn1   S    
C16   F2    S    
C20   N3    S    
C13   O8    A    
O6    Zn2   S    
C4    F8    S    
C1    C24   S    
C18   C23   A    
O5    Zn1   S    
C1    O3    A    
C2    C33   A    
C8    C10   S    
C28   C29   A    
C19   C21   A    
C28   H13   S    
C24   C26   A    
H6    N4    S    
C18   C20   A    
C8    C33   A    
C13   C15   S    
C6    H7    S    
C30   C31   T    
C12   O4    A    
C11   C14   S    
C14   C16   D    
C27   H12   S    
C16   C17   S    
C21   C24   A    
O1    Zn1   S    
C34   F5    S    
C19   C29   A    
C23   C30   S    
C2    F6    S    
C26   H11   S    
O2    Zn2   S    
C21   N4    S    
C4    C6    A    
C15   H8    S    
C4    N2    A    
C15   C17   D    
N2    Zn2   S    
C6    C8    A    
C7    C32   A    
C17   F1    S    
N1    Zn1   S    
H5    N4    S    
C18   F3    S    
C33   H2    S    
C32   H14   S    
C3    F7    S    
C23   C27   A    
C11   O5    A    
C11   O7    A    
O8    Zn1   S    
C3    N1    A    
C22   C25   A    
C1    O1    A    
