data_mof_unit_8785.cif
_audit_creation_date              2012-12-10T19:40:21-0500
_audit_creation_method            fapswitch 2.2
_symmetry_space_group_name_H-M    P1
_symmetry_Int_Tables_number       1
_space_group_crystal_system       triclinic
_cell_length_a                    15.891435
_cell_length_b                    16.975371
_cell_length_c                    23.505768
_cell_angle_alpha                 92.138802
_cell_angle_beta                  91.144939
_cell_angle_gamma                 93.855397
_cell_volume                      6320.62027309

loop_
_atom_site_label
_atom_site_type_symbol
_atom_type_description
_atom_site_fract_x
_atom_site_fract_y
_atom_site_fract_z
_atom_type_partial_charge
C1    C     C_R   0.491276 0.349118 0.499566 0.797290
C2    C     C_R   0.508896 0.650760 0.499704 0.807435
C3    C     C_R   0.445453 0.476438 0.232082 -0.143272
C4    C     C_R   0.439874 0.470675 0.763260 -0.143853
C5    C     C_R   0.435686 0.472712 0.291056 0.123244
C6    C     C_R   0.434519 0.463447 0.703613 0.109117
C7    C     C_R   0.503692 0.502224 0.328084 -0.070287
C8    C     C_R   0.497610 0.504230 0.671586 -0.056639
C9    C     C_R   0.577718 0.536042 0.304353 -0.279987
C10   C     C_R   0.562993 0.550750 0.700202 -0.274194
C11   C     C_R   0.585916 0.539099 0.245704 -0.113795
C12   C     C_R   0.567525 0.556280 0.759299 -0.113848
C13   C     C_R   0.519999 0.508959 0.209553 0.341984
C14   C     C_R   0.506519 0.515742 0.790988 0.337201
C15   C     C_R   0.490395 0.263851 0.502963 -0.072395
C16   C     C_R   0.511132 0.735598 0.494082 -0.067154
C17   C     C_R   0.532905 0.234484 0.549451 -0.307869
C18   C     C_R   0.473676 0.763337 0.445049 -0.287317
C19   C     C_R   0.538853 0.153671 0.554492 -0.015885
C20   C     C_R   0.472629 0.844105 0.436655 -0.019077
C21   C     C_R   0.502163 0.101463 0.511846 0.274248
C22   C     C_R   0.507459 0.897658 0.479192 0.271179
C23   C     C_R   0.500739 0.499700 0.390842 0.789282
C24   C     C_R   0.498927 0.499994 0.608970 0.796433
C25   C     C_R   0.458505 0.130979 0.465174 -0.176343
C26   C     C_R   0.547618 0.869340 0.527832 -0.176901
C27   C     C_R   0.452843 0.212491 0.459675 0.112119
C28   C     C_R   0.549640 0.788191 0.536158 0.103801
C29   C     C_R   0.754379 0.457305 0.472851 0.100312
C30   C     C_R   0.246473 0.544521 0.526171 0.096842
C31   C     C_R   0.843915 0.464695 0.468113 -0.002117
C32   C     C_R   0.157999 0.534811 0.535091 -0.002999
C33   C     C_R   0.891112 0.520723 0.504313 0.298930
C34   C     C_R   0.109643 0.474899 0.503113 0.295828
C35   C     C_R   0.846116 0.573389 0.538535 -0.153772
C36   C     C_R   0.153522 0.419155 0.470811 -0.152206
C37   C     C_R   0.757090 0.566346 0.539139 -0.022524
C38   C     C_R   0.242253 0.428687 0.466297 -0.021570
C39   C     C_R   0.505915 0.584940 0.882580 0.525680
C40   C     C_R   0.538359 0.443803 0.118592 0.524750
C41   C     C_R   0.531043 0.448188 0.877350 0.528425
C42   C     C_R   0.520191 0.581993 0.123762 0.529997
C43   C     C_R   0.533969 0.444761 0.937424 -0.064147
C44   C     C_R   0.520837 0.585981 0.063672 -0.065131
C45   C     C_R   0.525909 0.515750 0.970359 -0.041147
C46   C     C_R   0.528678 0.514861 0.030747 -0.041332
C47   C     C_R   0.514563 0.587551 0.942741 -0.062575
C48   C     C_R   0.538436 0.442700 0.058336 -0.062229
C49   C     C_R   0.544252 0.372950 0.965230 -0.072677
C50   C     C_R   0.513416 0.658221 0.035771 -0.071361
C51   C     C_R   0.546454 0.371926 0.025155 -0.071926
C52   C     C_R   0.511104 0.659063 0.975803 -0.069227
Cu1   Cu    Cu3+1 0.415220 0.496180 0.497250 0.930497
Cu2   Cu    Cu3+1 0.584780 0.503820 0.502750 0.937643
H1    H     H_    0.723611 0.607293 0.565111 0.135716
H2    H     H_    0.275030 0.385066 0.442451 0.136650
H3    H     H_    0.394498 0.454649 0.203112 0.126563
H4    H     H_    0.393647 0.439113 0.788753 0.130060
H5    H     H_    0.629490 0.561223 0.331307 0.162115
H6    H     H_    0.611235 0.582893 0.676660 0.156087
H7    H     H_    0.643463 0.565074 0.228286 0.138987
H8    H     H_    0.619365 0.591033 0.780566 0.140500
H9    H     H_    0.446126 0.721438 0.412778 0.155198
H10   H     H_    0.562987 0.275123 0.581579 0.158094
H11   H     H_    0.428864 0.089758 0.433573 0.179534
H12   H     H_    0.576912 0.911235 0.559072 0.178353
N1    N     N_R   0.514736 0.516484 0.851943 -0.458212
N2    N     N_R   0.527744 0.511968 0.149037 -0.459520
N3    N     N_2   0.508166 0.019486 0.518023 -0.257680
N4    N     N_2   0.499825 0.979491 0.472551 -0.267494
N5    N     N_R   0.712130 0.509560 0.506880 -0.194891
N6    N     N_R   0.287870 0.490440 0.493120 -0.194457
N7    N     N_2   0.982029 0.529524 0.504080 -0.239261
N8    N     N_2   0.018715 0.466308 0.504773 -0.240898
O1    O     O_R   0.420530 0.382500 0.497430 -0.591049
O2    O     O_R   0.579470 0.617500 0.502570 -0.591995
O3    O     O_R   0.563720 0.388950 0.502070 -0.563947
O4    O     O_R   0.436280 0.611050 0.497930 -0.565394
O5    O     O_R   0.428390 0.496750 0.415560 -0.578252
O6    O     O_R   0.571610 0.503250 0.584440 -0.582139
O7    O     O_R   0.571580 0.503200 0.420200 -0.581675
O8    O     O_R   0.428420 0.496800 0.579800 -0.583356
O9    O     O_2   0.487025 0.649422 0.854364 -0.545622
O10   O     O_2   0.548397 0.377675 0.147350 -0.547847
O11   O     O_2   0.544798 0.384299 0.843843 -0.541383
O12   O     O_2   0.510724 0.646796 0.157348 -0.535702
C53   C     C_R   0.549639 0.296497 0.932902 0.193256
C54   C     C_R   0.475758 0.250385 0.916784 -0.107075
C55   C     C_R   0.480923 0.177122 0.888300 -0.129913
C56   C     C_R   0.559690 0.149532 0.875898 -0.125181
C57   C     C_R   0.633446 0.195273 0.891783 -0.131315
C58   C     C_R   0.628590 0.268548 0.920314 -0.091207
H13   H     H_    0.414505 0.271036 0.926640 0.105803
H14   H     H_    0.423894 0.141593 0.876035 0.118772
H15   H     H_    0.563579 0.092690 0.854021 0.109787
H16   H     H_    0.694368 0.173799 0.882171 0.118352
H17   H     H_    0.686037 0.303325 0.932874 0.107580
C59   C     C_R   0.509075 0.734787 0.068132 0.188693
C60   C     C_R   0.430680 0.761331 0.083831 -0.094309
C61   C     C_R   0.426701 0.833830 0.113595 -0.122953
C62   C     C_R   0.500745 0.880301 0.127526 -0.102516
C63   C     C_R   0.578908 0.854358 0.111685 -0.128481
C64   C     C_R   0.583209 0.781798 0.082045 -0.107172
H18   H     H_    0.373004 0.725797 0.073075 0.107529
H19   H     H_    0.366239 0.854030 0.125829 0.114467
H20   H     H_    0.497542 0.936425 0.150535 0.109685
H21   H     H_    0.636152 0.890505 0.122358 0.117549
H22   H     H_    0.643993 0.762248 0.069816 0.108244
C65   C     C_3   0.409978 0.246221 0.408211 -0.386485
C66   C     C_3   0.386050 0.187563 0.358607 -0.866790
H23   H     H_    0.442268 0.157575 0.344068 0.251565
H24   H     H_    0.335953 0.143204 0.371170 0.255592
H25   H     H_    0.361022 0.219892 0.322418 0.241809
H26   H     H_    0.351883 0.273179 0.422343 0.205345
H27   H     H_    0.453019 0.293662 0.391230 0.195464
C67   C     C_3   0.590001 0.756194 0.589261 -0.385913
C68   C     C_3   0.615549 0.817108 0.637166 -0.857358
H28   H     H_    0.667495 0.858788 0.623559 0.247908
H29   H     H_    0.560523 0.850010 0.650220 0.257482
H30   H     H_    0.638650 0.786262 0.674670 0.246127
H31   H     H_    0.544879 0.711419 0.607362 0.198252
H32   H     H_    0.647035 0.726128 0.576658 0.208395
C69   C     C_R   0.291005 0.618337 0.549598 0.180972
C70   C     C_R   0.286727 0.687743 0.519058 -0.157479
C71   C     C_R   0.319680 0.760292 0.542916 -0.133305
C72   C     C_R   0.356485 0.764331 0.597518 -0.108339
C73   C     C_R   0.358772 0.696130 0.628840 -0.187250
C74   C     C_R   0.324680 0.623709 0.605496 -0.130636
H33   H     H_    0.257661 0.685527 0.476897 0.111226
H34   H     H_    0.317010 0.813333 0.518962 0.138244
H35   H     H_    0.382590 0.820426 0.615729 0.140227
H36   H     H_    0.385561 0.699621 0.671632 0.152695
H37   H     H_    0.321785 0.572743 0.631700 0.128175
C75   C     C_R   0.708642 0.388517 0.442928 0.175592
C76   C     C_R   0.682795 0.392149 0.385652 -0.129101
C77   C     C_R   0.647228 0.324706 0.355973 -0.176933
C78   C     C_R   0.641402 0.252150 0.382291 -0.123185
C79   C     C_R   0.672128 0.246832 0.438025 -0.133965
C80   C     C_R   0.706236 0.314535 0.468155 -0.148126
H38   H     H_    0.692276 0.446745 0.363740 0.134953
H39   H     H_    0.625777 0.328417 0.312218 0.158410
H40   H     H_    0.614327 0.199830 0.359221 0.134409
H41   H     H_    0.669258 0.190293 0.457968 0.136822
H42   H     H_    0.730535 0.309524 0.511159 0.123625
C81   C     C_3   0.117311 0.584295 0.581656 -0.360334
C82   C     C_3   0.083378 0.533315 0.629472 -0.804278
H43   H     H_    0.059895 0.571822 0.664064 0.239858
H44   H     H_    0.134515 0.499412 0.647300 0.232971
H45   H     H_    0.030389 0.491605 0.614179 0.268530
H46   H     H_    0.161030 0.630412 0.602425 0.197119
H47   H     H_    0.067691 0.618721 0.563645 0.238587
C83   C     C_3   0.887604 0.416143 0.422375 -0.361642
C84   C     C_3   0.926732 0.468183 0.376833 -0.806578
H48   H     H_    0.877552 0.502244 0.356764 0.236712
H49   H     H_    0.977909 0.509836 0.394881 0.267813
H50   H     H_    0.954123 0.430349 0.343387 0.236385
H51   H     H_    0.934985 0.380196 0.441572 0.238317
H52   H     H_    0.844889 0.371198 0.399402 0.197987
C85   C     C_R   0.890567 0.638505 0.572741 0.138876
C86   C     C_R   0.933016 0.701504 0.545759 -0.151085
C87   C     C_R   0.974279 0.763733 0.578242 -0.160782
C88   C     C_R   0.972785 0.763683 0.637683 -0.107498
C89   C     C_R   0.929606 0.701647 0.664736 -0.144430
C90   C     C_R   0.888233 0.639328 0.632412 -0.156554
H53   H     H_    0.934446 0.702140 0.499726 0.129830
H54   H     H_    0.007476 0.811928 0.557343 0.128830
H55   H     H_    0.004865 0.811816 0.662771 0.121027
H56   H     H_    0.928235 0.701827 0.710754 0.124021
H57   H     H_    0.854993 0.591527 0.653785 0.123838
C91   C     C_R   0.108461 0.347156 0.444774 0.134645
C92   C     C_R   0.113511 0.329257 0.386176 -0.162462
C93   C     C_R   0.070868 0.261018 0.361971 -0.134799
C94   C     C_R   0.023587 0.209807 0.396111 -0.109933
C95   C     C_R   0.019270 0.226508 0.454594 -0.161464
C96   C     C_R   0.061818 0.294690 0.478967 -0.141744
H58   H     H_    0.149648 0.368252 0.359148 0.118479
H59   H     H_    0.074474 0.247848 0.316714 0.123233
H60   H     H_    0.990546 0.157056 0.377284 0.121010
H61   H     H_    0.982954 0.186631 0.481054 0.128686
H62   H     H_    0.058233 0.306733 0.524401 0.132726
C97   C     C_R   0.555221 0.294654 0.051723 0.194301
C98   C     C_R   0.483229 0.245324 0.062408 -0.103189
C99   C     C_R   0.491633 0.171589 0.085716 -0.130793
C100  C     C_R   0.571775 0.146721 0.098328 -0.107215
C101  C     C_R   0.643666 0.195573 0.087657 -0.131598
C102  C     C_R   0.635562 0.269356 0.064343 -0.100716
H63   H     H_    0.420938 0.263929 0.052430 0.105843
H64   H     H_    0.436054 0.133632 0.093864 0.117076
H65   H     H_    0.578163 0.089557 0.116271 0.113508
H66   H     H_    0.705672 0.176167 0.097310 0.118758
H67   H     H_    0.691579 0.306615 0.055876 0.108117
C103  C     C_R   0.508915 0.736849 0.948912 0.191800
C104  C     C_R   0.432241 0.772354 0.942083 -0.091298
C105  C     C_R   0.430941 0.846588 0.918344 -0.130875
C106  C     C_R   0.506001 0.885686 0.901369 -0.103456
C107  C     C_R   0.582503 0.850584 0.908083 -0.132108
C108  C     C_R   0.584110 0.776381 0.931849 -0.116699
H68   H     H_    0.373845 0.742611 0.955297 0.107309
H69   H     H_    0.371781 0.873877 0.913203 0.118712
H70   H     H_    0.504892 0.943197 0.883076 0.115117
H71   H     H_    0.640574 0.880983 0.895017 0.118330
H72   H     H_    0.643716 0.749853 0.937251 0.107927
C109  C     C_3   0.351507 0.438893 0.311474 -0.396326
C110  C     C_3   0.291691 0.504718 0.321433 -0.785344
H73   H     H_    0.232082 0.480370 0.339538 0.221519
H74   H     H_    0.320094 0.551683 0.351355 0.267401
H75   H     H_    0.276722 0.531742 0.280439 0.238847
H76   H     H_    0.321758 0.395975 0.278931 0.184319
H77   H     H_    0.358837 0.404073 0.349987 0.204889
C111  C     C_3   0.364275 0.408293 0.676914 -0.408837
C112  C     C_3   0.398035 0.331909 0.653476 -0.784939
H78   H     H_    0.444191 0.344320 0.619791 0.240651
H79   H     H_    0.428982 0.301139 0.688248 0.247061
H80   H     H_    0.345218 0.292421 0.634877 0.237043
H81   H     H_    0.316404 0.392099 0.709087 0.188388
H82   H     H_    0.329343 0.437157 0.643200 0.217215
C113  C     C_R   0.433747 0.871394 0.383531 0.137993
C114  C     C_R   0.352918 0.840725 0.365182 -0.158570
C115  C     C_R   0.316987 0.865326 0.314602 -0.127559
C116  C     C_R   0.361358 0.920474 0.281854 -0.101198
C117  C     C_R   0.441770 0.951144 0.299617 -0.147303
C118  C     C_R   0.478023 0.926651 0.350110 -0.122533
H83   H     H_    0.317540 0.798166 0.390183 0.116853
H84   H     H_    0.254705 0.841579 0.300777 0.122159
H85   H     H_    0.333525 0.939300 0.242652 0.112917
H86   H     H_    0.476225 0.993613 0.274096 0.119739
H87   H     H_    0.540969 0.950082 0.362745 0.129395
C119  C     C_R   0.585000 0.124917 0.604283 0.136077
C120  C     C_R   0.563361 0.148195 0.659806 -0.146639
C121  C     C_R   0.606460 0.121062 0.706853 -0.131473
C122  C     C_R   0.671559 0.070652 0.698908 -0.111819
C123  C     C_R   0.694043 0.047714 0.643866 -0.153907
C124  C     C_R   0.651307 0.074945 0.596684 -0.143860
H88   H     H_    0.512577 0.186625 0.666650 0.128854
H89   H     H_    0.589253 0.139049 0.749459 0.140730
H90   H     H_    0.704725 0.049568 0.735391 0.118526
H91   H     H_    0.744762 0.008984 0.637740 0.125067
H92   H     H_    0.670166 0.057376 0.554300 0.128334

loop_
_geom_bond_atom_site_label_1
_geom_bond_atom_site_label_2
_ccdc_geom_bond_type
C93   H59   S    
C16   C28   A    
C78   H40   S    
C62   C63   A    
C111  C112  S    
C1    O3    A    
C20   C113  S    
C49   C53   S    
C89   C90   A    
C75   C80   A    
C92   C93   A    
C87   C88   A    
C56   C57   A    
C76   C77   A    
C41   N1    A    
C124  H92   S    
C94   C95   A    
C67   C68   S    
C105  C106  A    
C61   H19   S    
C120  C121  A    
C67   H32   S    
C69   C70   A    
C118  H87   S    
C35   C37   A    
C106  H70   S    
C79   H41   S    
C68   H29   S    
C85   C86   A    
C52   C103  S    
C111  H82   S    
C18   H9    S    
C46   C48   A    
C91   C92   A    
C4    H4    S    
C59   C64   A    
C55   H14   S    
C100  C101  A    
Cu1   O5    S    
C18   C20   A    
C103  C108  A    
N7    N8    D    
C102  H67   S    
C24   O8    A    
C73   H36   S    
C61   C62   A    
C28   C67   S    
C33   C35   A    
C115  H84   S    
C95   C96   A    
C71   H34   S    
C24   O6    A    
C48   C51   A    
C101  C102  A    
Cu2   N5    S    
C60   C61   A    
Cu1   Cu2   S    
C94   H60   S    
C49   C51   A    
C116  H85   S    
C50   C52   A    
C14   N1    S    
C31   C33   A    
C64   H22   S    
C42   O12   S    
C26   C28   A    
C84   H49   S    
C2    C16   S    
Cu2   O6    S    
C87   H54   S    
C3    C13   A    
C9    C11   A    
Cu2   O3    S    
C29   C75   S    
C60   H18   S    
C57   H16   S    
C84   H48   S    
C53   C58   A    
C42   N2    A    
C110  H73   S    
C41   C43   A    
C90   H57   S    
Cu1   O1    S    
C42   C44   A    
C116  C117  A    
C44   C46   A    
C58   H17   S    
C81   C82   S    
C82   H44   S    
C91   C96   A    
C45   C47   A    
C76   H38   S    
C38   N6    A    
C50   C59   S    
C67   H31   S    
C63   C64   A    
C1    O1    A    
C114  H83   S    
C25   H11   S    
C4    C6    A    
C65   C66   S    
C68   H30   S    
C115  C116  A    
C5    C7    A    
C88   H55   S    
C43   C49   A    
C6    C8    A    
C32   C81   S    
C119  C120  A    
C11   H7    S    
C113  C114  A    
C97   C98   A    
C117  H86   S    
C66   H23   S    
C21   N3    S    
Cu1   O8    S    
C9    H5    S    
C26   H12   S    
C92   H58   S    
C10   H6    S    
C19   C119  S    
C99   C100  A    
C74   H37   S    
C117  C118  A    
C2    O4    A    
C82   H45   S    
C12   H8    S    
C80   H42   S    
C15   C27   A    
C112  H78   S    
C110  H75   S    
C29   C31   A    
C7    C9    A    
C121  H89   S    
C40   O10   S    
C81   H47   S    
C86   H53   S    
C30   C69   S    
C84   H50   S    
C98   C99   A    
C43   C45   A    
C66   H25   S    
C119  C124  A    
C122  H90   S    
C10   C12   A    
C65   H26   S    
C34   N8    S    
C83   H52   S    
C1    C15   S    
C3    H3    S    
C33   N7    S    
C112  H79   S    
C110  H74   S    
C104  C105  A    
C37   N5    A    
C40   N2    A    
C123  H91   S    
Cu2   O2    S    
C25   C27   A    
C17   C19   A    
C73   C74   A    
C55   C56   A    
C63   H21   S    
C57   C58   A    
C2    O2    A    
C93   C94   A    
C39   C47   A    
C82   H43   S    
C109  H76   S    
C44   C50   A    
C62   H20   S    
C40   C48   A    
C109  H77   S    
C21   C25   A    
C54   H13   S    
C113  C118  A    
C23   O7    A    
C19   C21   A    
C85   C90   A    
C39   N1    A    
C16   C18   A    
C51   C97   S    
C81   H46   S    
C20   C22   A    
C107  C108  A    
C3    C5    A    
C56   H15   S    
C5    C109  S    
C30   N6    A    
C97   C102  A    
C15   C17   A    
C47   C52   A    
C6    C111  S    
C88   C89   A    
C41   O11   S    
C78   C79   A    
C75   C76   A    
C36   C91   S    
C108  H72   S    
C103  C104  A    
C36   C38   A    
C89   H56   S    
C12   C14   A    
C39   O9    S    
C121  C122  A    
C17   H10   S    
C99   H64   S    
C86   C87   A    
C30   C32   A    
C31   C83   S    
C11   C13   A    
C114  C115  A    
C71   C72   A    
C120  H88   S    
C72   H35   S    
C72   C73   A    
C7    C23   S    
C123  C124  A    
C8    C24   S    
C77   H39   S    
C101  H66   S    
C70   H33   S    
C83   H51   S    
C34   C36   A    
C98   H63   S    
C107  H71   S    
C4    C14   A    
N3    N4    D    
C66   H24   S    
C35   C85   S    
C79   C80   A    
C65   H27   S    
C96   H62   S    
Cu1   O4    S    
C106  C107  A    
C37   H1    S    
C105  H69   S    
C45   C46   A    
C112  H80   S    
C38   H2    S    
C54   C55   A    
C27   C65   S    
C53   C54   A    
C8    C10   A    
C59   C60   A    
C22   C26   A    
C69   C74   A    
C122  C123  A    
C100  H65   S    
C77   C78   A    
C83   C84   S    
C109  C110  S    
C23   O5    A    
C111  H81   S    
C68   H28   S    
Cu1   N6    S    
C95   H61   S    
C22   N4    S    
Cu2   O7    S    
C104  H68   S    
C32   C34   A    
C70   C71   A    
C29   N5    A    
C13   N2    S    
