data_mof_unit_44917.cif
_audit_creation_date              2012-12-11T20:57:24-0500
_audit_creation_method            fapswitch 2.2
_symmetry_space_group_name_H-M    P1
_symmetry_Int_Tables_number       1
_space_group_crystal_system       triclinic
_cell_length_a                    8.230446
_cell_length_b                    18.797714
_cell_length_c                    22.873485
_cell_angle_alpha                 100.020636
_cell_angle_beta                  89.53246
_cell_angle_gamma                 91.562966
_cell_volume                      3483.53658369

loop_
_atom_site_label
_atom_site_type_symbol
_atom_type_description
_atom_site_fract_x
_atom_site_fract_y
_atom_site_fract_z
_atom_type_partial_charge
Ba1   Ba    Ba6+2 0.157800 0.534120 0.474430 1.654889
Ba2   Ba    Ba6+2 0.652390 0.465870 0.525520 1.674552
C1    C     C_3   0.389186 0.705799 0.261824 -0.346683
C2    C     C_3   0.406196 0.685727 0.322952 0.331567
C3    C     C_3   0.464980 0.687424 0.619753 0.351902
C4    C     C_3   0.438387 0.768872 0.633905 0.241650
C5    C     C_3   0.852904 0.268981 0.646240 0.381793
C6    C     C_3   0.830202 0.197420 0.668196 -0.346674
C7    C     C_3   0.378740 0.294867 0.675519 0.326433
C8    C     C_3   0.408484 0.269076 0.733802 -0.351085
C9    C     C_R   0.989771 0.953030 0.531321 0.010161
C10   C     C_R   0.068551 0.905279 0.562541 -0.081029
C11   C     C_R   0.202607 0.049911 0.555531 -0.097163
C12   C     C_3   0.922663 0.725786 0.355040 0.355946
C13   C     C_R   0.050790 0.024741 0.530522 0.019932
C14   C     C_R   0.258511 0.120486 0.556331 -0.093253
C15   C     C_R   0.166301 0.169778 0.532248 -0.031375
C16   C     C_R   0.017962 0.145371 0.503596 -0.001178
C17   C     C_R   0.960356 0.072473 0.502291 0.025586
C18   C     C_R   0.218956 0.242626 0.535307 -0.018160
C19   C     C_R   0.120510 0.290940 0.512994 -0.294459
C20   C     C_R   0.980484 0.267245 0.480613 0.043747
C21   C     C_R   0.929772 0.193254 0.474767 -0.045492
C22   C     C_R   0.842418 0.928568 0.501705 0.030045
C23   C     C_3   0.939348 0.800727 0.338811 -0.364560
C24   C     C_R   0.785093 0.855581 0.500104 0.006772
C25   C     C_R   0.876089 0.807027 0.527217 -0.017737
C26   C     C_R   0.012499 0.834517 0.560774 0.021864
C27   C     C_R   0.795034 0.165269 0.440473 -0.019765
C28   C     C_R   0.737120 0.094872 0.439792 -0.086436
C29   C     C_R   0.813640 0.047836 0.472329 0.011314
C30   C     C_R   0.751631 0.976426 0.473763 0.021382
C31   C     C_R   0.598892 0.951592 0.449410 -0.099797
C32   C     C_R   0.635595 0.831492 0.472138 -0.026687
C33   C     C_R   0.542631 0.881041 0.448673 -0.088270
C34   C     C_3   0.820934 0.372403 0.343011 0.280537
C35   C     C_R   0.583004 0.758625 0.468832 -0.004843
C36   C     C_R   0.681659 0.710172 0.491044 -0.308319
C37   C     C_R   0.826302 0.732933 0.520725 0.061487
C38   C     C_R   0.645865 0.523903 0.335543 -0.306446
C39   C     C_R   0.440381 0.536499 0.937927 -0.030777
C40   C     C_R   0.390673 0.531509 0.878379 0.585047
C41   C     C_R   0.254601 0.417646 0.881825 0.604414
C42   C     C_R   0.296487 0.422965 0.942250 -0.072059
C43   C     C_R   0.390384 0.482612 0.970422 -0.060531
C44   C     C_R   0.543134 0.593728 0.965031 -0.098964
C45   C     C_3   0.814855 0.350910 0.275718 -0.331429
C46   C     C_R   0.590790 0.599511 0.024255 0.189911
C47   C     C_R   0.531366 0.548156 0.058729 -0.007070
C48   C     C_R   0.436525 0.487866 0.030908 -0.134559
C49   C     C_R   0.246809 0.369146 0.974843 -0.074871
C50   C     C_R   0.291512 0.373157 0.034114 0.407046
C51   C     C_R   0.390673 0.432200 0.062874 -0.077615
C52   C     C_R   0.447818 0.437178 0.121915 0.639650
C53   C     C_R   0.564875 0.555193 0.120067 0.593413
C54   C     C_2   0.107108 0.436643 0.765828 -0.106671
C55   C     C_3   0.081334 0.419617 0.699215 -0.066735
C56   C     C_3   0.966577 0.635213 0.663361 0.309986
C57   C     C_1   0.307558 0.503882 0.691026 -0.004027
C58   C     C_2   0.362298 0.496338 0.743915 -0.091774
C59   C     C_2   0.251549 0.467185 0.787427 0.167465
C60   C     C_R   0.719215 0.537871 0.235431 -0.088356
C61   C     C_R   0.755545 0.547848 0.295980 -0.025685
C62   C     C_R   0.502322 0.487439 0.315008 0.028590
C63   C     C_R   0.459792 0.481778 0.255064 -0.100752
C64   C     C_R   0.567804 0.506878 0.214034 0.180606
C65   C     C_2   0.172961 0.471797 0.667408 -0.278507
C66   C     C_3   0.933503 0.664189 0.729446 0.424330
C67   C     C_3   0.320938 0.314033 0.393269 0.313024
C68   C     C_3   0.321640 0.232189 0.375037 -0.370674
H1    H     H_    0.333157 0.635437 0.323871 0.094583
H2    H     H_    0.729461 0.304077 0.263168 0.148352
H3    H     H_    0.772961 0.396252 0.255186 0.069918
H4    H     H_    0.937869 0.335950 0.258182 0.148965
H5    H     H_    0.095878 0.621135 0.657139 -0.096369
H6    H     H_    0.888574 0.586718 0.647842 0.064696
H7    H     H_    0.993103 0.718756 0.741216 0.091084
H8    H     H_    0.195619 0.330934 0.404577 0.002152
H9    H     H_    0.400504 0.329570 0.432620 0.069076
H10   H     H_    0.260773 0.718745 0.254019 0.151686
H11   H     H_    0.239224 0.214989 0.336680 0.137309
H12   H     H_    0.280124 0.205522 0.412319 0.055301
H13   H     H_    0.446582 0.214526 0.362252 0.121585
H14   H     H_    0.536199 0.675768 0.330191 -0.047462
H15   H     H_    0.424779 0.659500 0.227395 0.124246
H16   H     H_    0.595616 0.677012 0.609888 0.033044
H17   H     H_    0.393085 0.666743 0.579302 -0.011436
H18   H     H_    0.431996 0.790818 0.592246 -0.025700
H19   H     H_    0.322387 0.780096 0.658099 0.070567
H20   H     H_    0.469155 0.753613 0.258240 0.118759
H21   H     H_    0.879526 0.840730 0.372781 0.070507
H22   H     H_    0.796080 0.264338 0.601828 0.087570
H23   H     H_    0.985486 0.278473 0.641391 -0.092395
H24   H     H_    0.699941 0.181798 0.669350 0.151310
H25   H     H_    0.894079 0.154457 0.638105 0.074709
H26   H     H_    0.881302 0.202077 0.713377 0.129772
H27   H     H_    0.247924 0.285399 0.664754 -0.046224
H28   H     H_    0.410535 0.353562 0.681173 0.052204
H29   H     H_    0.321868 0.294677 0.767744 0.139631
H30   H     H_    0.533756 0.283934 0.749467 0.154799
H31   H     H_    0.988852 0.726400 0.397247 0.080293
H32   H     H_    0.390427 0.209586 0.728031 0.125619
H33   H     H_    0.160129 0.346980 0.516964 0.067959
H34   H     H_    0.375490 0.135571 0.576382 0.113753
H35   H     H_    0.079079 0.801925 0.586282 0.091234
H36   H     H_    0.731120 0.197337 0.413745 0.099935
H37   H     H_    0.424798 0.866121 0.429178 0.112542
H38   H     H_    0.641544 0.654299 0.487505 0.073563
H39   H     H_    0.284013 0.015933 0.574140 0.082846
H40   H     H_    0.173648 0.921089 0.589920 0.074504
H41   H     H_    0.633154 0.078442 0.411898 0.062978
H42   H     H_    0.791740 0.713703 0.361520 -0.061927
H43   H     H_    0.517159 0.985986 0.431422 0.072544
H44   H     H_    0.171002 0.323441 0.954352 0.165323
H45   H     H_    0.809917 0.553549 0.205236 0.126686
H46   H     H_    0.591510 0.633504 0.939795 0.143662
H47   H     H_    0.488382 0.509527 0.755111 0.171990
H48   H     H_    0.014972 0.418865 0.794601 0.136248
H49   H     H_    0.343783 0.456754 0.240634 0.140709
H50   H     H_    0.677372 0.529507 0.381976 0.083264
H51   H     H_    0.069106 0.816602 0.336279 0.143496
H52   H     H_    0.144270 0.471307 0.621063 0.076757
H53   H     H_    0.881590 0.801063 0.295455 0.126171
H54   H     H_    0.697559 0.386361 0.359785 0.014860
H55   H     H_    0.905252 0.419792 0.354495 0.063206
N1    N     N_R   0.297716 0.472494 0.850191 -0.423153
N2    N     N_R   0.525813 0.499673 0.151099 -0.436689
O1    O     O_2   0.110690 0.676100 0.539200 -0.480926
O2    O     O_3   0.376629 0.345360 0.345384 -0.618040
O3    O     O_3   0.989341 0.675124 0.309307 -0.593119
O4    O     O_2   0.699610 0.323860 0.460780 -0.469397
O5    O     O_3   0.947090 0.413280 0.465240 -0.490660
O6    O     O_3   0.442000 0.370930 0.567190 -0.476737
O7    O     O_3   0.875048 0.313565 0.366701 -0.636666
O8    O     O_3   0.359410 0.538600 0.570730 -0.488096
O9    O     O_3   0.850780 0.407910 0.598320 -0.479232
O10   O     O_2   0.754312 0.466126 0.707261 -0.479243
O11   O     O_3   0.780051 0.324600 0.686471 -0.582980
O12   O     O_3   0.863220 0.586720 0.534720 -0.490714
O13   O     O_3   0.450900 0.461390 0.429220 -0.494452
O14   O     O_2   0.599830 0.538970 0.641850 -0.432503
O15   O     O_3   0.413239 0.654391 0.667868 -0.590988
O16   O     O_2   0.553251 0.242429 0.519891 -0.492702
O17   O     O_3   0.476322 0.255998 0.631203 -0.595942
O18   O     O_2   0.429425 0.580557 0.851993 -0.587282
O19   O     O_2   0.182044 0.363208 0.857290 -0.611175
O20   O     O_2   0.432260 0.385304 0.146929 -0.519105
O21   O     O_2   0.625904 0.611661 0.146203 -0.594437
O22   O     O_3   0.368310 0.629070 0.432760 -0.485497
O23   O     O_2   0.243616 0.756674 0.474551 -0.500091
O24   O     O_3   0.934335 0.691567 0.632952 -0.618958
O25   O     O_3   0.348880 0.742304 0.365809 -0.606002
O26   O     O_2   0.210480 0.460990 0.358130 -0.462234
O27   O     O_3   0.959520 0.592090 0.401630 -0.491416
O28   O     O_2   0.093138 0.543379 0.295978 -0.494055
P1    P     P_3+3 0.935930 0.665430 0.555670 1.000512
P2    P     P_3+3 0.382700 0.439650 0.365620 1.000823
P3    P     P_3+3 0.950033 0.588393 0.324928 0.953404
P4    P     P_3+3 0.874370 0.334570 0.444280 0.976135
P5    P     P_3+3 0.865189 0.407016 0.674294 0.963987
P6    P     P_3+3 0.386134 0.722372 0.436346 0.932000
P7    P     P_3+3 0.415992 0.560256 0.645389 1.011893
P8    P     P_3+3 0.421343 0.277539 0.562954 0.935460
N3    N     N_2   0.990219 0.616378 0.767570 -0.447001
H56   H     H_    0.988738 0.562317 0.750275 0.185761
C69   C     C_3   0.120342 0.643128 0.808091 -0.201328
H57   H     H_    0.129864 0.607288 0.841573 0.146695
H58   H     H_    0.093989 0.698057 0.832388 0.138629
H59   H     H_    0.236514 0.644786 0.783235 0.161220
Cl1   Cl    Cl    0.721839 0.675359 0.742803 -0.539654
Cl2   Cl    Cl    0.600180 0.814849 0.676675 -0.595891
Cl3   Cl    Cl    0.209463 0.303884 0.070105 -0.579163
N4    N     N_2   0.717199 0.650564 0.045934 -0.390468
H60   H     H_    0.821817 0.644555 0.020538 0.191133
C70   C     C_3   0.670152 0.725264 0.063009 -0.132890
H61   H     H_    0.710607 0.757390 0.028702 0.089154
H62   H     H_    0.730314 0.748443 0.105856 0.137900
H63   H     H_    0.536129 0.729899 0.069018 0.109159

loop_
_geom_bond_atom_site_label_1
_geom_bond_atom_site_label_2
_ccdc_geom_bond_type
C7    H28   S    
C1    H15   S    
C32   C35   A    
C39   C40   A    
C34   H55   S    
C6    H26   S    
Ba1   O1    S    
Ba1   O5    S    
C17   C29   A    
C50   Cl3   S    
O2    P2    S    
C3    O15   S    
C56   H6    S    
C5    C6    S    
C70   H62   S    
C51   C52   A    
C54   C55   S    
C13   C17   A    
C24   C25   A    
C27   C28   A    
C38   C61   A    
C10   C26   A    
C1    H20   S    
Ba2   O12   S    
C21   C27   A    
N3    H56   S    
C34   H54   S    
C35   C36   A    
C22   C24   A    
O27   P3    S    
C67   C68   S    
O26   P2    D    
C3    C4    S    
C20   P4    S    
C5    H22   S    
C9    C22   A    
C15   C18   A    
C4    H18   S    
C64   N2    S    
C34   C45   S    
C32   C33   A    
C68   H11   S    
C11   H39   S    
C57   C65   D    
C9    C13   A    
C24   C32   A    
C29   C30   A    
C25   C37   A    
C14   C15   A    
C62   P2    S    
Ba2   O5    S    
C39   C44   A    
Ba1   O22   S    
C59   N1    S    
C7    C8    S    
O25   P6    S    
Ba1   O12   S    
C66   N3    S    
O7    P4    S    
C57   C58   D    
C19   C20   A    
O28   P3    D    
C69   H58   S    
C67   H8    S    
C8    H29   S    
C6    H25   S    
C66   Cl1   S    
C55   C65   S    
C5    H23   S    
C1    H10   S    
O6    P8    S    
C41   N1    Am   
O16   P8    D    
C7    O17   S    
C14   H34   S    
C56   H5    S    
Ba2   O4    S    
C70   H63   S    
C4    Cl2   S    
N4    C70   S    
C2    O25   S    
C44   C46   A    
C23   H21   S    
C48   C51   A    
C60   C64   A    
C16   C21   A    
C49   H44   S    
C56   O24   S    
Ba2   O6    S    
C8    H32   S    
C6    H24   S    
C45   H3    S    
O1    P1    D    
C16   C17   A    
C12   H31   S    
N4    H60   S    
C18   P8    S    
Ba2   O9    S    
C49   C50   A    
C58   C59   S    
C3    H17   S    
Ba1   P1    S    
C12   H42   S    
C41   C42   A    
C22   C30   A    
C60   C61   A    
O13   P2    S    
C70   H61   S    
C2    H14   S    
C26   H35   S    
C15   C16   A    
C63   H49   S    
C58   H47   S    
O24   P1    S    
C8    H30   S    
C68   H13   S    
C23   H53   S    
Ba1   O13   S    
C3    H16   S    
C42   C49   A    
C56   C66   S    
C46   C47   A    
C38   H50   S    
C55   P5    S    
C53   N2    Am   
C47   C48   A    
C11   C13   A    
O17   P8    S    
C69   H57   S    
O8    P7    S    
C27   H36   S    
C67   H9    S    
O22   P6    S    
Ba2   P4    S    
C1    C2    S    
C65   H52   S    
C42   C43   A    
C35   P6    S    
C46   N4    S    
C12   O3    S    
C66   H7    S    
O23   P6    D    
O4    P4    D    
C7    H27   S    
O10   P5    D    
C54   C59   D    
C54   H48   S    
C45   H4    S    
C34   O7    S    
O15   P7    S    
C5    O11   S    
O5    P4    S    
C9    C10   A    
C4    H19   S    
C52   N2    Am   
C28   H41   S    
C31   H43   S    
Ba2   O8    S    
C38   C62   A    
C44   H46   S    
C37   P1    S    
O3    P3    S    
O9    P5    S    
Ba2   O13   S    
C62   C63   A    
N3    C69   S    
C60   H45   S    
C57   P7    S    
C47   C53   A    
C30   C31   A    
C43   C48   A    
C28   C29   A    
C53   O21   D    
C36   C37   A    
O12   P1    S    
C10   H40   S    
Ba1   Ba2   S    
Ba1   P2    S    
C31   C33   A    
C12   C23   S    
C36   H38   S    
Ba1   O27   S    
C68   H12   S    
C45   H2    S    
Ba1   O26   S    
C33   H37   S    
C40   N1    Am   
C19   H33   S    
O11   P5    S    
O14   P7    D    
C18   C19   A    
C69   H59   S    
C67   O2    S    
C63   C64   A    
C11   C14   A    
C25   C26   A    
C41   O19   D    
Ba2   O14   S    
C39   C43   A    
C20   C21   A    
C61   P3    S    
Ba1   O8    S    
C40   O18   D    
C23   H51   S    
C2    H1    S    
C50   C51   A    
C52   O20   D    
