data_mof_unit_52326.cif
_audit_creation_date              2012-12-11T15:59:26-0500
_audit_creation_method            fapswitch 2.2
_symmetry_space_group_name_H-M    P1
_symmetry_Int_Tables_number       1
_space_group_crystal_system       triclinic
_cell_length_a                    10.751683
_cell_length_b                    10.800254
_cell_length_c                    17.02519
_cell_angle_alpha                 100.092341
_cell_angle_beta                  100.050686
_cell_angle_gamma                 59.933928
_cell_volume                      1675.75111448

loop_
_atom_site_label
_atom_site_type_symbol
_atom_type_description
_atom_site_fract_x
_atom_site_fract_y
_atom_site_fract_z
_atom_type_partial_charge
C1    C     C_R   0.353436 0.778967 0.402490 0.559316
C2    C     C_R   0.803033 0.243691 0.190870 0.023372
C3    C     C_R   0.823912 0.223324 0.272833 0.010826
C4    C     C_R   0.905027 0.400387 0.308589 -0.146360
C5    C     C_R   0.912192 0.399775 0.228763 -0.146380
C6    C     C_R   0.739820 0.170684 0.134810 0.131202
C7    C     C_R   0.733823 0.056254 0.158160 -0.054225
C8    C     C_R   0.778586 0.021510 0.236578 -0.159721
C9    C     C_R   0.818288 0.106440 0.294106 -0.101984
C10   C     C_R   0.851129 0.320334 0.331026 0.000061
C11   C     C_R   0.317152 0.864711 0.169891 0.006173
C12   C     C_R   0.365489 0.342749 0.358786 0.570118
C13   C     C_R   0.451979 0.820592 0.215062 0.018076
C14   C     C_R   0.458056 0.829622 0.299195 0.035916
C15   C     C_R   0.202548 0.899316 0.288058 -0.160678
C16   C     C_R   0.192873 0.908485 0.207993 -0.139524
C17   C     C_R   0.580451 0.766313 0.178920 -0.092740
C18   C     C_R   0.709958 0.735269 0.225823 -0.131471
C19   C     C_R   0.712981 0.762225 0.308920 -0.125910
C20   C     C_R   0.587858 0.811794 0.345441 -0.055591
C21   C     C_R   0.335369 0.850741 0.333211 -0.004017
C22   C     C_R   0.294654 0.280586 0.799033 -0.001050
C23   C     C_R   0.780223 0.372719 0.404832 0.551368
C24   C     C_R   0.407376 0.170179 0.755471 -0.036327
C25   C     C_R   0.470149 0.207213 0.705356 0.042097
C26   C     C_R   0.263338 0.452249 0.713782 -0.166572
C27   C     C_R   0.221231 0.420801 0.776613 -0.132766
C28   C     C_R   0.464869 0.024521 0.765826 -0.135223
C29   C     C_R   0.594889 0.916955 0.737680 0.117264
C30   C     C_R   0.667478 0.955086 0.695322 0.289716
C31   C     C_R   0.612168 0.100751 0.685479 0.111031
C32   C     C_R   0.385759 0.347074 0.676753 0.021072
C33   C     C_1   0.848821 0.329648 0.705465 -0.022524
C34   C     C_R   0.382451 0.712816 0.631061 0.557689
C35   C     C_1   0.895791 0.293814 0.772121 -0.051385
C36   C     C_1   0.359289 0.759840 0.713783 -0.039001
C37   C     C_1   0.326424 0.806449 0.781083 -0.066718
C38   C     C_R   0.896601 0.309373 0.089439 0.527224
C39   C     C_R   0.290680 0.260706 0.122069 0.579251
C40   C     C_R   0.291773 0.896235 0.087419 0.534923
C41   C     C_R   0.944242 0.272663 0.854800 0.539776
C42   C     C_R   0.278095 0.253864 0.876817 0.534134
C43   C     C_R   0.281926 0.878774 0.858328 0.531174
C44   C     C_R   0.408738 0.373966 0.600559 0.560049
C45   C     C_R   0.778353 0.378607 0.628891 0.553236
C46   C     C_1   0.324167 0.316367 0.276963 -0.041419
C47   C     C_1   0.304325 0.291826 0.206225 -0.043306
C48   C     C_R   0.854945 0.328678 0.169053 0.000532
Cr1   Cr    Cr6+3 0.608100 0.610860 0.522250 0.987411
Cr2   Cr    Cr6+3 0.288890 0.599990 0.488420 0.989217
Cr3   Cr    Cr6+3 0.603040 0.289190 0.489390 0.995602
Cr4   Cr    Cr6+3 0.053960 0.052250 0.967380 1.007571
Cr5   Cr    Cr6+3 0.059890 0.373160 0.992710 1.010769
Cr6   Cr    Cr6+3 0.373370 0.061690 0.991710 0.997184
H1    H     H_    0.936302 0.468021 0.352598 0.129941
H2    H     H_    0.807096 0.696731 0.197313 0.111972
H3    H     H_    0.812458 0.745574 0.345123 0.091607
H4    H     H_    0.593901 0.838352 0.409720 0.120212
H5    H     H_    0.200963 0.559322 0.694519 0.142760
H6    H     H_    0.407088 0.995871 0.795846 0.149917
H7    H     H_    0.132694 0.506532 0.808170 0.154390
H8    H     H_    0.964480 0.455003 0.214079 0.136858
H9    H     H_    0.692907 0.994799 0.115559 0.140963
H10   H     H_    0.779203 0.931169 0.254157 0.123650
H11   H     H_    0.851877 0.074985 0.354437 0.129269
H12   H     H_    0.107654 0.920214 0.313541 0.133928
H13   H     H_    0.582815 0.745059 0.114588 0.132714
H14   H     H_    0.085934 0.948734 0.175824 0.159593
O1    O     O_R   0.749810 0.499790 0.438040 -0.527462
O2    O     O_R   0.298970 0.468800 0.557390 -0.527836
O3    O     O_R   0.489400 0.255930 0.561910 -0.504680
O4    O     O_R   0.723890 0.306050 0.584610 -0.509520
O5    O     O_3   0.500010 0.500010 0.500020 -0.272724
O6    O     O_R   0.171100 0.914680 0.053100 -0.514877
O7    O     O_R   0.941680 0.184840 0.050710 -0.505230
O8    O     O_R   0.922080 0.403420 0.072610 -0.531393
O9    O     O_R   0.196880 0.369150 0.083850 -0.484107
O10   O     O_R   0.411730 0.181020 0.091530 -0.478846
O11   O     O_R   0.365010 0.944360 0.063320 -0.527401
O12   O     O_R   0.477660 0.726260 0.439290 -0.512825
O13   O     O_R   0.159380 0.906670 0.876210 -0.492011
O14   O     O_R   0.930820 0.177420 0.886730 -0.484269
O15   O     O_R   0.910360 0.395420 0.895720 -0.509787
O16   O     O_R   0.186010 0.361730 0.919870 -0.498744
O17   O     O_R   0.400000 0.173010 0.914630 -0.485910
O18   O     O_R   0.354140 0.936940 0.899340 -0.540548
O19   O     O_3   0.162410 0.162370 0.983930 -0.306787
O20   O     O_R   0.260150 0.743000 0.412270 -0.513171
O21   O     O_R   0.297740 0.466550 0.394720 -0.493253
O22   O     O_R   0.488080 0.253500 0.386430 -0.503059
O23   O     O_R   0.722670 0.303800 0.421940 -0.505005
O24   O     O_R   0.751130 0.502220 0.613520 -0.511007
O25   O     O_R   0.478890 0.728510 0.601960 -0.483829
O26   O     O_R   0.261470 0.745430 0.587750 -0.527981
N1    N     N_3   0.659003 0.771053 0.756232 -0.567044
H15   H     H_    0.602117 0.764696 0.797786 0.218850
H16   H     H_    0.761901 0.742743 0.785973 0.251877
O27   O     O_3   0.802006 0.852714 0.672087 -0.572384
C49   C     C_3   0.783661 0.799183 0.591535 -0.009608
H17   H     H_    0.739819 0.885055 0.550713 0.086465
H18   H     H_    0.709129 0.753961 0.584353 0.200757
C50   C     C_3   0.928947 0.680036 0.566008 -0.333976
H19   H     H_    0.972140 0.589316 0.603112 0.171672
H20   H     H_    0.916189 0.640218 0.502023 0.093837
H21   H     H_    0.006590 0.721571 0.573408 0.171985
N2    N     N_3   0.711037 0.141635 0.669538 -0.573082
H22   H     H_    0.755859 0.081875 0.616784 0.259476
H23   H     H_    0.795490 0.109340 0.715634 0.244062
N3    N     N_3   0.666769 0.218965 0.058067 -0.567889
H24   H     H_    0.729545 0.147543 0.012972 0.246287
H25   H     H_    0.646369 0.322974 0.053951 0.234742

loop_
_geom_bond_atom_site_label_1
_geom_bond_atom_site_label_2
_ccdc_geom_bond_type
C25   C31   A    
C26   C32   A    
C23   O23   A    
C33   C45   S    
C23   O1    A    
N1    H15   S    
C34   O25   A    
Cr4   O7    S    
C7    C8    A    
C38   O8    A    
C19   H3    S    
C1    C21   S    
C26   C27   A    
C50   H21   S    
Cr5   O16   S    
C39   O9    A    
C14   C21   A    
C12   O22   A    
C28   C29   A    
Cr4   O6    S    
N3    H25   S    
Cr3   O22   S    
C30   C31   A    
N2    H22   S    
C15   C16   A    
C41   O15   A    
C44   O3    A    
C18   C19   A    
C45   O24   A    
C31   N2    S    
C27   H7    S    
Cr3   O23   S    
C19   C20   A    
C8    C9    A    
C22   C42   S    
C44   O2    A    
C16   H14   S    
C24   C28   A    
C26   H5    S    
C38   C48   S    
C18   H2    S    
C1    O20   A    
Cr1   O1    S    
C13   C14   A    
Cr4   O14   S    
C45   O4    A    
C2    C6    A    
Cr3   O3    S    
C38   O7    A    
C28   H6    S    
C5    C48   A    
C17   H13   S    
C50   H19   S    
C39   O10   A    
C14   C20   A    
C12   O21   A    
C42   O16   A    
C24   C25   A    
C12   C46   S    
Cr2   O5    S    
Cr6   O18   S    
Cr2   O26   S    
C2    C48   A    
C15   H12   S    
C37   C43   S    
Cr5   O9    S    
C29   C30   A    
C3    C9    A    
C11   C16   A    
Cr2   O21   S    
C49   H17   S    
C17   C18   A    
C32   C44   S    
C40   O11   A    
Cr5   O19   S    
C42   O17   A    
C50   H20   S    
C7    H9    S    
C8    H10   S    
C49   H18   S    
C34   O26   A    
C22   C27   A    
C4    H1    S    
C43   O13   A    
C6    N3    S    
C22   C24   A    
Cr5   O8    S    
Cr3   O4    S    
Cr1   O24   S    
C4    C10   A    
C39   C47   S    
Cr6   O11   S    
C46   C47   T    
C36   C37   T    
C43   O18   A    
Cr4   O19   S    
Cr3   O5    S    
C4    C5    A    
Cr4   O13   S    
Cr6   O17   S    
N1    H16   S    
C6    C7    A    
Cr2   O20   S    
C10   C23   S    
C30   O27   S    
Cr1   O12   S    
C13   C17   A    
Cr5   O15   S    
C2    C3    A    
Cr2   O2    S    
C3    C10   A    
N3    H24   S    
C11   C13   A    
Cr6   O19   S    
N2    H23   S    
C25   C32   A    
C41   O14   A    
C33   C35   T    
C34   C36   S    
C40   O6    A    
C5    H8    S    
Cr1   O5    S    
C11   C40   S    
C35   C41   S    
C9    H11   S    
C29   N1    S    
C15   C21   A    
C49   C50   S    
O27   C49   S    
C1    O12   A    
Cr1   O25   S    
C20   H4    S    
Cr6   O10   S    
