data_mof_unit_49493.cif
_audit_creation_date              2012-12-10T20:25:43-0500
_audit_creation_method            fapswitch 2.2
_symmetry_space_group_name_H-M    P1
_symmetry_Int_Tables_number       1
_space_group_crystal_system       triclinic
_cell_length_a                    8.585182
_cell_length_b                    10.665157
_cell_length_c                    9.890929
_cell_angle_alpha                 90.21573
_cell_angle_beta                  98.667755
_cell_angle_gamma                 90.075707
_cell_volume                      895.284963493

loop_
_atom_site_label
_atom_site_type_symbol
_atom_type_description
_atom_site_fract_x
_atom_site_fract_y
_atom_site_fract_z
_atom_type_partial_charge
C1    C     C_R   0.497702 0.260189 0.499813 0.876645
C2    C     C_R   0.406059 0.934505 0.385768 -0.236625
C3    C     C_R   0.482216 0.871439 0.501031 -0.092257
C4    C     C_R   0.535541 0.936434 0.621168 0.144511
C5    C     C_3   0.691692 0.928988 0.710888 -0.491886
C6    C     C_3   0.693378 0.071087 0.710060 -0.497482
C7    C     C_R   0.399419 0.424357 0.056977 0.194149
C8    C     C_R   0.590364 0.582221 0.084109 -0.147777
C9    C     C_R   0.591270 0.581587 0.940349 -0.126565
C10   C     C_R   0.395314 0.427367 0.914510 0.174198
C11   C     C_3   0.373813 0.289104 0.899308 -0.548841
C12   C     C_R   0.201248 0.499691 0.464136 0.962909
C13   C     C_3   0.386058 0.283668 0.054510 -0.024038
C14   C     C_R   0.497522 0.739748 0.500031 0.873617
C15   C     C_R   0.798737 0.499774 0.535855 0.963251
C16   C     C_2   0.035980 0.499235 0.444931 -0.390750
C17   C     C_2   0.963989 0.499271 0.555037 -0.389463
C18   C     C_R   0.536576 0.064230 0.620878 0.122023
C19   C     C_R   0.482950 0.128343 0.500734 -0.085301
C20   C     C_R   0.405132 0.064330 0.386249 -0.223748
H1    H     H_    0.974019 0.499158 0.340510 0.174922
H2    H     H_    0.667876 0.645362 0.896527 0.141164
H3    H     H_    0.254329 0.264794 0.845631 0.177436
H4    H     H_    0.470747 0.241947 0.856837 0.229159
H5    H     H_    0.275575 0.250687 0.088897 0.113013
H6    H     H_    0.025942 0.499173 0.659453 0.178973
H7    H     H_    0.349350 0.113946 0.296781 0.161626
H8    H     H_    0.353264 0.884163 0.294921 0.164704
H9    H     H_    0.681677 0.888964 0.812844 0.199370
H10   H     H_    0.784580 0.886243 0.658392 0.198015
H11   H     H_    0.685966 0.112714 0.811976 0.201190
H12   H     H_    0.786851 0.111397 0.656577 0.200855
H13   H     H_    0.666028 0.646681 0.148401 0.149263
N1    N     N_R   0.498950 0.499140 0.142680 -0.107901
N2    N     N_R   0.498950 0.499180 0.857030 -0.100820
O1    O     O_R   0.500020 0.316790 0.614690 -0.627055
O2    O     O_R   0.500000 0.316760 0.385350 -0.597045
O3    O     O_R   0.271760 0.500010 0.587850 -0.609572
O4    O     O_R   0.271740 0.499970 0.358500 -0.632399
O5    O     O_R   0.500000 0.683240 0.614650 -0.619494
O6    O     O_R   0.499980 0.683210 0.385310 -0.625600
O7    O     O_R   0.728260 0.500030 0.641500 -0.627453
O8    O     O_R   0.728240 0.499990 0.412150 -0.621428
Zn1   Zn    Zn3+2 0.500010 0.500020 0.653130 0.936236
Zn2   Zn    Zn3+2 0.499990 0.499980 0.346870 0.937960
N3    N     N_2   0.524070 0.214025 0.118976 -0.259864
H14   H     H_    0.511328 0.118629 0.103502 0.221365
C21   C     C_3   0.682546 0.258151 0.110761 -0.702479
H15   H     H_    0.714326 0.336491 0.183492 0.266488
H16   H     H_    0.695071 0.287846 0.005621 0.218857
H17   H     H_    0.768194 0.181601 0.141032 0.203947

loop_
_geom_bond_atom_site_label_1
_geom_bond_atom_site_label_2
_ccdc_geom_bond_type
C7    C10   A    
C6    H12   S    
O3    Zn1   S    
C16   H1    S    
C20   H7    S    
C11   C13   S    
O2    Zn2   S    
C19   C20   A    
C1    O2    A    
O4    Zn2   S    
C4    C18   A    
C12   O4    A    
C21   H16   S    
C2    C3    A    
C15   O8    A    
N1    Zn2   S    
C8    N1    A    
N2    Zn1   S    
O8    Zn2   S    
C13   H5    S    
C10   N2    A    
C3    C14   S    
O7    Zn1   S    
C14   O6    A    
C17   H6    S    
C11   H3    S    
C21   H15   S    
C6    H11   S    
C5    H9    S    
C8    H13   S    
C12   O3    A    
C5    C6    S    
C6    C18   S    
C7    N1    A    
N3    C21   S    
C9    H2    S    
O1    Zn1   S    
C1    C19   S    
C10   C11   S    
C14   O5    A    
C3    C4    A    
C16   C17   D    
C11   H4    S    
O5    Zn1   S    
C1    O1    A    
C15   C17   S    
C18   C19   A    
C5    H10   S    
C9    N2    A    
O6    Zn2   S    
C13   N3    S    
C8    C9    A    
C2    H8    S    
C7    C13   S    
N3    H14   S    
C2    C20   A    
C21   H17   S    
C12   C16   S    
C15   O7    A    
C4    C5    S    
