data_mof_unit_63298.cif
_audit_creation_date              2013-03-05T16:19:44-0500
_audit_creation_method            fapswitch 2.2
_symmetry_space_group_name_H-M    P1
_symmetry_Int_Tables_number       1
_space_group_crystal_system       triclinic
_cell_length_a                    23.524608
_cell_length_b                    22.208433
_cell_length_c                    27.789238
_cell_angle_alpha                 89.992127
_cell_angle_beta                  90.09424
_cell_angle_gamma                 89.998136
_cell_volume                      14518.319788

loop_
_atom_site_label
_atom_site_type_symbol
_atom_site_description
_atom_site_fract_x
_atom_site_fract_y
_atom_site_fract_z
_atom_type_partial_charge
O1    O     O_R   0.417880 0.550320 0.500010 -0.583748
O2    O     O_R   0.582120 0.449680 0.499990 -0.583979
O3    O     O_R   0.582120 0.550320 0.499990 -0.583742
O4    O     O_R   0.417880 0.449680 0.500010 -0.583778
C1    C     C_R   0.390705 0.499986 0.499756 0.852031
C2    C     C_R   0.609295 0.499984 0.500242 0.851459
O5    O     O_R   0.500010 0.550300 0.430260 -0.589162
O6    O     O_R   0.499990 0.449700 0.569740 -0.540275
O7    O     O_R   0.499990 0.550300 0.569740 -0.589278
O8    O     O_R   0.500010 0.449700 0.430260 -0.540460
O9    O     O_2   0.436305 0.838876 0.563734 -0.442339
O10   O     O_2   0.566705 0.161268 0.438587 -0.436207
O11   O     O_2   0.563687 0.838892 0.436261 -0.442324
O12   O     O_2   0.433277 0.161250 0.561401 -0.436031
C3    C     C_R   0.498627 0.499962 0.407253 0.871349
C4    C     C_R   0.501372 0.499953 0.592753 0.870952
Cu1   Cu    Cu3+1 0.500000 0.559570 0.500000 0.990935
Cu2   Cu    Cu3+1 0.500000 0.440430 0.500000 1.041577
C5    C     C_R   0.457173 0.257050 0.475095 0.231499
C6    C     C_R   0.466672 0.742906 0.466225 0.228761
C7    C     C_R   0.542820 0.257032 0.524896 0.231635
C8    C     C_R   0.533322 0.742896 0.533772 0.228828
C9    C     C_R   0.449385 0.515238 0.177109 0.634625
C10   C     C_R   0.550757 0.514104 0.822941 0.634875
O13   O     O_2   0.403082 0.532227 0.202191 -0.421744
O14   O     O_2   0.597389 0.530111 0.797882 -0.421758
N1    N     N_R   0.498513 0.502710 0.201519 -0.460672
N2    N     N_R   0.501390 0.502730 0.798515 -0.460582
C11   C     C_R   0.547918 0.489793 0.178018 0.620232
C12   C     C_R   0.451711 0.491020 0.822011 0.619840
C13   C     C_R   0.519411 0.550082 0.279043 -0.097699
C14   C     C_R   0.480951 0.550286 0.720957 -0.097447
C15   C     C_R   0.518831 0.549477 0.329115 -0.215531
C16   C     C_R   0.481544 0.549665 0.670885 -0.215498
C17   C     C_R   0.473701 0.450726 0.328122 0.263526
C18   C     C_R   0.525813 0.450480 0.671926 0.263569
C19   C     C_R   0.475030 0.451328 0.277531 0.250028
C20   C     C_R   0.524418 0.451077 0.722515 0.249986
C21   C     C_R   0.497757 0.501270 0.253130 0.205332
C22   C     C_R   0.502145 0.501261 0.746899 0.204979
C23   C     C_R   0.498527 0.497559 0.101580 -0.078092
C24   C     C_R   0.501238 0.497569 0.898459 -0.078127
C25   C     C_R   0.447435 0.510688 0.126369 -0.133674
C26   C     C_R   0.552611 0.509419 0.873676 -0.133624
C27   C     C_R   0.397024 0.520140 0.099429 0.339910
C28   C     C_R   0.603230 0.517525 0.900614 0.339851
C29   C     C_R   0.549115 0.487907 0.127634 -0.070761
C30   C     C_R   0.450454 0.489196 0.872398 -0.070736
C31   C     C_R   0.496586 0.499931 0.354187 -0.200266
C32   C     C_R   0.503378 0.499904 0.645830 -0.200544
C33   C     C_R   0.448046 0.488342 0.974083 -0.025893
C34   C     C_R   0.551487 0.486994 0.025952 -0.025870
C35   C     C_R   0.552003 0.497032 0.975450 0.024080
C36   C     C_R   0.447759 0.498363 0.024588 0.024078
C37   C     C_R   0.500437 0.494200 0.949366 0.057933
C38   C     C_R   0.499246 0.494191 0.050672 0.057927
C39   C     C_R   0.398363 0.473893 0.947113 0.283282
C40   C     C_R   0.600825 0.471254 0.052917 0.283244
C41   C     C_R   0.399971 0.476303 0.896876 -0.142858
C42   C     C_R   0.599284 0.473718 0.103153 -0.142809
O15   O     O_2   0.403758 0.480768 0.796555 -0.483770
O16   O     O_2   0.595648 0.478410 0.203470 -0.483558
C43   C     C_R   0.398188 0.515262 0.049369 -0.155549
C44   C     C_R   0.601951 0.512651 0.950673 -0.155622
H1    H     H_    0.464199 0.587953 0.651676 0.200576
H2    H     H_    0.536524 0.587588 0.348312 0.200359
H3    H     H_    0.463858 0.588950 0.739755 0.185551
H4    H     H_    0.536848 0.588560 0.260223 0.185332
H5    H     H_    0.361715 0.465658 0.876853 0.233935
H6    H     H_    0.637288 0.462094 0.123174 0.233945
H7    H     H_    0.359524 0.525743 0.030068 0.207655
H8    H     H_    0.640848 0.522095 0.969977 0.207711
C45   C     C_R   0.879318 0.493868 0.459251 0.632126
C46   C     C_R   0.120683 0.493845 0.540728 0.632122
N3    N     N_R   0.852038 0.496314 0.502527 -0.462930
N4    N     N_R   0.147964 0.496320 0.497453 -0.462938
C47   C     C_R   0.881139 0.495143 0.545167 0.645062
C48   C     C_R   0.118863 0.495177 0.454812 0.645091
C49   C     C_R   0.941102 0.490751 0.545568 -0.127463
C50   C     C_R   0.058900 0.490783 0.454410 -0.127480
C51   C     C_R   0.969948 0.490932 0.500790 -0.034461
C52   C     C_R   0.030053 0.490934 0.499188 -0.034462
C53   C     C_R   0.938771 0.491732 0.457492 -0.056389
C54   C     C_R   0.061231 0.491706 0.542486 -0.056404
C55   C     C_R   0.973350 0.488051 0.588757 0.328476
C56   C     C_R   0.026652 0.488112 0.411221 0.328487
C57   C     C_R   0.032668 0.489841 0.586646 -0.155131
C58   C     C_R   0.967334 0.489898 0.413332 -0.155160
C59   C     C_R   0.458409 0.320529 0.476156 0.021585
C60   C     C_R   0.467924 0.679411 0.467248 -0.015984
C61   C     C_R   0.541592 0.320511 0.523836 0.021971
C62   C     C_R   0.532075 0.679401 0.532751 -0.016159
O17   O     O_2   0.848831 0.493964 0.418056 -0.483758
O18   O     O_2   0.151170 0.493914 0.581923 -0.483686
O19   O     O_2   0.851882 0.500109 0.586649 -0.414751
O20   O     O_2   0.148120 0.500171 0.413331 -0.414637
H9    H     H_    0.056460 0.488472 0.620054 0.227510
H10   H     H_    0.943542 0.488551 0.379923 0.227486
C63   C     C_R   0.239354 0.445834 0.490069 -0.112698
C64   C     C_R   0.760650 0.445822 0.509899 -0.112665
H11   H     H_    0.216946 0.403820 0.484417 0.184267
H12   H     H_    0.783061 0.403803 0.515538 0.184258
C65   C     C_R   0.298449 0.445996 0.491154 -0.128940
C66   C     C_R   0.701555 0.445985 0.508819 -0.129513
H13   H     H_    0.320862 0.403918 0.485841 0.194980
H14   H     H_    0.679144 0.403904 0.514123 0.194875
C67   C     C_R   0.328142 0.499866 0.498867 -0.110419
C68   C     C_R   0.671858 0.499862 0.501125 -0.110472
C69   C     C_R   0.297723 0.553658 0.505388 -0.239625
C70   C     C_R   0.702274 0.553658 0.494615 -0.239670
H15   H     H_    0.320559 0.595400 0.511090 0.207199
H16   H     H_    0.679436 0.595405 0.488926 0.207189
C71   C     C_R   0.238024 0.554222 0.504396 0.376834
C72   C     C_R   0.761973 0.554221 0.495602 0.376779
C73   C     C_R   0.208847 0.499279 0.496760 0.214697
C74   C     C_R   0.791154 0.499272 0.503221 0.214750
N5    N     N_R   0.500000 0.350920 0.500000 -0.235077
N6    N     N_R   0.500000 0.649080 0.500000 -0.225428
C75   C     C_R   0.465909 0.871401 0.531504 0.708668
C76   C     C_R   0.535405 0.128583 0.469533 0.707846
C77   C     C_R   0.534080 0.871409 0.468488 0.708676
C78   C     C_R   0.464576 0.128574 0.530454 0.707922
N7    N     N_R   0.499995 0.841134 0.499997 -0.431671
N8    N     N_R   0.499991 0.158804 0.499994 -0.432494
C79   C     C_R   0.537767 0.935502 0.469511 -0.123702
C80   C     C_R   0.461619 0.064419 0.529996 -0.124693
C81   C     C_R   0.462217 0.935495 0.530476 -0.123697
C82   C     C_R   0.538361 0.064427 0.469990 -0.124643
C83   C     C_R   0.499992 0.967781 0.499993 -0.067675
C84   C     C_R   0.499991 0.032167 0.499993 -0.066386
C85   C     C_R   0.578039 0.968085 0.441584 0.258452
C86   C     C_R   0.421568 0.031689 0.558105 0.257960
C87   C     C_R   0.421941 0.968069 0.558399 0.258446
C88   C     C_R   0.578411 0.031705 0.441879 0.257966
H17   H     H_    0.426230 0.345941 0.457230 0.211148
H18   H     H_    0.442514 0.653853 0.442016 0.188645
H19   H     H_    0.573781 0.345909 0.542752 0.211024
H20   H     H_    0.557486 0.653835 0.557984 0.188551
C89   C     C_R   0.499993 0.224405 0.499996 0.114992
C90   C     C_R   0.499997 0.775540 0.499998 0.124016
N9    N     N_R   0.412581 0.227081 0.448680 0.173232
O21   O     O_R   0.419951 0.173333 0.431164 -0.283264
O22   O     O_R   0.365583 0.255417 0.438697 -0.272451
N10   N     N_R   0.431685 0.772879 0.430912 0.164492
O23   O     O_R   0.412406 0.826990 0.438281 -0.290213
O24   O     O_R   0.415463 0.744382 0.392336 -0.285355
N11   N     N_R   0.587410 0.227043 0.551306 0.173243
O25   O     O_R   0.580033 0.173293 0.568827 -0.283196
O26   O     O_R   0.634415 0.255363 0.561283 -0.272554
N12   N     N_R   0.568307 0.772858 0.569085 0.164470
O27   O     O_R   0.587581 0.826972 0.561716 -0.290253
O28   O     O_R   0.584532 0.744348 0.607662 -0.285749
N13   N     N_R   0.947277 0.481069 0.635033 0.177472
O29   O     O_R   0.917815 0.432817 0.644153 -0.235161
O30   O     O_R   0.963143 0.515258 0.670622 -0.242268
N14   N     N_R   0.052725 0.481162 0.364943 0.177476
O31   O     O_R   0.082191 0.432917 0.355812 -0.235178
O32   O     O_R   0.036858 0.515375 0.329362 -0.242261
N15   N     N_R   0.208174 0.610303 0.511293 0.156126
O33   O     O_R   0.156591 0.617648 0.495399 -0.284499
O34   O     O_R   0.233886 0.656030 0.530936 -0.269740
N16   N     N_R   0.791820 0.610307 0.488717 0.156090
O35   O     O_R   0.843406 0.617638 0.504606 -0.284540
O36   O     O_R   0.766102 0.656050 0.469091 -0.269827
N17   N     N_R   0.446452 0.401839 0.352621 0.153882
O37   O     O_R   0.400921 0.411627 0.377960 -0.329732
O38   O     O_R   0.466400 0.347395 0.349012 -0.258903
N18   N     N_R   0.552710 0.401354 0.647468 0.154040
O39   O     O_R   0.598521 0.410690 0.622382 -0.328951
O40   O     O_R   0.532207 0.347126 0.650922 -0.259122
Br1   Br    Br    0.444318 0.384840 0.241397 -0.225201
Br2   Br    Br    0.554360 0.384178 0.758650 -0.224718
N19   N     N_R   0.343427 0.532237 0.121862 0.180082
O41   O     O_R   0.314194 0.579207 0.108766 -0.257971
O42   O     O_R   0.318339 0.489841 0.146196 -0.197091
N20   N     N_R   0.657110 0.528129 0.878176 0.180204
O43   O     O_R   0.687597 0.574136 0.891394 -0.257809
O44   O     O_R   0.681038 0.485123 0.853695 -0.197047
Br3   Br    Br    0.637201 0.927865 0.404798 -0.188873
Br4   Br    Br    0.362214 0.071500 0.594954 -0.191237
Br5   Br    Br    0.362772 0.927839 0.595176 -0.188846
Br6   Br    Br    0.637761 0.071525 0.405025 -0.191322
N21   N     N_R   0.348512 0.448860 0.969327 0.125785
O45   O     O_R   0.298340 0.460218 0.951729 -0.266227
O46   O     O_R   0.353648 0.407729 0.002425 -0.261397
N22   N     N_R   0.650069 0.444913 0.030702 0.125819
O47   O     O_R   0.700493 0.454918 0.048304 -0.266198
O48   O     O_R   0.643963 0.403950 0.997597 -0.261435

loop_
_geom_bond_atom_site_label_1
_geom_bond_atom_site_label_2
_geom_bond_distance
_ccdc_geom_bond_type
C63   C65   1.390467 A    
C8    N12   1.442453 S    
N17   O37   1.301089 A    
O12   C78   1.345573 S    
O2    Cu2   1.942739 S    
C23   C25   1.416653 A    
C46   O18   1.349881 S    
N8    C89   1.456889 S    
N11   O25   1.300856 A    
C64   C74   1.399600 A    
C54   C57   1.400656 A    
C45   O17   1.349883 S    
C85   C88   1.412955 A    
C62   H20   1.081601 S    
C66   H14   1.083205 S    
C51   C52   1.414727 A    
N19   O41   1.300975 A    
C46   N4    1.365150 A    
C11   C29   1.401097 A    
O1    C1    1.287756 A    
C60   N6    1.359808 A    
C12   C30   1.401146 A    
N14   O31   1.301341 A    
C17   C19   1.406374 A    
O7    C4    1.288396 A    
N4    C48   1.367758 A    
C83   C84   1.429921 A    
C82   C88   1.424266 A    
O8    C3    1.286674 A    
N21   O46   1.301661 A    
C63   C73   1.399597 A    
C10   O14   1.348046 S    
C35   C44   1.406277 A    
C48   C50   1.414005 A    
C39   C41   1.397643 A    
N1    C11   1.364582 A    
C36   C43   1.406279 A    
N2    C22   1.434889 S    
C40   C42   1.397621 A    
C8    C90   1.420731 A    
C18   N18   1.433250 S    
N4    C73   1.433920 S    
C9    C25   1.414341 A    
C62   N6    1.359808 A    
C50   C56   1.420047 A    
C29   C42   1.399167 A    
O10   C76   1.345570 S    
C64   C66   1.390468 A    
C48   O20   1.348085 S    
C86   C87   1.412952 A    
O5    Cu1   1.948954 S    
C17   C31   1.416894 A    
C13   C15   1.391610 A    
C33   C39   1.424049 A    
C9    N1    1.367694 A    
C56   N14   1.434065 S    
N13   O30   1.301129 A    
C70   C72   1.404674 A    
C33   C37   1.417932 A    
C69   C71   1.404676 A    
O4    Cu2   1.942728 S    
O3    C2    1.287751 A    
C66   C68   1.401721 A    
N18   O40   1.300928 A    
C53   C58   1.400655 A    
O9    C75   1.345682 S    
O6    C4    1.286737 A    
C61   H19   1.080124 S    
C45   N3    1.365149 A    
C42   H6    1.083418 S    
O2    C2    1.287193 A    
C24   C26   1.416624 A    
C88   Br6   1.945454 S    
C16   H1    1.083323 S    
C51   C53   1.408207 A    
C26   C28   1.417010 A    
C15   H2    1.083332 S    
N16   O36   1.301627 A    
C35   C37   1.413527 A    
C13   H4    1.082891 S    
C19   C21   1.406006 A    
C36   C38   1.413542 A    
C16   C32   1.404000 A    
C55   C57   1.397330 A    
C81   C87   1.423279 A    
N10   O24   1.301616 A    
C5    N9    1.442166 S    
N1    C21   1.434736 S    
C49   C51   1.418333 A    
C85   Br3   1.945429 S    
O4    C1    1.287184 A    
C24   C30   1.408375 A    
O5    C3    1.288303 A    
C6    C60   1.410714 A    
N7    C90   1.456738 S    
C47   O19   1.348084 S    
O6    Cu2   1.948951 S    
C28   C44   1.395686 A    
N9    O22   1.301642 A    
C14   C16   1.391623 A    
C78   C80   1.426547 A    
N21   O45   1.301488 A    
C81   C83   1.422571 A    
C23   C38   1.416811 A    
C77   C79   1.426332 A    
C5    C59   1.410377 A    
C27   N19   1.432886 S    
C24   C37   1.416801 A    
O11   C77   1.345681 S    
C79   C85   1.423279 A    
N15   O33   1.300913 A    
C80   C86   1.424266 A    
C64   H12   1.083037 S    
Cu1   Cu2   2.645910 S    
C23   C29   1.408391 A    
C47   C49   1.414004 A    
C65   H13   1.083205 S    
C2    C68   1.471942 S    
C55   N13   1.434064 S    
C71   N15   1.442740 S    
N3    C47   1.367758 A    
Cu2   N5    1.987877 S    
C1    C67   1.471933 S    
N19   O42   1.301251 A    
C34   C40   1.424027 A    
C59   H17   1.080153 S    
C86   Br4   1.945451 S    
C14   H3    1.082899 S    
Cu1   N6    1.987877 S    
O7    Cu1   1.948895 S    
N18   O39   1.301065 A    
C63   H11   1.083035 S    
C43   H7    1.080508 S    
C61   N5    1.360097 A    
C59   N5    1.360113 A    
C52   C54   1.408203 A    
C41   H5    1.083429 S    
C10   C26   1.414294 A    
C28   N20   1.432955 S    
N12   O28   1.301619 A    
C40   N22   1.437988 S    
C7    C89   1.420119 A    
N22   O48   1.301679 A    
C18   C20   1.406336 A    
C7    N11   1.442164 S    
C49   C55   1.420047 A    
C14   C22   1.397253 A    
C18   C32   1.416943 A    
C34   C35   1.421053 A    
C30   C41   1.399178 A    
N16   O35   1.300915 A    
C7    C61   1.410371 A    
C87   Br5   1.945428 S    
C11   O16   1.349901 S    
N20   O43   1.300975 A    
C8    C62   1.410717 A    
N11   O26   1.301643 A    
C10   N2    1.367745 A    
C46   C54   1.400332 A    
N10   O23   1.300803 A    
C82   C84   1.423227 A    
C19   Br1   1.925784 S    
C72   C74   1.415868 A    
C6    N10   1.442452 S    
C76   C82   1.426549 A    
C20   Br2   1.925884 S    
C75   N7    1.365234 A    
O1    Cu1   1.942742 S    
C33   C36   1.421089 A    
C6    C90   1.420730 A    
C69   H15   1.082981 S    
N15   O34   1.301623 A    
N22   O47   1.301475 A    
N2    C12   1.364645 A    
C25   C27   1.417000 A    
N9    O21   1.300857 A    
C20   C22   1.406110 A    
C39   N21   1.437975 S    
C67   C69   1.404455 A    
C68   C70   1.404462 A    
C34   C38   1.417921 A    
O8    Cu2   1.948898 S    
N14   O32   1.301128 A    
C17   N17   1.433319 S    
C50   C52   1.418336 A    
C27   C43   1.395684 A    
C60   H18   1.081602 S    
O3    Cu1   1.942726 S    
C56   C58   1.397328 A    
C3    C31   1.475372 S    
C4    C32   1.475652 S    
C70   H16   1.082980 S    
C77   N7    1.365233 A    
C72   N16   1.442747 S    
C79   C83   1.422574 A    
C9    O13   1.348022 S    
C15   C31   1.403942 A    
N17   O38   1.300928 A    
C12   O15   1.349906 S    
C13   C21   1.397198 A    
C80   C84   1.423229 A    
N12   O27   1.300802 A    
C65   C67   1.401720 A    
N3    C74   1.433921 S    
C71   C73   1.415867 A    
N13   O29   1.301340 A    
C78   N8    1.365102 A    
C45   C53   1.400335 A    
C5    C89   1.420121 A    
C58   H10   1.083694 S    
C76   N8    1.365104 A    
C44   H8    1.080503 S    
N20   O44   1.301262 A    
C57   H9    1.083691 S    
C75   C81   1.426330 A    
