data_mof_unit_9175.cif
_audit_creation_date              2012-12-10T19:58:50-0500
_audit_creation_method            fapswitch 2.2
_symmetry_space_group_name_H-M    P1
_symmetry_Int_Tables_number       1
_space_group_crystal_system       triclinic
_cell_length_a                    18.393123
_cell_length_b                    18.397601
_cell_length_c                    22.363089
_cell_angle_alpha                 90.011959
_cell_angle_beta                  90.015343
_cell_angle_gamma                 90.174789
_cell_volume                      7567.39523423

loop_
_atom_site_label
_atom_site_type_symbol
_atom_type_description
_atom_site_fract_x
_atom_site_fract_y
_atom_site_fract_z
_atom_type_partial_charge
C1    C     C_R   0.499968 0.999995 0.340110 0.510538
C2    C     C_R   0.859183 0.639432 0.500857 0.547755
C3    C     C_3   0.572949 0.321111 0.407894 -0.093030
C4    C     C_3   0.271361 0.610198 0.313778 -0.078875
C5    C     C_3   0.610946 0.725586 0.313441 -0.052287
C6    C     C_3   0.730176 0.389811 0.314577 -0.082118
C7    C     C_3   0.388860 0.272949 0.312411 -0.057224
C8    C     C_3   0.177414 0.073419 0.909758 -0.094989
C9    C     C_3   0.915379 0.188165 0.894141 -0.086832
C10   C     C_3   0.823335 0.929508 0.917061 -0.101934
C11   C     C_3   0.072820 0.823262 0.909783 -0.091229
C12   C     C_3   0.751492 0.127792 0.805880 -0.078844
C13   C     C_R   0.360842 0.859068 0.501109 0.560003
C14   C     C_3   0.115568 0.229809 0.810899 -0.056764
C15   C     C_3   0.229602 0.889979 0.814799 -0.081649
C16   C     C_3   0.893732 0.779241 0.814687 -0.053908
C17   C     C_3   0.798848 0.900952 0.586838 -0.049404
C18   C     C_3   0.085788 0.795894 0.569852 -0.071151
C19   C     C_3   0.195983 0.080779 0.558717 -0.101587
C20   C     C_3   0.814752 0.329481 0.643420 -0.093568
C21   C     C_3   0.228531 0.895354 0.612828 -0.060617
C22   C     C_3   0.813824 0.696233 0.646984 -0.078460
C23   C     C_3   0.679523 0.176696 0.644875 -0.086523
C24   C     C_R   0.140430 0.360245 0.500578 0.531391
C25   C     C_3   0.089821 0.216068 0.594051 -0.047396
C26   C     C_3   0.296866 0.398941 0.090189 -0.048856
C27   C     C_3   0.607269 0.266695 0.111872 -0.054840
C28   C     C_3   0.692815 0.569953 0.035607 -0.097834
C29   C     C_3   0.323048 0.821350 0.144668 -0.079987
C30   C     C_3   0.733022 0.389145 0.115745 -0.065259
C31   C     C_3   0.311030 0.192723 0.146875 -0.083487
C32   C     C_3   0.171176 0.684236 0.143670 -0.091247
C33   C     C_3   0.573923 0.701667 0.064816 -0.047605
C34   C     C_R   0.358798 0.139072 0.499239 0.512974
C35   C     C_R   0.139435 0.640917 0.499646 0.555374
C36   C     C_R   0.640202 0.859800 0.500269 0.525961
C37   C     C_R   0.858916 0.360732 0.501100 0.551807
C38   C     C_R   0.139112 0.641261 0.001264 0.551467
C39   C     C_R   0.359178 0.139429 0.000838 0.553565
C40   C     C_R   0.860528 0.359269 0.000938 0.565998
C41   C     C_R   0.999996 0.500007 0.340108 0.518711
C42   C     C_R   0.639832 0.859550 0.999938 0.525355
C43   C     C_R   0.858459 0.638588 0.998630 0.509776
C44   C     C_R   0.640518 0.139707 0.000826 0.574407
C45   C     C_R   0.140164 0.359764 0.000299 0.527594
C46   C     C_R   0.359151 0.860423 0.000872 0.551864
C47   C     C_R   0.692129 0.744877 0.462778 -0.048774
C48   C     C_R   0.253039 0.693806 0.461661 -0.013646
C49   C     C_R   0.305834 0.252584 0.460998 -0.050411
C50   C     C_R   0.743518 0.309338 0.463895 -0.023059
C51   C     C_R   0.307681 0.744832 0.462931 -0.069632
C52   C     C_R   0.999967 0.499994 0.840111 0.510958
C53   C     C_R   0.743181 0.690342 0.464122 -0.074915
C54   C     C_R   0.689619 0.257465 0.464609 -0.078485
C55   C     C_R   0.254587 0.307056 0.462329 -0.103870
C56   C     C_R   0.192868 0.245635 0.961962 -0.048330
C57   C     C_R   0.749827 0.197305 0.959262 -0.015020
C58   C     C_R   0.806643 0.753100 0.961213 -0.050675
C59   C     C_R   0.243536 0.809325 0.964048 -0.023279
C60   C     C_R   0.803908 0.248760 0.959910 -0.068791
C61   C     C_R   0.243964 0.191117 0.963244 -0.075545
C62   C     C_R   0.189340 0.757806 0.964986 -0.077132
C63   C     C_R   0.499997 0.000016 0.840108 0.519107
C64   C     C_R   0.754981 0.807547 0.962804 -0.105209
C65   C     C_R   0.693607 0.801571 0.504204 -0.020346
C66   C     C_R   0.195719 0.696596 0.502280 -0.011809
C67   C     C_R   0.301941 0.194002 0.500390 -0.025806
C68   C     C_R   0.797492 0.311059 0.507648 -0.016270
C69   C     C_R   0.308219 0.800386 0.505324 -0.012254
C70   C     C_R   0.799588 0.691027 0.505820 -0.015720
C71   C     C_R   0.689326 0.202371 0.507465 -0.020724
C72   C     C_R   0.197365 0.305712 0.503330 -0.023210
C73   C     C_R   0.193492 0.301460 0.004200 -0.019499
C74   C     C_R   0.500010 0.000041 0.659902 0.506442
C75   C     C_R   0.698959 0.192762 0.005167 -0.008443
C76   C     C_R   0.800026 0.691762 0.997507 -0.027995
C77   C     C_R   0.298100 0.810209 0.007268 -0.015192
C78   C     C_R   0.808112 0.300294 0.005455 -0.012142
C79   C     C_R   0.299524 0.190977 0.005703 -0.014157
C80   C     C_R   0.188392 0.703037 0.008107 -0.023081
C81   C     C_R   0.694726 0.802713 0.000650 -0.025666
C82   C     C_R   0.744669 0.798182 0.551767 0.248738
C83   C     C_R   0.197720 0.749631 0.548771 0.251426
C84   C     C_R   0.245926 0.192895 0.544248 0.272326
C85   C     C_R   0.999920 0.500002 0.659898 0.498312
C86   C     C_R   0.788574 0.266000 0.558749 0.254422
C87   C     C_R   0.257495 0.797663 0.552755 0.256912
C88   C     C_R   0.795488 0.740916 0.553896 0.237464
C89   C     C_R   0.735303 0.210495 0.558159 0.258549
C90   C     C_R   0.196516 0.251047 0.547928 0.266466
C91   C     C_R   0.243567 0.297114 0.052409 0.249441
C92   C     C_R   0.708807 0.236911 0.056744 0.248780
C93   C     C_R   0.738806 0.685181 0.035784 0.274634
C94   C     C_R   0.289642 0.764744 0.058233 0.251836
C95   C     C_R   0.763801 0.290944 0.056883 0.257223
C96   C     C_R   0.000010 0.500035 0.159901 0.506831
C97   C     C_R   0.294442 0.239860 0.054394 0.239885
C98   C     C_R   0.234105 0.711468 0.058904 0.258007
C99   C     C_R   0.688315 0.742070 0.039495 0.270493
C100  C     C_1   0.000002 0.500035 0.276731 -0.008129
C101  C     C_1   0.499906 0.999994 0.276730 -0.015952
C102  C     C_1   0.500006 0.000052 0.776732 -0.009777
C103  C     C_1   0.999903 0.499988 0.776731 -0.014391
C104  C     C_1   0.500024 0.000063 0.723280 -0.013758
C105  C     C_1   0.999883 0.499999 0.723278 -0.018066
C106  C     C_1   0.000020 0.500046 0.223280 -0.011139
C107  C     C_R   0.499925 0.000005 0.159897 0.499916
C108  C     C_1   0.499887 0.000006 0.223277 -0.020632
C109  C     C_3   0.742169 0.681540 0.397020 0.556207
C110  C     C_3   0.315599 0.744702 0.395773 0.507548
C111  C     C_3   0.256303 0.316319 0.395115 0.552290
C112  C     C_3   0.684871 0.256312 0.397147 0.512887
C113  C     C_3   0.253042 0.688226 0.394671 0.518885
C114  C     C_3   0.686514 0.744171 0.395676 0.508117
C115  C     C_3   0.746583 0.313773 0.397003 0.523955
C116  C     C_3   0.312192 0.254194 0.393927 0.551724
C117  C     C_3   0.244496 0.183834 0.896025 0.555668
C118  C     C_R   0.639433 0.141011 0.500988 0.554794
C119  C     C_3   0.803829 0.254961 0.892556 0.504500
C120  C     C_3   0.759047 0.819292 0.895877 0.552505
C121  C     C_3   0.183618 0.756976 0.897614 0.513479
C122  C     C_3   0.741813 0.197772 0.892560 0.516998
C123  C     C_3   0.188872 0.246487 0.894765 0.508243
C124  C     C_3   0.245942 0.813787 0.897119 0.523015
C125  C     C_3   0.814987 0.757471 0.894315 0.551492
C126  C     C_3   0.675649 0.571337 0.413450 -0.095616
C127  C     C_3   0.425961 0.678429 0.410679 -0.088507
C128  C     C_3   0.322043 0.426750 0.412051 -0.102089
H1    H     H_    0.629755 0.602025 0.433462 0.114148
H2    H     H_    0.602031 0.367974 0.428285 0.110236
H3    H     H_    0.275892 0.805859 0.172803 0.103157
H4    H     H_    0.691339 0.395501 0.079873 0.067856
H5    H     H_    0.766280 0.439490 0.117168 0.177493
H6    H     H_    0.705275 0.385640 0.159639 0.110381
H7    H     H_    0.350106 0.188335 0.184480 0.133150
H8    H     H_    0.299672 0.136634 0.130550 0.092310
H9    H     H_    0.260493 0.217914 0.164615 0.158770
H10   H     H_    0.174957 0.653657 0.186298 0.134261
H11   H     H_    0.118381 0.669926 0.122587 0.116596
H12   H     H_    0.171485 0.743132 0.154835 0.075693
H13   H     H_    0.548577 0.286019 0.443025 0.154953
H14   H     H_    0.566088 0.701693 0.015322 0.100552
H15   H     H_    0.575780 0.645131 0.081873 0.127737
H16   H     H_    0.525137 0.727462 0.084731 0.180106
H17   H     H_    0.527748 0.343529 0.380856 0.154069
H18   H     H_    0.299424 0.656143 0.290990 0.127405
H19   H     H_    0.214499 0.605122 0.297464 0.147093
H20   H     H_    0.300251 0.559601 0.301279 0.147996
H21   H     H_    0.657696 0.697994 0.291617 0.158663
H22   H     H_    0.606450 0.782372 0.296979 0.155837
H23   H     H_    0.560814 0.696337 0.299766 0.137075
H24   H     H_    0.703395 0.343105 0.291776 0.126599
H25   H     H_    0.711518 0.548927 0.448861 0.146290
H26   H     H_    0.787527 0.395156 0.299552 0.162207
H27   H     H_    0.701206 0.439817 0.300662 0.139227
H28   H     H_    0.341539 0.298669 0.289828 0.173911
H29   H     H_    0.395488 0.216153 0.296480 0.135646
H30   H     H_    0.438186 0.303689 0.299019 0.127365
H31   H     H_    0.131209 0.103835 0.929561 0.117864
H32   H     H_    0.212359 0.050004 0.945350 0.147964
H33   H     H_    0.154038 0.027458 0.883993 0.153222
H34   H     H_    0.887031 0.139938 0.912962 0.119055
H35   H     H_    0.942758 0.219539 0.930135 0.160359
H36   H     H_    0.651945 0.524653 0.388773 0.154378
H37   H     H_    0.958278 0.167784 0.863686 0.148601
H38   H     H_    0.868900 0.899073 0.937850 0.120611
H39   H     H_    0.785194 0.949652 0.951744 0.150566
H40   H     H_    0.846988 0.977775 0.894484 0.150418
H41   H     H_    0.103045 0.869245 0.930407 0.109822
H42   H     H_    0.048016 0.788220 0.944753 0.154505
H43   H     H_    0.027966 0.847128 0.883251 0.154829
H44   H     H_    0.776825 0.175995 0.784110 0.124883
H45   H     H_    0.693083 0.123737 0.793571 0.137104
H46   H     H_    0.779018 0.078770 0.788114 0.154017
H47   H     H_    0.395364 0.632293 0.430657 0.115611
H48   H     H_    0.163103 0.203085 0.789487 0.161422
H49   H     H_    0.111122 0.286952 0.795287 0.156292
H50   H     H_    0.066074 0.200540 0.795787 0.125426
H51   H     H_    0.202116 0.843549 0.792183 0.131163
H52   H     H_    0.286872 0.894704 0.799432 0.160773
H53   H     H_    0.201057 0.940276 0.801014 0.137479
H54   H     H_    0.846722 0.805157 0.791810 0.173479
H55   H     H_    0.901410 0.723057 0.797646 0.138483
H56   H     H_    0.942996 0.810938 0.802774 0.130273
H57   H     H_    0.802017 0.701301 0.327810 0.348481
H58   H     H_    0.449177 0.713799 0.446161 0.156463
H59   H     H_    0.300461 0.807490 0.327437 0.319804
H60   H     H_    0.158915 0.339272 0.367913 0.347825
H61   H     H_    0.703915 0.192505 0.330120 0.334322
H62   H     H_    0.195356 0.729936 0.329915 0.303686
H63   H     H_    0.675969 0.846469 0.375559 0.337688
H64   H     H_    0.807693 0.271774 0.334609 0.316522
H65   H     H_    0.323380 0.151974 0.373744 0.324161
H66   H     H_    0.305911 0.205122 0.828059 0.349714
H67   H     H_    0.780247 0.323726 0.830010 0.319338
H68   H     H_    0.662672 0.843136 0.866719 0.348442
H69   H     H_    0.472088 0.655020 0.385319 0.154178
H70   H     H_    0.200985 0.693327 0.830191 0.333105
H71   H     H_    0.676476 0.244495 0.835594 0.304858
H72   H     H_    0.178780 0.349251 0.876228 0.336545
H73   H     H_    0.305995 0.771101 0.834333 0.315144
H74   H     H_    0.826983 0.656074 0.871711 0.324729
H75   H     H_    0.793333 0.945229 0.620197 0.153918
H76   H     H_    0.793842 0.925930 0.541654 0.128447
H77   H     H_    0.853809 0.876981 0.592480 0.142911
H78   H     H_    0.040457 0.793755 0.602523 0.159138
H79   H     H_    0.064469 0.776158 0.526228 0.143879
H80   H     H_    0.367643 0.396460 0.432923 0.119896
H81   H     H_    0.101654 0.853604 0.564331 0.066786
H82   H     H_    0.173278 0.046796 0.595186 0.106709
H83   H     H_    0.228812 0.045101 0.529377 0.147887
H84   H     H_    0.149262 0.101619 0.532187 0.082847
H85   H     H_    0.755768 0.328710 0.654343 0.072806
H86   H     H_    0.828751 0.382243 0.622174 0.108680
H87   H     H_    0.845131 0.326225 0.686195 0.152803
H88   H     H_    0.210285 0.919254 0.569586 0.082728
H89   H     H_    0.260600 0.937831 0.636307 0.155571
H90   H     H_    0.181360 0.882245 0.641821 0.133949
H91   H     H_    0.285230 0.449100 0.446792 0.156419
H92   H     H_    0.853586 0.692861 0.684179 0.137662
H93   H     H_    0.802065 0.639719 0.631890 0.091670
H94   H     H_    0.763665 0.722021 0.664869 0.157878
H95   H     H_    0.670201 0.128719 0.673949 0.143246
H96   H     H_    0.626780 0.189460 0.622792 0.086668
H97   H     H_    0.696342 0.222305 0.674220 0.099517
H98   H     H_    0.071827 0.205866 0.547139 0.108178
H99   H     H_    0.097238 0.164074 0.618305 0.127336
H100  H     H_    0.044972 0.245335 0.616771 0.168652
H101  H     H_    0.290242 0.442575 0.123979 0.152665
H102  H     H_    0.346042 0.473470 0.387643 0.153678
H103  H     H_    0.293418 0.424795 0.045238 0.128834
H104  H     H_    0.351597 0.374824 0.096788 0.146109
H105  H     H_    0.559656 0.231534 0.121763 0.178846
H106  H     H_    0.594840 0.297985 0.070349 0.092504
H107  H     H_    0.612106 0.304733 0.150029 0.107831
H108  H     H_    0.665842 0.530757 0.066090 0.110950
H109  H     H_    0.732756 0.539306 0.008410 0.148778
H110  H     H_    0.650167 0.591967 0.005283 0.090502
H111  H     H_    0.312456 0.874275 0.122159 0.080373
H112  H     H_    0.370106 0.829547 0.174998 0.156994
O1    O     O_3   0.500000 0.000000 0.500000 -0.467129
O2    O     O_R   0.560750 0.000000 0.867980 -0.528016
O3    O     O_3   0.636139 0.740347 0.084263 -0.520451
O4    O     O_R   0.000000 0.560750 0.867980 -0.523374
O5    O     O_R   0.439250 0.000000 0.867980 -0.508469
O6    O     O_R   0.560720 0.000000 0.632020 -0.537518
O7    O     O_R   0.000000 0.560720 0.632020 -0.530882
O8    O     O_R   0.439280 0.000000 0.632020 -0.528315
O9    O     O_R   0.000000 0.439280 0.632020 -0.541042
O10   O     O_R   0.060720 0.500000 0.132020 -0.534014
O11   O     O_R   0.500000 0.060720 0.132020 -0.541040
O12   O     O_R   0.939280 0.500000 0.132020 -0.531551
O13   O     O_3   0.000000 0.500000 0.500000 -0.471629
O14   O     O_R   0.500000 0.939280 0.132020 -0.540004
O15   O     O_R   0.585450 0.146130 0.465380 -0.516834
O16   O     O_R   0.853870 0.585450 0.465380 -0.522622
O17   O     O_R   0.414550 0.853870 0.465380 -0.512714
O18   O     O_R   0.146130 0.414550 0.465380 -0.556693
O19   O     O_R   0.414550 0.146130 0.465380 -0.540302
O20   O     O_R   0.146130 0.585450 0.465380 -0.499462
O21   O     O_R   0.585450 0.853870 0.465380 -0.538968
O22   O     O_R   0.853870 0.414550 0.465380 -0.506485
O23   O     O_R   0.085450 0.646130 0.965380 -0.514209
O24   O     O_3   0.000000 0.500000 0.000000 -0.466574
O25   O     O_R   0.353870 0.085450 0.965380 -0.523441
O26   O     O_R   0.914550 0.353870 0.965380 -0.518977
O27   O     O_R   0.646130 0.914550 0.965380 -0.558192
O28   O     O_R   0.914550 0.646130 0.965380 -0.541100
O29   O     O_R   0.646130 0.085450 0.965380 -0.500590
O30   O     O_R   0.085450 0.353870 0.965380 -0.539003
O31   O     O_R   0.353870 0.914550 0.965380 -0.506930
O32   O     O_R   0.353850 0.914510 0.534610 -0.530487
O33   O     O_R   0.085490 0.353850 0.534610 -0.508974
O34   O     O_R   0.646150 0.085490 0.534610 -0.508533
O35   O     O_3   0.500000 0.000000 0.000000 -0.469778
O36   O     O_R   0.914510 0.646150 0.534610 -0.507240
O37   O     O_R   0.646150 0.914510 0.534610 -0.499063
O38   O     O_R   0.914510 0.353850 0.534610 -0.518902
O39   O     O_R   0.353850 0.085490 0.534610 -0.514093
O40   O     O_R   0.085490 0.646150 0.534610 -0.515696
O41   O     O_R   0.853850 0.414510 0.034610 -0.537064
O42   O     O_R   0.585490 0.853850 0.034610 -0.502817
O43   O     O_R   0.146150 0.585490 0.034610 -0.511612
O44   O     O_R   0.414510 0.146150 0.034610 -0.506216
O45   O     O_R   0.146150 0.414510 0.034610 -0.499328
O46   O     O_R   0.500000 0.939250 0.367980 -0.525109
O47   O     O_R   0.414510 0.853850 0.034610 -0.520745
O48   O     O_R   0.853850 0.585490 0.034610 -0.513109
O49   O     O_R   0.585490 0.146150 0.034610 -0.529942
O50   O     O_3   0.716012 0.614307 0.372790 -0.552747
O51   O     O_3   0.382612 0.719343 0.370815 -0.555004
O52   O     O_3   0.282990 0.383315 0.370846 -0.555660
O53   O     O_3   0.618586 0.280082 0.369887 -0.555815
O54   O     O_3   0.272449 0.616938 0.376637 -0.557315
O55   O     O_3   0.615606 0.724469 0.376472 -0.580988
O56   O     O_3   0.726932 0.384398 0.377473 -0.560110
O57   O     O_R   0.060750 0.500000 0.367980 -0.528191
O58   O     O_3   0.383191 0.274538 0.375400 -0.580422
O59   O     O_3   0.218913 0.117135 0.870419 -0.553313
O60   O     O_3   0.867922 0.233170 0.860989 -0.556541
O61   O     O_3   0.786321 0.887203 0.873866 -0.552075
O62   O     O_3   0.117197 0.781679 0.871155 -0.553492
O63   O     O_3   0.759472 0.128620 0.868637 -0.550500
O64   O     O_3   0.118495 0.227214 0.873985 -0.580595
O65   O     O_3   0.226854 0.884621 0.877716 -0.560703
O66   O     O_3   0.886391 0.778705 0.877598 -0.581059
O67   O     O_3   0.809366 0.700887 0.371773 -0.641127
O68   O     O_R   0.500000 0.060750 0.367980 -0.523541
O69   O     O_3   0.295797 0.812184 0.371476 -0.684652
O70   O     O_3   0.190398 0.295625 0.368177 -0.643836
O71   O     O_3   0.706734 0.188706 0.374321 -0.665058
O72   O     O_3   0.186213 0.712650 0.371221 -0.688437
O73   O     O_3   0.713676 0.808705 0.369869 -0.698076
O74   O     O_3   0.814738 0.289873 0.375961 -0.669978
O75   O     O_3   0.285826 0.189744 0.367344 -0.677732
O76   O     O_3   0.312257 0.203720 0.872112 -0.639151
O77   O     O_3   0.780815 0.324233 0.874381 -0.688010
O78   O     O_3   0.694158 0.799491 0.866866 -0.646865
O79   O     O_R   0.939250 0.500000 0.367980 -0.508861
O80   O     O_3   0.204396 0.689254 0.874346 -0.665287
O81   O     O_3   0.672373 0.223348 0.876221 -0.685214
O82   O     O_3   0.216620 0.311630 0.870456 -0.696526
O83   O     O_3   0.313637 0.789185 0.875619 -0.672677
O84   O     O_3   0.789592 0.694049 0.865477 -0.680468
O85   O     O_3   0.743690 0.848988 0.597431 -0.529778
O86   O     O_3   0.143833 0.753018 0.591893 -0.523273
O87   O     O_3   0.239275 0.136306 0.584650 -0.515673
O88   O     O_3   0.835493 0.270277 0.607022 -0.512702
O89   O     O_3   0.272687 0.833376 0.606032 -0.529216
O90   O     O_R   0.000000 0.439250 0.867980 -0.525406
O91   O     O_3   0.844632 0.738124 0.600648 -0.545429
O92   O     O_3   0.735166 0.159649 0.603784 -0.510073
O93   O     O_3   0.153578 0.258774 0.598582 -0.526528
O94   O     O_3   0.241356 0.346823 0.098853 -0.530324
O95   O     O_3   0.670287 0.222764 0.108794 -0.526126
O96   O     O_3   0.727539 0.624008 0.070670 -0.517614
O97   O     O_3   0.340274 0.765255 0.104044 -0.515307
O98   O     O_3   0.779386 0.328369 0.109215 -0.525528
O99   O     O_3   0.342608 0.236006 0.101773 -0.546739
O100  O     O_3   0.230347 0.664202 0.106960 -0.511894
Zn1   Zn    Zn3+2 0.586760 0.000000 0.549450 0.969166
Zn2   Zn    Zn3+2 0.913280 0.500000 0.450540 0.989359
Zn3   Zn    Zn3+2 0.500000 0.913280 0.450540 0.975611
Zn4   Zn    Zn3+2 0.086720 0.500000 0.450540 0.979746
Zn5   Zn    Zn3+2 0.000000 0.586720 0.950540 0.965802
Zn6   Zn    Zn3+2 0.413280 0.000000 0.950540 0.991377
Zn7   Zn    Zn3+2 0.000000 0.413280 0.950540 0.973437
Zn8   Zn    Zn3+2 0.586720 0.000000 0.950540 0.981130
Zn9   Zn    Zn3+2 0.000000 0.586760 0.549450 0.964372
Zn10  Zn    Zn3+2 0.413240 0.000000 0.549450 0.950541
Zn11  Zn    Zn3+2 0.000000 0.413240 0.549450 0.950357
Zn12  Zn    Zn3+2 0.086760 0.500000 0.049450 0.970604
Zn13  Zn    Zn3+2 0.500000 0.086760 0.049450 0.954984
Zn14  Zn    Zn3+2 0.913240 0.500000 0.049450 0.947616
Zn15  Zn    Zn3+2 0.500000 0.913240 0.049450 0.951365
Zn16  Zn    Zn3+2 0.500000 0.086720 0.450540 0.966412

loop_
_geom_bond_atom_site_label_1
_geom_bond_atom_site_label_2
_ccdc_geom_bond_type
O36   Zn9   S    
C11   H43   S    
O38   Zn11  S    
C119  O60   S    
C12   H44   S    
C92   O95   S    
C34   C67   S    
C112  O53   S    
H72   O82   S    
O13   Zn4   S    
C126  H36   S    
O23   Zn5   S    
C37   C68   S    
C24   O18   A    
C5    H21   S    
C82   O85   S    
C125  O66   S    
C93   O96   S    
C98   O100  S    
O33   Zn11  S    
C31   H9    S    
C6    H27   S    
C82   C88   A    
C37   O38   A    
C47   C53   A    
C15   O65   S    
C117  C123  S    
C114  O55   S    
O10   Zn12  S    
C83   O86   S    
O43   Zn12  S    
C114  O73   S    
C28   O96   S    
C1    O46   A    
C23   H97   S    
C109  O50   S    
C33   H16   S    
C22   H93   S    
C19   H84   S    
C20   H87   S    
O28   Zn5   S    
C32   H11   S    
C35   O40   A    
C13   O32   A    
C86   O88   S    
C120  C125  S    
C20   O88   S    
C81   C99   A    
C35   C66   S    
H64   O74   S    
C119  O77   S    
C107  O14   A    
C18   O86   S    
C28   H109  S    
C39   O25   A    
C21   H88   S    
C54   C112  S    
O24   Zn7   S    
C38   O43   A    
C25   O93   S    
C11   H41   S    
C27   O95   S    
C1    C101  S    
C120  O61   S    
C94   O97   S    
C12   H46   S    
C53   C109  S    
C59   C124  S    
C56   C73   A    
C55   C111  S    
C79   C97   A    
O2    Zn8   S    
C31   H8    S    
O22   Zn2   S    
C46   C77   S    
C16   H56   S    
C7    H29   S    
C117  O59   S    
C100  C106  T    
C64   C120  S    
O39   Zn10  S    
C36   O21   A    
O31   Zn6   S    
C65   C82   A    
C9    H37   S    
C16   H54   S    
C32   O100  S    
C118  O15   A    
C10   H40   S    
H67   O77   S    
C97   O99   S    
C8    H31   S    
C4    H20   S    
C47   C114  S    
C110  O51   S    
C52   C103  S    
C85   O9    A    
C15   H51   S    
C17   H76   S    
C19   H82   S    
C3    H13   S    
C58   C76   A    
C60   C78   A    
C62   C80   A    
C77   C94   A    
C89   O92   S    
C72   C90   A    
C60   C119  S    
C17   H75   S    
C13   O17   A    
C37   O22   A    
C9    O60   S    
O27   Zn8   S    
C111  O70   S    
C7    H28   S    
C30   H6    S    
C107  C108  S    
O18   Zn4   S    
C66   C83   A    
C21   H89   S    
C42   C81   S    
C84   C90   A    
C63   C102  S    
C58   C64   A    
C45   O30   A    
C63   O5    A    
C44   O49   A    
C49   C55   A    
C95   O98   S    
C25   H99   S    
C18   H79   S    
C20   H86   S    
C32   H10   S    
C74   O8    A    
C128  H91   S    
C39   O44   A    
C10   H38   S    
C103  C105  T    
C14   H50   S    
C109  C114  S    
C28   H108  S    
O11   Zn13  S    
C124  O83   S    
C23   H95   S    
C3    H17   S    
C112  O71   S    
C33   O3    S    
C118  O34   A    
C31   O99   S    
C24   C72   S    
C74   C104  S    
C43   O48   A    
C125  O84   S    
C35   O20   A    
C26   H103  S    
C51   C69   A    
C109  O67   S    
C121  O62   S    
C57   C75   A    
C17   H77   S    
C123  O64   S    
O79   Zn2   S    
C38   O23   A    
C29   H3    S    
C13   C69   S    
C22   O91   S    
C61   C79   A    
C30   H4    S    
O48   Zn14  S    
O6    Zn1   S    
H60   O70   S    
C64   C81   A    
H61   O71   S    
C122  O81   S    
H62   O72   S    
O41   Zn14  S    
C128  O52   S    
H57   O67   S    
C48   C113  S    
C48   C66   A    
C42   O27   A    
C44   O29   A    
C40   O26   A    
O17   Zn3   S    
C83   C87   A    
C34   O39   A    
C96   O10   A    
C33   H15   S    
C29   O97   S    
C22   H94   S    
C50   C54   A    
C19   H83   S    
C46   O47   A    
C32   H12   S    
H73   O83   S    
C74   O6    A    
H71   O81   S    
C94   C98   A    
C45   O45   A    
C50   C115  S    
C9    H35   S    
C115  O74   S    
C14   H48   S    
C27   H106  S    
C28   H110  S    
C57   C122  S    
C126  O50   S    
C41   O57   A    
O19   Zn16  S    
C87   O89   S    
C54   C71   A    
H63   O73   S    
O24   Zn12  S    
O12   Zn14  S    
C111  C116  S    
C90   O93   S    
C93   C99   A    
C29   H112  S    
C69   C87   A    
C6    H24   S    
C101  C108  T    
C53   C70   A    
C127  H69   S    
C1    O68   A    
C26   H101  S    
C127  H47   S    
O34   Zn1   S    
C61   C117  S    
C122  O63   S    
C91   O94   S    
C3    O53   S    
C31   H7    S    
O35   Zn15  S    
C36   C65   S    
C57   C60   A    
O4    Zn5   S    
C63   O2    A    
C5    H22   S    
C39   C79   S    
C56   C123  S    
C17   O85   S    
C76   C93   A    
C19   O87   S    
C78   C95   A    
C18   H81   S    
H70   O80   S    
C91   C97   A    
C26   O94   S    
O26   Zn7   S    
C51   C110  S    
C52   O90   A    
C40   C78   S    
C96   O12   A    
C8    H32   S    
O1    Zn10  S    
C7    O58   S    
C43   C76   S    
C22   H92   S    
C80   C98   A    
C11   O62   S    
C86   C89   A    
O25   Zn6   S    
O45   Zn12  S    
O20   Zn4   S    
O13   Zn9   S    
O32   Zn10  S    
C126  H1    S    
C107  O11   A    
C52   O4    A    
C4    H19   S    
C12   O63   S    
C15   H53   S    
O49   Zn13  S    
C99   O3    S    
H74   O84   S    
O30   Zn7   S    
C111  O52   S    
O21   Zn3   S    
C126  H25   S    
C49   C116  S    
C11   H42   S    
C56   C61   A    
C2    C70   S    
C50   C68   A    
C84   O87   S    
C12   H45   S    
O44   Zn13  S    
C30   O98   S    
C123  O82   S    
C46   O31   A    
C3    H2    S    
C68   C86   A    
O14   Zn15  S    
O1    Zn1   S    
C70   C88   A    
C59   C77   A    
C10   O61   S    
O35   Zn13  S    
C16   H55   S    
C7    H30   S    
C4    O54   S    
C8    H33   S    
C5    O55   S    
C88   O91   S    
O15   Zn16  S    
C116  O75   S    
C6    O56   S    
C41   O79   A    
C25   H98   S    
C127  H58   S    
C45   C73   S    
H59   O69   S    
O24   Zn14  S    
C121  C124  S    
O8    Zn10  S    
O35   Zn8   S    
C48   C51   A    
C10   H39   S    
O47   Zn15  S    
C55   C72   A    
C27   H107  S    
O42   Zn15  S    
C121  O80   S    
C116  O58   S    
C67   C84   A    
C15   H52   S    
C124  O65   S    
C85   C105  S    
C42   O42   A    
C24   O33   A    
O13   Zn11  S    
O37   Zn1   S    
C40   O41   A    
C41   C100  S    
C113  O72   S    
C128  H80   S    
C73   C91   A    
O1    Zn16  S    
C127  O51   S    
C26   H104  S    
O68   Zn16  S    
C92   C95   A    
C110  O69   S    
O16   Zn2   S    
O90   Zn7   S    
C44   C75   S    
H65   O75   S    
H66   O76   S    
O13   Zn2   S    
C71   C89   A    
C8    O59   S    
H68   O78   S    
C23   O92   S    
C30   H5    S    
C4    H18   S    
O9    Zn11  S    
O5    Zn6   S    
C6    H26   S    
C102  C104  T    
C110  C113  S    
C75   C92   A    
C16   O66   S    
C120  O78   S    
C21   H90   S    
O29   Zn8   S    
O1    Zn3   S    
C21   O89   S    
O7    Zn9   S    
C85   O7    A    
C119  C122  S    
C113  O54   S    
O57   Zn4   S    
C96   C106  S    
C59   C62   A    
C128  H102  S    
C49   C67   A    
C71   C118  S    
C115  O56   S    
C2    O16   A    
C5    H23   S    
C33   H14   S    
C25   H100  S    
C18   H78   S    
C20   H85   S    
O46   Zn3   S    
C43   O28   A    
O35   Zn6   S    
O40   Zn9   S    
C38   C80   S    
C29   H111  S    
C34   O19   A    
C62   C121  S    
C9    H34   S    
C36   O37   A    
C14   H49   S    
C27   H105  S    
C2    O36   A    
C23   H96   S    
C58   C125  S    
C14   O64   S    
O24   Zn5   S    
C47   C65   A    
C112  C115  S    
C117  O76   S    
