data_mof_unit_10269.cif
_audit_creation_date              2012-10-26T20:21:08-0400
_audit_creation_method            fapswitch 2.2
_symmetry_space_group_name_H-M    P1
_symmetry_Int_Tables_number       1
_space_group_crystal_system       triclinic
_cell_length_a                    9.524688
_cell_length_b                    10.79911
_cell_length_c                    15.43265
_cell_angle_alpha                 89.736922
_cell_angle_beta                  74.450077
_cell_angle_gamma                 90.209801
_cell_volume                      1529.2357701

loop_
_atom_site_label
_atom_site_type_symbol
_atom_type_description
_atom_site_fract_x
_atom_site_fract_y
_atom_site_fract_z
_atom_type_partial_charge
Br1   Br    Br    0.573773 0.440121 0.213186 -0.541245
Br2   Br    Br    0.426232 0.559963 0.786754 -0.541192
Br3   Br    Br    0.821330 0.139063 0.368813 -0.442015
Br4   Br    Br    0.178669 0.860937 0.631187 -0.442017
C1    C     C_R   0.000469 0.262287 0.497935 0.571544
C2    C     C_R   0.078246 0.066517 0.549119 -0.122426
C3    C     C_R   0.999917 0.871507 0.502644 0.000118
C4    C     C_R   0.000083 0.128492 0.497356 0.000117
C5    C     C_R   0.549491 0.423427 0.556402 0.081941
C6    C     C_R   0.450510 0.576571 0.443597 0.081938
C7    C     C_R   0.400678 0.423592 0.556477 0.066572
C8    C     C_R   0.599322 0.576407 0.443522 0.066569
C9    C     C_R   0.918301 0.501767 0.672243 0.550042
C10   C     C_R   0.081697 0.498230 0.327757 0.550054
C11   C     C_R   0.873078 0.513376 0.770361 0.000860
C12   C     C_R   0.999530 0.737713 0.502065 0.571545
C13   C     C_R   0.126918 0.486654 0.229637 0.000862
C14   C     C_R   0.918577 0.573679 0.910968 -0.128223
C15   C     C_R   0.081380 0.426484 0.089001 -0.128216
C16   C     C_R   0.968062 0.558756 0.818101 -0.106706
C17   C     C_R   0.031913 0.441335 0.181875 -0.106690
C18   C     C_R   0.728499 0.486528 0.815879 -0.078091
C19   C     C_R   0.271479 0.513520 0.184123 -0.078092
C20   C     C_R   0.672030 0.515230 0.906954 0.047730
C21   C     C_R   0.327934 0.484884 0.093028 0.047724
C22   C     C_R   0.772314 0.548700 0.955930 0.015902
C23   C     C_R   0.589026 0.507222 0.094787 0.136920
C24   C     C_R   0.227643 0.451458 0.044045 0.015892
C25   C     C_R   0.521276 0.501997 0.951921 0.024140
C26   C     C_R   0.478684 0.498138 0.048057 0.024150
C27   C     C_R   0.410935 0.492924 0.905188 0.136922
C28   C     C_R   0.729128 0.545179 0.049330 -0.094595
C29   C     C_R   0.270823 0.455000 0.950645 -0.094598
C30   C     C_R   0.921779 0.061718 0.447387 0.148978
C31   C     C_R   0.078221 0.938282 0.552612 0.148979
C32   C     C_R   0.921754 0.933483 0.450881 -0.122425
Cu1   Cu    Cu3+1 0.140660 0.500020 0.500000 1.026751
Cu2   Cu    Cu3+1 0.859340 0.499980 0.500000 1.026757
H1    H     H_    0.809061 0.559123 0.086865 0.136510
H2    H     H_    0.136882 0.118086 0.588557 0.156352
H3    H     H_    0.585526 0.362062 0.601634 0.130708
H4    H     H_    0.414475 0.637936 0.398364 0.130711
H5    H     H_    0.324645 0.362443 0.601784 0.119716
H6    H     H_    0.675356 0.637555 0.398215 0.119716
H7    H     H_    0.190889 0.441071 0.913106 0.136509
H8    H     H_    0.337163 0.562305 0.219989 0.165870
H9    H     H_    0.662807 0.437724 0.780025 0.165855
H10   H     H_    0.919642 0.419160 0.215942 0.192069
H11   H     H_    0.080330 0.580929 0.784028 0.192076
H12   H     H_    0.994783 0.603218 0.947842 0.129643
H13   H     H_    0.005163 0.396999 0.052118 0.129636
H14   H     H_    0.863118 0.881914 0.411443 0.156352
N1    N     N_R   0.352080 0.500030 0.499980 -0.222685
N2    N     N_R   0.647920 0.499970 0.500020 -0.222683
O1    O     O_R   0.118740 0.319660 0.500000 -0.509424
O2    O     O_R   0.881260 0.680340 0.500000 -0.509418
O3    O     O_R   0.881170 0.319630 0.500010 -0.467827
O4    O     O_R   0.118830 0.680370 0.499990 -0.467825
O5    O     O_R   0.055570 0.500030 0.629830 -0.495930
O6    O     O_R   0.944430 0.499970 0.370170 -0.495931
O7    O     O_R   0.818000 0.500000 0.629840 -0.493232
O8    O     O_R   0.182000 0.500000 0.370160 -0.493244

loop_
_geom_bond_atom_site_label_1
_geom_bond_atom_site_label_2
_ccdc_geom_bond_type
C1    C4    S    
C2    C4    A    
C13   C17   A    
C27   C29   A    
Cu1   O1    S    
C22   C28   A    
C25   C26   A    
C9    O5    A    
C6    H4    S    
Cu2   O3    S    
C10   O6    A    
C3    C32   A    
C5    H3    S    
Cu1   O4    S    
C32   H14   S    
C9    C11   S    
C1    O3    A    
C10   C13   S    
Cu2   O7    S    
Cu1   N1    S    
C17   H10   S    
C12   O2    A    
C18   H9    S    
Br4   C31   S    
Cu2   O2    S    
Cu2   N2    S    
C25   C27   A    
C19   H8    S    
C13   C19   A    
C21   C24   A    
C7    H5    S    
C15   C24   A    
C5    C7    A    
C9    O7    A    
C7    N1    A    
C16   H11   S    
C6    C8    A    
Cu2   O6    S    
C3    C12   S    
C15   C17   A    
Cu1   Cu2   S    
C20   C22   A    
C24   C29   A    
Cu1   O8    S    
C30   C32   A    
C19   C21   A    
C11   C16   A    
C18   C20   A    
C10   O8    A    
C15   H13   S    
C2    H2    S    
C29   H7    S    
C2    C31   A    
C14   H12   S    
C14   C16   A    
C8    H6    S    
C28   H1    S    
C21   C26   A    
Br1   C23   S    
C6    N1    A    
C20   C25   A    
C12   O4    A    
C5    N2    A    
Br3   C30   S    
C23   C28   A    
C4    C30   A    
C3    C31   A    
C1    O1    A    
C11   C18   A    
C8    N2    A    
Cu1   O5    S    
Br2   C27   S    
C23   C26   A    
C14   C22   A    
