data_mof_unit_35500.cif
_audit_creation_date              2012-10-26T19:40:41-0400
_audit_creation_method            fapswitch 2.2
_symmetry_space_group_name_H-M    P1
_symmetry_Int_Tables_number       1
_space_group_crystal_system       triclinic
_cell_length_a                    9.688983
_cell_length_b                    10.94327
_cell_length_c                    13.504217
_cell_angle_alpha                 90.11478
_cell_angle_beta                  73.154476
_cell_angle_gamma                 89.777978
_cell_volume                      1370.38220992

loop_
_atom_site_label
_atom_site_type_symbol
_atom_type_description
_atom_site_fract_x
_atom_site_fract_y
_atom_site_fract_z
_atom_type_partial_charge
C1    C     C_R   0.498048 0.734581 0.504569 0.585386
C2    C     C_R   0.389093 0.434077 0.805945 0.039879
C3    C     C_2   0.580960 0.067866 0.540633 0.230539
C4    C     C_R   0.425599 0.479281 0.697338 0.577394
C5    C     C_2   0.508792 0.133162 0.486761 0.250106
C6    C     C_2   0.602887 0.934946 0.522300 0.227714
C7    C     C_2   0.489023 0.865731 0.521410 -0.016083
C8    C     C_2   0.054031 0.570382 0.561179 0.360497
C9    C     C_2   0.899543 0.575753 0.554997 -0.012370
C10   C     C_R   0.501147 0.265463 0.498230 0.569096
C11   C     C_R   0.576723 0.496469 0.299672 0.562763
C12   C     C_R   0.451735 0.421082 0.969456 0.045512
C13   C     C_R   0.804323 0.499177 0.019293 0.281797
C14   C     C_R   0.620505 0.484799 0.185047 -0.034061
C15   C     C_R   0.251480 0.386782 0.854472 0.273065
C16   C     C_R   0.214829 0.356197 0.959571 -0.084524
C17   C     C_R   0.311495 0.375637 0.016609 -0.077321
C18   C     C_R   0.494803 0.429627 0.860663 -0.061808
C19   C     C_R   0.554626 0.449353 0.024174 -0.013836
C20   C     C_R   0.702332 0.466405 0.967062 -0.009202
C21   C     C_R   0.746205 0.442542 0.859996 0.216102
C22   C     C_R   0.642683 0.420085 0.809612 -0.109311
C23   C     C_R   0.514405 0.466244 0.132715 0.169115
C24   C     C_R   0.766438 0.496889 0.126665 0.216995
Cu1   Cu    Cu3+1 0.361370 0.499980 0.499980 1.078669
Cu2   Cu    Cu3+1 0.638630 0.500020 0.500020 1.005897
H1    H     H_    0.680764 0.385845 0.731465 0.169383
H2    H     H_    0.902418 0.416355 0.732252 0.334523
H3    H     H_    0.937052 0.592197 0.913109 0.366272
H4    H     H_    0.347643 0.401561 0.229623 0.314946
H5    H     H_    0.082073 0.306657 0.837066 0.352926
H6    H     H_    0.277071 0.343119 0.094882 0.150731
H7    H     H_    0.110733 0.316532 0.997675 0.134551
H8    H     H_    0.675786 0.062763 0.649116 0.329065
H9    H     H_    0.880048 0.440304 0.211183 0.324478
H10   H     H_    0.412572 0.140409 0.378746 0.326651
H11   H     H_    0.808407 0.949968 0.503259 0.335331
H12   H     H_    0.382428 0.906760 0.537181 0.119576
H13   H     H_    0.006780 0.688184 0.673521 0.302016
H14   H     H_    0.128289 0.452336 0.443596 0.170096
H15   H     H_    0.828108 0.644878 0.600534 0.162128
H16   H     H_    0.909663 0.430713 0.462711 0.201277
N1    N     N_2   0.152660 0.501340 0.501130 -0.285648
N2    N     N_2   0.846520 0.501370 0.501160 -0.364963
O1    O     O_R   0.382960 0.678040 0.499980 -0.461693
O2    O     O_3   0.453798 0.076974 0.414374 -0.748958
O3    O     O_3   0.737939 0.883286 0.507552 -0.679406
O4    O     O_3   0.093104 0.642752 0.632353 -0.617480
O5    O     O_3   0.890585 0.436836 0.805790 -0.665726
O6    O     O_3   0.943097 0.534154 0.967994 -0.595230
O7    O     O_3   0.370798 0.476103 0.186226 -0.657682
O8    O     O_3   0.160092 0.360189 0.796027 -0.622785
O9    O     O_3   0.636627 0.125812 0.611862 -0.724658
O10   O     O_R   0.617100 0.678080 0.500020 -0.428050
O11   O     O_R   0.325800 0.499940 0.650950 -0.383520
O12   O     O_R   0.559930 0.499980 0.650990 -0.546311
O13   O     O_R   0.382900 0.321920 0.499980 -0.528810
O14   O     O_R   0.617040 0.321960 0.500020 -0.482117
O15   O     O_R   0.440070 0.500020 0.349010 -0.483167
O16   O     O_R   0.674200 0.500060 0.349050 -0.483331
O17   O     O_3   0.874104 0.516138 0.172498 -0.606425

loop_
_geom_bond_atom_site_label_1
_geom_bond_atom_site_label_2
_ccdc_geom_bond_type
C12   C17   A    
C14   C23   A    
C2    C4    S    
H4    O7    S    
C8    O4    S    
H10   O2    S    
C6    C7    D    
C16   H7    S    
H11   O3    S    
C3    O9    S    
C5    O2    S    
C23   O7    S    
C19   C20   A    
C8    N1    D    
H5    O8    S    
C1    O10   A    
C3    C6    S    
Cu1   N1    S    
C21   O5    S    
Cu2   N2    S    
C5    C10   S    
H9    O17   S    
C18   C22   A    
C15   O8    S    
C4    O12   A    
C2    C15   A    
Cu2   O14   S    
C1    O1    A    
C24   O17   S    
H16   N2    S    
C11   O15   A    
Cu2   O10   S    
C12   C19   A    
C21   C22   A    
C13   O6    S    
C10   O14   A    
C7    H12   S    
Cu1   O11   S    
H3    O6    S    
C4    O11   A    
C22   H1    S    
C11   C14   S    
C2    C18   A    
C6    O3    S    
C12   C18   A    
C15   C16   A    
Cu1   O13   S    
Cu1   O1    S    
C10   O13   A    
C20   C21   A    
H8    O9    S    
C9    H15   S    
H2    O5    S    
C14   C24   A    
C17   H6    S    
C19   C23   A    
C8    C9    S    
C9    N2    D    
Cu1   O15   S    
C13   C20   A    
C3    C5    D    
Cu1   Cu2   S    
C1    C7    S    
Cu2   O16   S    
H14   N1    S    
C11   O16   A    
C13   C24   A    
C16   C17   A    
H13   O4    S    
Cu2   O12   S    
