data_mof_unit_67639.cif
_audit_creation_date              2013-03-05T16:32:07-0500
_audit_creation_method            fapswitch 2.2
_symmetry_space_group_name_H-M    P1
_symmetry_Int_Tables_number       1
_space_group_crystal_system       triclinic
_cell_length_a                    10.919699
_cell_length_b                    11.043979
_cell_length_c                    9.662182
_cell_angle_alpha                 90.965688
_cell_angle_beta                  90.240714
_cell_angle_gamma                 92.578856
_cell_volume                      1163.86967634

loop_
_atom_site_label
_atom_site_type_symbol
_atom_site_description
_atom_site_fract_x
_atom_site_fract_y
_atom_site_fract_z
_atom_type_partial_charge
O1    O     O_R   0.500000 0.319640 0.618810 -0.602961
O2    O     O_R   0.500010 0.319680 0.381230 -0.545184
C1    C     C_R   0.497214 0.262219 0.498568 0.832879
O3    O     O_R   0.317690 0.499960 0.618790 -0.597725
O4    O     O_R   0.317700 0.500000 0.381210 -0.494250
C2    C     C_R   0.260216 0.488870 0.499576 0.836448
Cu1   Cu    Cu3+1 0.499990 0.499980 0.640670 0.959753
Cu2   Cu    Cu3+1 0.500010 0.500020 0.359330 0.988861
O5    O     O_R   0.499990 0.680320 0.618770 -0.595922
O6    O     O_R   0.500000 0.680360 0.381190 -0.612269
O7    O     O_R   0.682300 0.500000 0.618790 -0.557104
O8    O     O_R   0.682310 0.500040 0.381210 -0.591356
C3    C     C_R   0.495316 0.737005 0.501019 0.766399
C4    C     C_R   0.739678 0.496278 0.499972 0.922077
C5    C     C_3   0.065731 0.418232 0.637608 0.629273
C6    C     C_3   0.922278 0.433558 0.638492 0.244011
H1    H     H_    0.896522 0.496902 0.721290 0.129262
H2    H     H_    0.118310 0.669053 0.570014 0.091986
C7    C     C_3   0.078673 0.614661 0.482634 0.217577
C8    C     C_3   0.066225 0.401573 0.373300 0.225084
C9    C     C_3   0.121448 0.481442 0.499274 -0.270134
H3    H     H_    0.091771 0.308931 0.393291 0.140406
C10   C     C_3   0.877896 0.489481 0.500287 -0.221838
C11   C     C_3   0.936937 0.619734 0.488491 0.027948
C12   C     C_3   0.922955 0.415230 0.370914 0.186710
H4    H     H_    0.907991 0.474551 0.281407 0.148357
H5    H     H_    0.906597 0.657671 0.388709 0.141273
C13   C     C_R   0.522391 0.065985 0.615785 -0.015611
C14   C     C_R   0.496314 0.127914 0.494801 -0.156909
C15   C     C_R   0.474963 0.058842 0.370506 0.475464
C16   C     C_R   0.474613 0.930403 0.376411 -0.316741
H6    H     H_    0.455726 0.875103 0.285844 0.167178
C17   C     C_R   0.491952 0.870184 0.501261 -0.113085
C18   C     C_R   0.514928 0.940405 0.620661 0.034548
C19   C     C_3   0.448152 0.943262 0.756163 0.324721
C20   C     C_3   0.468593 0.080524 0.755292 -0.544076
H7    H     H_    0.494553 0.899228 0.842247 0.043487
H8    H     H_    0.384455 0.131959 0.757918 0.189711
H9    H     H_    0.539759 0.116467 0.828741 0.170719
C21   C     C_R   0.515483 0.606487 0.074492 0.139004
N1    N     N_R   0.500800 0.500930 0.147930 -0.176778
C22   C     C_R   0.467485 0.398939 0.071764 -0.073541
H10   H     H_    0.444823 0.316365 0.123976 0.189236
C23   C     C_R   0.464251 0.399641 0.924025 -0.076833
H11   H     H_    0.435557 0.317752 0.868785 0.130404
N2    N     N_R   0.500800 0.500890 0.852020 -0.171412
C24   C     C_R   0.526267 0.602785 0.929616 0.157479
C25   C     C_3   0.636719 0.687680 0.929378 0.027898
C26   C     C_3   0.608303 0.713454 0.082604 0.018596
H12   H     H_    0.627226 0.765755 0.861126 0.079283
H13   H     H_    0.560511 0.799119 0.097283 0.091663
O9    O     O_3   0.121710 0.454141 0.768650 -0.605626
C27   C     C_3   0.122534 0.579015 0.806123 -0.066222
H14   H     H_    0.037902 0.622805 0.778510 0.179193
H15   H     H_    0.202812 0.628441 0.761190 0.213805
C28   C     C_3   0.137218 0.596278 0.961543 -0.735848
H16   H     H_    0.223859 0.557960 0.997537 0.269557
H17   H     H_    0.140220 0.693787 0.988224 0.209736
H18   H     H_    0.057154 0.555496 0.015950 0.252555
O10   O     O_3   0.122438 0.664520 0.356095 -0.528706
C29   C     C_3   0.149221 0.790785 0.372465 0.114086
H19   H     H_    0.228079 0.807555 0.444649 0.169254
H20   H     H_    0.068508 0.838181 0.412961 0.148353
C30   C     C_3   0.183982 0.844845 0.234005 -0.857167
H21   H     H_    0.103501 0.839974 0.163810 0.233805
H22   H     H_    0.214382 0.941483 0.248850 0.220242
H23   H     H_    0.259600 0.794635 0.186866 0.249757
O11   O     O_3   0.445815 0.120846 0.250906 -0.604276
C31   C     C_3   0.470580 0.061377 0.123703 0.050714
H24   H     H_    0.435083 0.118209 0.040798 0.148149
H25   H     H_    0.418685 0.973686 0.109989 0.113215
C32   C     C_3   0.607732 0.051278 0.098330 -0.895991
H26   H     H_    0.624320 0.006674 0.997192 0.202916
H27   H     H_    0.654302 0.142793 0.099525 0.268204
H28   H     H_    0.647764 0.994379 0.177792 0.254600
O12   O     O_3   0.323860 0.905130 0.736975 -0.574265
C33   C     C_3   0.260070 0.914657 0.863006 0.050041
H29   H     H_    0.280907 0.002369 0.917967 0.129982
H30   H     H_    0.284269 0.839398 0.931166 0.139210
C34   C     C_3   0.123044 0.908310 0.833333 -0.832359
H31   H     H_    0.070659 0.901493 0.931168 0.203532
H32   H     H_    0.096999 0.991321 0.780197 0.249452
H33   H     H_    0.098053 0.829354 0.765356 0.270016
O13   O     O_3   0.072672 0.290133 0.624760 -0.603175
C35   C     C_3   0.182282 0.235826 0.658163 0.084230
H34   H     H_    0.174481 0.200142 0.764634 0.169379
H35   H     H_    0.264352 0.296553 0.653902 0.180211
C36   C     C_3   0.195064 0.130675 0.555161 -0.923027
H36   H     H_    0.226915 0.165414 0.454275 0.232804
H37   H     H_    0.261390 0.066196 0.590000 0.285975
H38   H     H_    0.106287 0.078990 0.540676 0.249116
N3    N     N_2   0.751335 0.627059 0.903125 -0.367588
H39   H     H_    0.823262 0.685888 0.877746 0.265770
C37   C     C_3   0.789614 0.528252 0.988631 -0.551879
H40   H     H_    0.867057 0.485999 0.939864 0.149269
H41   H     H_    0.714355 0.460070 0.006013 0.226749
H42   H     H_    0.830742 0.559547 0.087420 0.239473
N4    N     N_2   0.711684 0.707347 0.176275 -0.380773
H43   H     H_    0.690071 0.694996 0.277907 0.286305
C38   C     C_3   0.809139 0.799756 0.159927 -0.776701
H44   H     H_    0.898743 0.758758 0.175526 0.244861
H45   H     H_    0.800482 0.872888 0.238195 0.212203
H46   H     H_    0.808784 0.840340 0.055522 0.242554
O14   O     O_3   0.855859 0.320537 0.656860 -0.538912
C39   C     C_3   0.851880 0.286939 0.797468 0.133650
H47   H     H_    0.767414 0.320813 0.844193 0.161464
H48   H     H_    0.935312 0.318516 0.856596 0.158407
C40   C     C_3   0.843856 0.150755 0.808728 -0.861312
H49   H     H_    0.920184 0.112083 0.750173 0.281473
H50   H     H_    0.851069 0.124717 0.918916 0.206642
H51   H     H_    0.754258 0.115706 0.767655 0.244056
O15   O     O_3   0.907040 0.693247 0.604144 -0.627601
C41   C     C_3   0.810604 0.770382 0.578241 0.060981
H52   H     H_    0.725385 0.729650 0.621611 0.190278
H53   H     H_    0.795101 0.791018 0.467762 0.119575
C42   C     C_3   0.838563 0.889131 0.653175 -0.876176
H54   H     H_    0.922487 0.933688 0.609204 0.253177
H55   H     H_    0.760493 0.947542 0.638612 0.217651
H56   H     H_    0.851917 0.874927 0.765554 0.253382
O16   O     O_3   0.118828 0.433975 0.243661 -0.527756
C43   C     C_3   0.103445 0.337401 0.144058 0.028128
H57   H     H_    0.129287 0.371662 0.041282 0.210022
H58   H     H_    0.006244 0.304642 0.133106 0.145760
C44   C     C_3   0.187464 0.232938 0.170622 -0.874438
H59   H     H_    0.219639 0.194241 0.071046 0.210688
H60   H     H_    0.267490 0.265882 0.233476 0.297234
H61   H     H_    0.137949 0.159166 0.226647 0.211800
O17   O     O_3   0.843963 0.311953 0.339276 -0.566018
C45   C     C_3   0.886519 0.197473 0.373390 0.087293
H62   H     H_    0.946202 0.197586 0.464030 0.231307
H63   H     H_    0.932048 0.157097 0.282573 0.128021
C46   C     C_3   0.778285 0.116190 0.410960 -0.802361
H64   H     H_    0.703354 0.131775 0.338381 0.280616
H65   H     H_    0.802714 0.020130 0.406322 0.188176
H66   H     H_    0.747953 0.139372 0.516809 0.275151

loop_
_geom_bond_atom_site_label_1
_geom_bond_atom_site_label_2
_geom_bond_distance
_ccdc_geom_bond_type
C21   C24   1.405318 A    
Cu2   O6    1.999301 S    
C31   C32   1.527323 S    
N1    C22   1.369523 A    
C19   C20   1.522464 S    
C11   O15   1.418014 S    
C11   H5    1.112756 S    
O17   C45   1.410210 S    
Cu1   Cu2   2.718366 S    
C27   H14   1.096182 S    
C42   H54   1.110054 S    
Cu1   O7    2.002839 S    
C39   H48   1.112809 S    
O4    C2    1.311850 A    
N3    H39   1.029663 S    
C13   C14   1.398932 A    
C19   H7    1.103316 S    
C12   O17   1.426854 S    
C18   C19   1.501843 S    
C32   H28   1.101640 S    
C35   H34   1.110073 S    
C15   C16   1.420420 A    
C34   H31   1.108842 S    
O7    C4    1.311116 A    
C33   C34   1.520615 S    
C8    C12   1.578577 S    
C5    C6    1.583177 S    
C40   H49   1.106811 S    
C31   H25   1.105556 S    
H2    C7    1.103369 S    
C29   H20   1.114180 S    
O5    C3    1.309714 A    
O15   C41   1.408178 S    
C43   C44   1.530311 S    
C26   N4    1.448582 S    
O13   C35   1.401553 S    
C6    O14   1.429201 S    
C24   C25   1.494012 S    
C40   H50   1.110876 S    
O11   C31   1.416558 S    
C26   H13   1.108186 S    
C10   C11   1.555841 S    
C16   C17   1.403502 A    
C29   H19   1.112874 S    
C41   C42   1.505806 S    
C36   H36   1.105350 S    
C25   H12   1.102618 S    
C13   C18   1.387233 A    
C31   H24   1.105484 S    
C22   C23   1.427932 A    
C34   H33   1.106349 S    
C38   H45   1.104560 S    
O14   C39   1.414687 S    
C23   N2    1.371887 A    
C27   H15   1.105906 S    
C39   C40   1.508415 S    
C19   O12   1.413370 S    
C35   H35   1.096258 S    
C30   H23   1.110233 S    
O12   C33   1.410165 S    
C34   H32   1.105922 S    
C46   H64   1.096736 S    
C37   H42   1.097071 S    
O3    Cu1   2.000962 S    
C12   H4    1.109683 S    
C33   H29   1.110833 S    
C2    C9    1.513818 S    
C38   H46   1.110815 S    
O10   C29   1.417939 S    
O1    C1    1.313774 A    
C30   H22   1.110142 S    
C4    C10   1.514530 S    
C29   C30   1.516945 S    
Cu1   N2    2.041938 S    
C3    C17   1.472897 S    
C14   C15   1.424548 A    
C16   H6    1.072575 S    
C36   H38   1.109748 S    
O8    C4    1.307217 A    
Cu2   O8    2.000961 S    
N3    C37   1.454851 S    
C17   C18   1.394713 A    
C33   H30   1.109555 S    
C40   H51   1.105451 S    
C5    O9    1.445277 S    
Cu2   N1    2.042833 S    
C37   H41   1.104677 S    
C43   H57   1.101967 S    
C42   H55   1.101935 S    
C44   H61   1.107631 S    
C32   H27   1.110654 S    
C21   N1    1.378489 A    
C8    H3    1.092612 S    
C6    C10   1.564864 S    
N4    C38   1.451934 S    
O3    C2    1.310695 A    
C22   H10   1.069405 S    
C8    O16   1.424663 S    
O16   C43   1.428239 S    
C35   C36   1.528187 S    
C44   H60   1.106487 S    
C41   H52   1.102663 S    
C27   C28   1.517474 S    
C28   H16   1.110563 S    
N2    C24   1.359215 A    
C25   C26   1.538433 S    
C7    C9    1.574116 S    
O1    Cu1   1.999301 S    
C20   H9    1.105993 S    
O2    Cu2   2.006422 S    
C23   H11   1.076007 S    
C36   H37   1.094253 S    
C32   H26   1.106208 S    
O6    C3    1.308988 A    
O4    Cu2   2.002838 S    
C28   H18   1.104530 S    
C5    O13   1.423521 S    
C7    O10   1.424915 S    
C39   H47   1.106052 S    
C42   H56   1.109668 S    
C30   H21   1.106679 S    
C45   C46   1.501192 S    
C20   H8    1.101880 S    
O2    C1    1.308360 A    
C45   H62   1.089422 S    
C1    C14   1.482687 S    
C6    H1    1.099660 S    
C46   H66   1.105846 S    
C38   H44   1.107251 S    
C28   H17   1.102090 S    
C7    C11   1.552486 S    
C10   C12   1.576078 S    
C37   H40   1.089198 S    
C43   H58   1.109903 S    
Cu1   O5    2.006425 S    
C5    C9    1.626063 S    
C8    C9    1.591541 S    
C13   C20   1.481783 S    
C46   H65   1.105711 S    
N4    H43   1.020867 S    
C25   N3    1.466748 S    
C41   H53   1.109166 S    
C15   O11   1.396005 S    
C21   C26   1.522335 S    
O9    C27   1.419551 S    
C44   H59   1.110972 S    
C45   H63   1.107444 S    
