data_mof_unit_5293.cif
_audit_creation_date              2012-12-10T17:18:59-0500
_audit_creation_method            fapswitch 2.2
_symmetry_space_group_name_H-M    P1
_symmetry_Int_Tables_number       1
_space_group_crystal_system       triclinic
_cell_length_a                    10.192332
_cell_length_b                    10.838543
_cell_length_c                    13.650549
_cell_angle_alpha                 92.080461
_cell_angle_beta                  100.58091
_cell_angle_gamma                 95.935632
_cell_volume                      1472.02906947

loop_
_atom_site_label
_atom_site_type_symbol
_atom_type_description
_atom_site_fract_x
_atom_site_fract_y
_atom_site_fract_z
_atom_type_partial_charge
C1    C     C_R   0.052096 0.732065 0.491150 0.947406
C2    C     C_R   0.945653 0.267499 0.503941 0.941112
C3    C     C_R   0.422297 0.462330 0.128701 -0.216353
C4    C     C_R   0.510515 0.347509 0.891955 -0.216505
C5    C     C_R   0.290899 0.487835 0.097557 -0.246151
C6    C     C_R   0.643239 0.325100 0.923289 -0.227429
C7    C     C_2   0.078151 0.863163 0.478210 -0.364955
C8    C     C_2   0.911081 0.134737 0.498322 -0.353467
C9    C     C_2   0.975888 0.931550 0.473894 -0.154257
C10   C     C_2   0.998889 0.063495 0.471090 -0.149336
C11   C     C_2   0.430826 0.512033 0.507906 0.489911
C12   C     C_2   0.569160 0.488182 0.491845 0.481747
C13   C     C_R   0.093411 0.510979 0.685797 0.876329
C14   C     C_R   0.905049 0.483997 0.314291 0.864198
C15   C     C_R   0.138952 0.502355 0.792779 -0.063162
C16   C     C_R   0.847016 0.453575 0.209258 -0.063828
C17   C     C_R   0.111196 0.527609 0.964143 -0.209487
C18   C     C_R   0.847488 0.350893 0.049004 -0.202395
C19   C     C_R   0.061890 0.535292 0.862635 -0.196424
C20   C     C_R   0.915018 0.393140 0.144664 -0.215653
C21   C     C_R   0.261390 0.456232 0.824392 -0.242070
C22   C     C_R   0.712798 0.471099 0.177909 -0.216509
C23   C     C_R   0.311686 0.445349 0.925362 0.088967
C24   C     C_R   0.640496 0.420291 0.086427 0.090121
C25   C     C_R   0.236950 0.485760 0.996097 0.174651
C26   C     C_R   0.710646 0.364796 0.019203 0.169155
C27   C     C_R   0.440069 0.406155 0.957543 0.068077
C28   C     C_R   0.501495 0.429623 0.058727 0.068852
H1    H     H_    0.233945 0.515241 0.152844 0.150302
H2    H     H_    0.694415 0.280322 0.871278 0.151779
H3    H     H_    0.665630 0.525845 0.226163 0.166789
H4    H     H_    0.319863 0.434769 0.769090 0.173997
H5    H     H_    0.018881 0.377099 0.168376 0.161437
H6    H     H_    0.965564 0.569504 0.839062 0.165769
H7    H     H_    0.053068 0.557895 0.017632 0.153929
H8    H     H_    0.901575 0.306397 0.998866 0.150800
H9    H     H_    0.459192 0.466801 0.208283 0.175801
H10   H     H_    0.464100 0.315060 0.816662 0.150340
H11   H     H_    0.093183 0.102426 0.452107 0.192305
H12   H     H_    0.874995 0.891312 0.478470 0.193940
H13   H     H_    0.817070 0.095372 0.517332 0.162350
H14   H     H_    0.178813 0.903849 0.473718 0.165226
H15   H     H_    0.665765 0.623923 0.588645 0.161014
H16   H     H_    0.334217 0.376026 0.411386 0.154997
N1    N     N_2   0.322180 0.446120 0.460900 -0.224633
N2    N     N_2   0.677820 0.553880 0.539100 -0.219914
O1    O     O_R   0.935190 0.693030 0.507870 -0.625844
O2    O     O_R   0.064810 0.306970 0.492130 -0.628296
O3    O     O_R   0.142080 0.658430 0.482770 -0.556436
O4    O     O_R   0.857920 0.341570 0.517230 -0.557622
O5    O     O_R   0.969700 0.527180 0.651960 -0.626183
O6    O     O_R   0.030300 0.472820 0.348040 -0.631565
O7    O     O_R   0.176600 0.492580 0.626860 -0.560918
O8    O     O_R   0.823400 0.507420 0.373140 -0.564052
Zn1   Zn    Zn3+2 0.861850 0.523100 0.516760 0.995653
Zn2   Zn    Zn3+2 0.138150 0.476900 0.483240 0.991465
F1    F     F_    0.580715 0.394851 0.425820 -0.676916
F2    F     F_    0.419258 0.605571 0.573729 -0.668059

loop_
_geom_bond_atom_site_label_1
_geom_bond_atom_site_label_2
_ccdc_geom_bond_type
N2    Zn1   S    
C11   C12   S    
C14   C16   S    
C23   C27   A    
C12   N2    D    
C11   F2    S    
C2    O4    A    
C9    C10   S    
C5    H1    S    
O4    Zn1   S    
C18   C26   A    
C16   C20   A    
C17   C25   A    
O7    Zn2   S    
C13   C15   S    
C13   O5    A    
C23   C25   A    
H16   N1    S    
C15   C19   A    
H15   N2    S    
C6    C26   A    
C1    O3    A    
C5    C25   A    
C12   F1    S    
O1    Zn1   S    
C3    C28   A    
C14   O8    A    
C24   C26   A    
C13   O7    A    
C21   C23   A    
C8    C10   D    
C21   H4    S    
C22   C24   A    
C11   N1    D    
C22   H3    S    
C20   H5    S    
C17   C19   A    
O3    Zn2   S    
C7    C9    D    
C15   C21   A    
C4    C27   A    
C8    H13   S    
C3    H9    S    
C18   C20   A    
C4    C6    A    
C7    H14   S    
C2    C8    S    
C27   C28   A    
O2    Zn2   S    
O8    Zn1   S    
C1    O1    A    
C4    H10   S    
C16   C22   A    
C17   H7    S    
O5    Zn1   S    
C2    O2    A    
C1    C7    S    
C18   H8    S    
C6    H2    S    
C9    H12   S    
C14   O6    A    
O6    Zn2   S    
N1    Zn2   S    
C24   C28   A    
C10   H11   S    
C3    C5    A    
C19   H6    S    
