data_mof_unit_39206.cif
_audit_creation_date              2012-12-10T17:42:14-0500
_audit_creation_method            fapswitch 2.2
_symmetry_space_group_name_H-M    P1
_symmetry_Int_Tables_number       1
_space_group_crystal_system       triclinic
_cell_length_a                    15.088972
_cell_length_b                    13.66351
_cell_length_c                    11.097291
_cell_angle_alpha                 88.983673
_cell_angle_beta                  89.786636
_cell_angle_gamma                 90.398752
_cell_volume                      2287.47757435

loop_
_atom_site_label
_atom_site_type_symbol
_atom_type_description
_atom_site_fract_x
_atom_site_fract_y
_atom_site_fract_z
_atom_type_partial_charge
C1    C     C_R   0.327773 0.500885 0.504371 0.951036
C2    C     C_3   0.603090 0.458269 0.936970 0.661248
C3    C     C_R   0.814050 0.547060 0.397336 -0.222420
C4    C     C_R   0.767629 0.498017 0.490085 -0.020233
C5    C     C_R   0.813145 0.442186 0.576235 -0.145293
C6    C     C_R   0.905284 0.441595 0.577191 0.092313
C7    C     C_R   0.952374 0.491995 0.485079 0.104593
C8    C     C_R   0.906676 0.543142 0.393075 0.118495
C9    C     C_R   0.951045 0.395102 0.671482 -0.168624
C10   C     C_R   0.042721 0.405418 0.679784 -0.096447
C11   C     C_R   0.090103 0.456545 0.589396 0.004965
C12   C     C_R   0.499187 0.501775 0.259278 0.932501
C13   C     C_R   0.045202 0.495163 0.488381 0.034688
C14   C     C_R   0.092935 0.545016 0.396778 0.062997
C15   C     C_R   0.047389 0.591343 0.301892 -0.116878
C16   C     C_R   0.954649 0.591487 0.300891 -0.137599
C17   C     C_R   0.178561 0.483994 0.606347 0.312032
C18   C     C_R   0.229566 0.505305 0.502672 -0.166378
C19   C     C_R   0.185491 0.547359 0.402992 -0.164717
C20   C     C_R   0.424510 0.793268 0.527348 0.112506
C21   C     C_R   0.424313 0.204857 0.525945 0.131381
C22   C     C_R   0.577324 0.793765 0.478109 0.249825
C23   C     C_R   0.576129 0.208340 0.471381 0.127248
C24   C     C_R   0.581841 0.897174 0.480975 -0.161552
C25   C     C_R   0.580069 0.104881 0.469225 -0.187442
C26   C     C_R   0.671244 0.499989 0.494865 0.823033
C27   C     C_R   0.502823 0.948366 0.502038 0.049994
C28   C     C_R   0.502586 0.051777 0.500127 0.063428
C29   C     C_R   0.423872 0.895968 0.527880 0.031272
C30   C     C_R   0.423776 0.102181 0.526942 0.011853
C31   C     C_R   0.662210 0.950162 0.461354 0.299500
C32   C     C_R   0.659065 0.053530 0.440445 0.236300
C33   C     C_R   0.346036 0.049278 0.554240 -0.167175
C34   C     C_R   0.345984 0.946953 0.554182 -0.120143
C35   C     C_R   0.509352 0.499672 0.739777 0.950397
C36   C     C_3   0.485500 0.620762 0.062979 0.486279
C37   C     C_3   0.427321 0.423755 0.072624 0.537276
C38   C     C_3   0.506188 0.614645 0.920786 0.059902
C39   C     C_3   0.426594 0.442354 0.931317 0.086422
C40   C     C_3   0.592170 0.471810 0.077738 -0.549868
C41   C     C_3   0.497255 0.506151 0.121249 -0.425096
C42   C     C_3   0.513905 0.501285 0.877690 -0.480751
Cu1   Cu    Cu3+1 0.499990 0.597420 0.500010 1.081506
Cu2   Cu    Cu3+1 0.499990 0.402580 0.500010 1.101583
H1    H     H_    0.076575 0.374540 0.757346 0.205584
H2    H     H_    0.364303 0.753312 0.548388 0.166595
H3    H     H_    0.364216 0.243495 0.547372 0.149770
H4    H     H_    0.634644 0.752734 0.452655 0.143878
H5    H     H_    0.634481 0.251327 0.453706 0.172475
H6    H     H_    0.285143 0.087099 0.575117 0.160656
H7    H     H_    0.285025 0.907652 0.574847 0.175225
H8    H     H_    0.443778 0.635081 0.876458 0.155383
H9    H     H_    0.376232 0.499473 0.922708 0.145463
H10   H     H_    0.639583 0.525953 0.110188 0.231398
H11   H     H_    0.617448 0.408762 0.128585 0.265721
H12   H     H_    0.776909 0.402672 0.645665 0.216132
H13   H     H_    0.915615 0.355200 0.742007 0.196424
N1    N     N_R   0.499930 0.743810 0.499950 -0.192930
N2    N     N_R   0.499930 0.256190 0.499950 -0.186870
O1    O     O_R   0.370250 0.582280 0.500040 -0.591247
O2    O     O_R   0.370250 0.417720 0.500040 -0.549329
O3    O     O_R   0.499970 0.582270 0.317700 -0.545862
O4    O     O_R   0.499970 0.417730 0.317700 -0.522434
O5    O     O_R   0.629730 0.582260 0.499980 -0.587499
O6    O     O_R   0.629730 0.417740 0.499980 -0.612220
O7    O     O_R   0.500000 0.582270 0.682320 -0.565214
O8    O     O_R   0.500000 0.417730 0.682320 -0.480638
S1    S     S_3+6 0.552649 0.717971 0.139869 0.134448
O9    O     O_2   0.556644 0.813299 0.071062 -0.115340
O10   O     O_2   0.506717 0.748539 0.252901 -0.268611
O11   O     O_3   0.656756 0.685360 0.174061 -0.499868
H14   H     H_    0.654569 0.665538 0.260123 0.313900
S2    S     S_3+6 0.451924 0.293937 0.123261 0.134331
O12   O     O_2   0.410228 0.273822 0.244748 -0.235631
O13   O     O_2   0.409502 0.221836 0.040475 -0.158264
O14   O     O_3   0.558066 0.261030 0.141203 -0.486773
H15   H     H_    0.555744 0.191365 0.167452 0.395808
S3    S     S_3+6 0.192444 0.562480 0.730800 0.087258
O15   O     O_2   0.114558 0.630323 0.736070 -0.206600
O16   O     O_2   0.193556 0.502927 0.845464 -0.187038
O17   O     O_3   0.284544 0.631718 0.718468 -0.497540
H16   H     H_    0.333193 0.588597 0.744505 0.348036
H17   H     H_    0.222181 0.584320 0.332345 0.241550
H18   H     H_    0.083389 0.629405 0.230341 0.196406
H19   H     H_    0.920492 0.630173 0.228950 0.191705
S4    S     S_3+6 0.766003 0.888853 0.478515 0.087579
O18   O     O_2   0.837723 0.958379 0.516717 -0.145135
O19   O     O_2   0.758786 0.809471 0.573850 -0.278907
O20   O     O_3   0.794998 0.839398 0.346351 -0.450831
H20   H     H_    0.783926 0.768214 0.356371 0.343551
S5    S     S_3+6 0.749968 0.116498 0.368155 0.098917
O21   O     O_2   0.803179 0.047393 0.293452 -0.114960
O22   O     O_2   0.717602 0.196636 0.285246 -0.273435
O23   O     O_3   0.816502 0.165595 0.472756 -0.454503
H21   H     H_    0.776847 0.203068 0.525883 0.328618
S6    S     S_3+6 0.374769 0.676454 0.079029 0.084569
O24   O     O_2   0.311254 0.650864 0.980654 -0.240740
O25   O     O_2   0.335929 0.650783 0.199934 -0.271574
O26   O     O_3   0.382281 0.799470 0.071027 -0.414006
H22   H     H_    0.323074 0.823252 0.095260 0.384387
S7    S     S_3+6 0.313673 0.432648 0.135123 0.101879
O27   O     O_2   0.321116 0.463227 0.262510 -0.356786
O28   O     O_2   0.252173 0.500037 0.069951 -0.186857
O29   O     O_3   0.260900 0.323419 0.139479 -0.400718
H23   H     H_    0.208390 0.332922 0.191750 0.372954
S8    S     S_3+6 0.571727 0.719217 0.848801 0.153531
O30   O     O_2   0.604960 0.705008 0.723098 -0.211386
O31   O     O_2   0.508840 0.804092 0.841537 -0.241762
O32   O     O_3   0.662527 0.757286 0.922204 -0.347296
H24   H     H_    0.680864 0.819062 0.880803 0.391389
S9    S     S_3+6 0.363264 0.353456 0.841147 0.106668
O33   O     O_2   0.283444 0.316512 0.909278 -0.171267
O34   O     O_2   0.328935 0.405590 0.732371 -0.362437
O35   O     O_3   0.417927 0.256276 0.789751 -0.446458
H25   H     H_    0.372814 0.203706 0.782533 0.361041
S10   S     S_3+6 0.707131 0.519833 0.889146 0.081650
O36   O     O_2   0.700683 0.556532 0.761653 -0.273324
O37   O     O_2   0.732769 0.601584 0.970174 -0.203607
O38   O     O_3   0.794048 0.443288 0.893702 -0.478011
H26   H     H_    0.846375 0.484798 0.873892 0.373897
S11   S     S_3+6 0.628765 0.331509 0.897378 0.108544
O39   O     O_2   0.659216 0.330111 0.768456 -0.308966
O40   O     O_2   0.703425 0.296328 0.976150 -0.180336
O41   O     O_3   0.549997 0.246850 0.910275 -0.408559
H27   H     H_    0.578529 0.184782 0.887197 0.388720
H28   H     H_    0.778292 0.586715 0.328110 0.131775

loop_
_geom_bond_atom_site_label_1
_geom_bond_atom_site_label_2
_ccdc_geom_bond_type
C22   H4    S    
S7    O27   D    
C27   C29   A    
S2    O12   D    
C5    H12   S    
S9    O33   D    
C24   C27   A    
C6    C9    A    
O35   H25   S    
Cu2   O6    S    
C3    H28   S    
C7    C8    A    
C25   C28   A    
C23   N2    A    
C1    C18   S    
C38   C42   S    
Cu1   O7    S    
C5    C6    A    
S4    O19   D    
C23   H5    S    
C32   S5    S    
C38   H8    S    
S8    O30   D    
Cu2   N2    S    
C15   C16   A    
S6    O26   S    
S10   O36   D    
C18   C19   A    
C35   C42   S    
C26   O5    A    
S11   O41   S    
Cu1   N1    S    
C2    S10   S    
O26   H22   S    
S1    O9    D    
S6    O25   D    
C9    C10   A    
C9    H13   S    
C25   C32   A    
C39   S9    S    
C8    C16   A    
C31   S4    S    
C13   C14   A    
S2    O13   D    
C36   C41   S    
C19   H17   S    
O29   H23   S    
Cu1   O5    S    
C17   C18   A    
C39   C42   S    
C20   C29   A    
Cu2   O4    S    
O14   H15   S    
C3    C8    A    
C1    O1    A    
S5    O21   D    
C12   O4    A    
S3    O15   D    
C35   O7    A    
C33   H6    S    
C29   C34   A    
O17   H16   S    
C38   S8    S    
Cu1   Cu2   S    
C12   C41   S    
S5    O22   D    
C12   O3    A    
C36   S6    S    
C31   C32   A    
C35   O8    A    
C40   H11   S    
S6    O24   D    
C10   H1    S    
C33   C34   A    
C34   H7    S    
S9    O34   D    
S11   O39   D    
C15   H18   S    
Cu1   O1    S    
S1    O10   D    
C40   C41   S    
S7    O29   S    
C40   H10   S    
C16   H19   S    
S2    O14   S    
C22   C24   A    
C20   N1    A    
C3    C4    A    
C2    S11   S    
C37   S2    S    
C11   C17   A    
C30   C33   A    
S4    O18   D    
C26   O6    A    
C14   C19   A    
C4    C5    A    
S4    O20   S    
C1    O2    A    
C22   N1    A    
C4    C26   S    
O38   H26   S    
C36   S1    S    
C21   N2    A    
C6    C7    A    
Cu2   O2    S    
C21   C30   A    
S10   O38   S    
C28   C30   A    
C24   C31   A    
O11   H14   S    
C37   C39   S    
O32   H24   S    
S5    O23   S    
C37   S7    S    
C11   C13   A    
S3    O17   S    
C39   H9    S    
S8    O31   D    
C2    C42   S    
S1    O11   S    
C36   C38   S    
C17   S3    S    
S10   O37   D    
S9    O35   S    
S3    O16   D    
C23   C25   A    
C37   C41   S    
O23   H21   S    
S11   O40   D    
C10   C11   A    
C2    C40   S    
C7    C13   A    
S7    O28   D    
C27   C28   A    
C14   C15   A    
Cu2   O8    S    
O20   H20   S    
C20   H2    S    
Cu1   O3    S    
O41   H27   S    
C21   H3    S    
S8    O32   S    
