data_mof_unit_28713.cif
_audit_creation_date              2012-12-10T17:25:16-0500
_audit_creation_method            fapswitch 2.2
_symmetry_space_group_name_H-M    P1
_symmetry_Int_Tables_number       1
_space_group_crystal_system       triclinic
_cell_length_a                    27.854009
_cell_length_b                    10.776003
_cell_length_c                    9.593322
_cell_angle_alpha                 89.927004
_cell_angle_beta                  89.595955
_cell_angle_gamma                 92.939857
_cell_volume                      2875.61747143

loop_
_atom_site_label
_atom_site_type_symbol
_atom_type_description
_atom_site_fract_x
_atom_site_fract_y
_atom_site_fract_z
_atom_type_partial_charge
C1    C     C_R   0.498384 0.262503 0.500121 0.787361
C2    C     C_R   0.274794 0.479002 0.604847 -0.123768
C3    C     C_R   0.253463 0.525054 0.485996 0.274818
C4    C     C_R   0.101974 0.523484 0.478991 -0.043282
C5    C     C_R   0.125754 0.411929 0.464982 -0.027646
C6    C     C_R   0.098884 0.299758 0.452116 -0.142638
C7    C     C_R   0.129470 0.636382 0.490149 -0.027931
C8    C     C_R   0.354259 0.512108 0.498806 -0.142012
C9    C     C_R   0.645665 0.502665 0.498190 -0.074844
C10   C     C_R   0.972818 0.404741 0.483220 0.043206
C11   C     C_R   0.976320 0.634149 0.497284 0.043515
C12   C     C_R   0.407370 0.502120 0.500347 0.838199
C13   C     C_R   0.949353 0.518543 0.492936 0.068239
C14   C     C_R   0.944167 0.292263 0.484247 -0.202392
C15   C     C_R   0.894363 0.291732 0.489981 -0.143886
C16   C     C_R   0.870962 0.402986 0.495909 -0.025900
C17   C     C_R   0.898246 0.516662 0.498278 -0.043699
C18   C     C_R   0.874259 0.628411 0.505691 -0.023497
C19   C     C_R   0.823769 0.624454 0.509228 0.540110
C20   C     C_R   0.820584 0.403162 0.499563 0.543006
C21   C     C_R   0.722371 0.482911 0.379074 -0.209849
C22   C     C_R   0.671869 0.478625 0.374900 0.382983
C23   C     C_R   0.498717 0.737098 0.499940 0.758916
C24   C     C_R   0.670698 0.530410 0.622184 -0.304903
C25   C     C_R   0.720756 0.534723 0.624372 -0.103779
C26   C     C_R   0.746651 0.510758 0.503031 0.323795
C27   C     C_R   0.023827 0.406737 0.474086 0.043571
C28   C     C_R   0.050860 0.522006 0.482618 0.069437
C29   C     C_R   0.027454 0.635696 0.495323 0.042616
C30   C     C_R   0.049033 0.296961 0.456032 -0.202507
C31   C     C_R   0.106195 0.747370 0.503732 -0.141454
C32   C     C_R   0.950897 0.744600 0.503388 -0.202457
C33   C     C_R   0.900997 0.741469 0.507746 -0.145668
C34   C     C_R   0.592523 0.500280 0.499391 0.810832
C35   C     C_R   0.056327 0.747341 0.506436 -0.201616
C36   C     C_R   0.421302 0.118220 0.645031 -0.177347
C37   C     C_R   0.385246 0.048192 0.715333 -0.104173
C38   C     C_R   0.385301 0.919167 0.715145 -0.115735
C39   C     C_R   0.421415 0.859353 0.644712 -0.154016
C40   C     C_R   0.458812 0.928473 0.574543 0.098441
C41   C     C_R   0.458747 0.059699 0.574722 0.085553
C42   C     C_R   0.495258 0.128219 0.500108 -0.096154
C43   C     C_R   0.529550 0.068112 0.422088 -0.178470
C44   C     C_R   0.529632 0.940084 0.421945 -0.201891
C45   C     C_R   0.176177 0.415030 0.464658 0.550932
C46   C     C_R   0.495408 0.870349 0.499791 -0.075216
C47   C     C_R   0.563321 0.667467 0.142810 -0.089603
C48   C     C_R   0.594078 0.750031 0.069981 -0.193984
C49   C     C_R   0.593961 0.750552 0.926319 -0.206355
C50   C     C_R   0.563098 0.668489 0.854602 -0.145053
C51   C     C_R   0.530741 0.583463 0.924500 0.206443
C52   C     C_R   0.530848 0.583070 0.074136 0.216214
C53   C     C_R   0.471548 0.418806 0.074639 -0.005784
C54   C     C_R   0.472062 0.417840 0.926800 -0.019805
C55   C     C_R   0.179901 0.635366 0.489625 0.550588
C56   C     C_R   0.282018 0.567997 0.374476 -0.199211
C57   C     C_R   0.332325 0.562748 0.379473 0.366628
C58   C     C_R   0.324540 0.472479 0.613121 0.062247
Cu1   Cu    Cu3+1 0.500000 0.499990 0.640660 0.945936
Cu2   Cu    Cu3+1 0.500000 0.500010 0.359340 0.992766
H1    H     H_    0.264858 0.604682 0.283336 0.150028
H2    H     H_    0.126500 0.835413 0.513212 0.189423
H3    H     H_    0.968277 0.836060 0.503482 0.134644
H4    H     H_    0.651592 0.549621 0.717819 0.182804
H5    H     H_    0.883414 0.828787 0.512293 0.185620
H6    H     H_    0.739478 0.556077 0.720628 0.151686
H7    H     H_    0.041750 0.837152 0.519345 0.136156
H8    H     H_    0.557077 0.120839 0.363453 0.165014
H9    H     H_    0.418893 0.217929 0.644078 0.159489
H10   H     H_    0.356759 0.094107 0.768624 0.175444
H11   H     H_    0.252187 0.446877 0.691281 0.174961
H12   H     H_    0.356884 0.865081 0.768258 0.159063
H13   H     H_    0.419018 0.758988 0.643847 0.160345
H14   H     H_    0.557240 0.895163 0.363293 0.137877
H15   H     H_    0.448192 0.352218 0.130366 0.150011
H16   H     H_    0.566990 0.673169 0.252607 0.184785
H17   H     H_    0.618464 0.813450 0.125740 0.155410
H18   H     H_    0.618298 0.814303 0.869660 0.162993
H19   H     H_    0.566758 0.674923 0.744652 0.196028
H20   H     H_    0.449924 0.348864 0.872248 0.159269
H21   H     H_    0.116319 0.212849 0.439251 0.186882
H22   H     H_    0.743045 0.464329 0.286020 0.135010
H23   H     H_    0.874212 0.203002 0.489783 0.188426
H24   H     H_    0.958910 0.201951 0.482487 0.135476
H25   H     H_    0.031486 0.206496 0.443057 0.135488
N1    N     N_R   0.202090 0.525540 0.478193 -0.452869
N2    N     N_R   0.798126 0.512905 0.505372 -0.459141
N3    N     N_R   0.500460 0.501210 0.147910 -0.201681
N4    N     N_R   0.500480 0.501290 0.852040 -0.200674
O1    O     O_R   0.500000 0.319640 0.618810 -0.580430
O2    O     O_2   0.794187 0.294581 0.497331 -0.529872
O3    O     O_2   0.206534 0.742893 0.502371 -0.528380
O4    O     O_2   0.800466 0.731113 0.514945 -0.534106
O5    O     O_R   0.500000 0.319660 0.381240 -0.577544
O6    O     O_R   0.430260 0.500010 0.618770 -0.574072
O7    O     O_R   0.430270 0.500030 0.381200 -0.516410
O8    O     O_R   0.500000 0.680340 0.618760 -0.606566
O9    O     O_R   0.500000 0.680360 0.381190 -0.587833
O10   O     O_R   0.569730 0.499970 0.618800 -0.609368
O11   O     O_R   0.569740 0.499990 0.381230 -0.543356
O12   O     O_2   0.199207 0.308428 0.451268 -0.522899
I1    I     I_    0.348369 0.397073 0.803233 -0.422934
O13   O     O_3   0.647840 0.449660 0.252717 -0.715804
H26   H     H_    0.671579 0.436388 0.177356 0.322236
O14   O     O_3   0.360507 0.608405 0.269826 -0.693070
H27   H     H_    0.339611 0.640053 0.195895 0.332619

loop_
_geom_bond_atom_site_label_1
_geom_bond_atom_site_label_2
_ccdc_geom_bond_type
C10   C27   A    
C57   O14   S    
C21   C26   A    
C1    O1    A    
Cu1   O10   S    
C41   C42   A    
C7    C55   A    
C50   H19   S    
Cu2   N3    S    
C33   H5    S    
C53   C54   A    
C49   H18   S    
C40   C46   A    
C37   C38   A    
C28   C29   A    
C47   H16   S    
Cu2   O9    S    
C5    C6    A    
C9    C22   A    
C15   C16   A    
C20   N2    A    
C56   C57   A    
C18   C19   A    
Cu1   N4    S    
C8    C58   A    
C43   H8    S    
C34   O11   A    
C12   O6    A    
C58   I1    S    
C14   H24   S    
C19   O4    S    
C8    C12   S    
Cu1   Cu2   S    
C24   H4    S    
C23   C46   S    
C21   C22   A    
C3    N1    S    
C31   H2    S    
C36   C41   A    
C53   H15   S    
Cu1   O6    S    
C4    C7    A    
C4    C28   A    
C44   C46   A    
C17   C18   A    
C54   H20   S    
C38   C39   A    
C20   O2    S    
C38   H12   S    
C7    C31   A    
C51   C52   A    
C52   N3    A    
C24   C25   A    
C54   N4    A    
C10   C14   A    
C39   C40   A    
C26   N2    S    
C15   H23   S    
C25   C26   A    
C5    C45   A    
C22   O13   S    
Cu1   O1    S    
C48   H17   S    
C43   C44   A    
C55   O3    S    
C8    C57   A    
C3    C56   A    
C47   C48   A    
C35   H7    S    
C16   C20   A    
C50   C51   A    
C30   H25   S    
C44   H14   S    
C45   O12   S    
Cu2   O7    S    
C48   C49   A    
C6    C30   A    
C11   C32   A    
C9    C34   S    
Cu1   O8    S    
C31   C35   A    
C42   C43   A    
C2    H11   S    
O13   H26   S    
C36   H9    S    
C40   C41   A    
C23   O8    A    
C14   C15   A    
C25   H6    S    
C32   H3    S    
C4    C5    A    
Cu2   O11   S    
C10   C13   A    
C1    O5    A    
C2    C58   A    
C9    C24   A    
C47   C52   A    
C34   O10   A    
O14   H27   S    
C29   C35   A    
C19   N2    A    
C13   C17   A    
C32   C33   A    
C55   N1    A    
C45   N1    A    
C51   N4    A    
C11   C13   A    
C16   C17   A    
C2    C3    A    
C53   N3    A    
C39   H13   S    
C18   C33   A    
C1    C42   S    
C23   O9    A    
C21   H22   S    
C11   C29   A    
C36   C37   A    
C49   C50   A    
C27   C28   A    
C6    H21   S    
C56   H1    S    
C12   O7    A    
C37   H10   S    
C27   C30   A    
Cu2   O5    S    
