data_mof_unit_45968.cif
_audit_creation_date              2012-12-11T17:25:31-0500
_audit_creation_method            fapswitch 2.2
_symmetry_space_group_name_H-M    P1
_symmetry_Int_Tables_number       1
_space_group_crystal_system       triclinic
_cell_length_a                    8.404468
_cell_length_b                    16.362203
_cell_length_c                    19.166674
_cell_angle_alpha                 99.840299
_cell_angle_beta                  91.873238
_cell_angle_gamma                 93.394825
_cell_volume                      2589.92629982

loop_
_atom_site_label
_atom_site_type_symbol
_atom_type_description
_atom_site_fract_x
_atom_site_fract_y
_atom_site_fract_z
_atom_type_partial_charge
Ba1   Ba    Ba6+2 0.846140 0.535590 0.465350 1.714084
Ba2   Ba    Ba6+2 0.343680 0.464470 0.534650 1.739836
C1    C     C_3   0.651300 0.842176 0.292454 -0.223379
C2    C     C_R   0.010589 0.538328 0.732421 0.022938
C3    C     C_R   0.866041 0.429329 0.810651 -0.182187
C4    C     C_3   0.130032 0.768088 0.279915 0.646961
C5    C     C_R   0.781296 0.451640 0.753057 -0.008483
C6    C     C_R   0.326988 0.572430 0.189494 -0.109280
C7    C     C_R   0.391657 0.569013 0.257139 -0.041871
C8    C     C_R   0.140642 0.458525 0.201497 -0.102801
C9    C     C_R   0.172812 0.475021 0.275764 0.100871
C10   C     C_R   0.993351 0.483230 0.846120 0.009695
C11   C     C_R   0.851445 0.510606 0.717374 -0.176478
C12   C     C_3   0.611841 0.756931 0.312325 0.283817
C13   C     C_R   0.207490 0.511930 0.156427 0.038134
C14   C     C_R   0.304150 0.527968 0.302414 -0.244676
C15   C     C_R   0.779996 0.432559 0.962768 -0.074448
C16   C     C_3   0.051798 0.754806 0.204658 0.198104
C17   C     C_R   0.683692 0.407177 0.013700 -0.064739
C18   C     C_R   0.728367 0.431084 0.084301 -0.069991
C19   C     C_R   0.874297 0.474343 0.102879 -0.081759
C20   C     C_R   0.991836 0.480140 0.052900 0.022845
C21   C     C_R   0.940513 0.464616 0.978854 0.042405
C22   C     C_R   0.153921 0.503934 0.076715 -0.000017
C23   C     C_3   0.492676 0.349259 0.319045 0.328764
C24   C     C_R   0.262673 0.516379 0.022825 0.039942
C25   C     C_R   0.210599 0.502679 0.949183 0.020424
C26   C     C_R   0.047904 0.481872 0.925131 -0.005729
C27   C     C_R   0.426650 0.540338 0.038918 -0.086932
C28   C     C_3   0.169170 0.718915 0.614203 0.258470
C29   C     C_R   0.526506 0.563576 0.988331 -0.059171
C30   C     C_R   0.479530 0.542305 0.917650 -0.047435
C31   C     C_R   0.328467 0.504472 0.899369 -0.091463
C32   C     C_R   0.385628 0.730224 0.469682 -0.279378
C33   C     C_R   0.527527 0.760254 0.508136 -0.027470
C34   C     C_3   0.474296 0.331763 0.238242 0.180185
C35   C     C_R   0.582754 0.843418 0.511567 -0.154101
C36   C     C_R   0.491262 0.897816 0.479395 0.249940
C37   C     C_R   0.340910 0.868201 0.447511 -0.115263
C38   C     C_R   0.288511 0.784236 0.441875 -0.032657
C39   C     C_R   0.632796 0.141940 0.469821 -0.134019
C40   C     C_3   0.177285 0.814139 0.628315 -0.252548
C41   C     C_R   0.677702 0.226472 0.476303 0.007151
C42   C     C_R   0.731598 0.088463 0.499745 0.241520
C43   C     C_R   0.821958 0.258176 0.512629 -0.320781
C44   C     C_R   0.927099 0.205857 0.537963 -0.018432
C45   C     C_3   0.146222 0.302533 0.722659 0.343003
C46   C     C_R   0.881109 0.120837 0.531707 -0.087257
C47   C     C_3   0.987105 0.266548 0.354955 0.632636
C48   C     C_3   0.014822 0.173501 0.336068 -0.258086
C49   C     C_3   0.569695 0.766599 0.681161 0.144837
C50   C     C_3   0.628207 0.797060 0.758032 -0.197609
C51   C     C_2   0.025785 0.846628 0.657752 0.585990
C52   C     C_2   0.180207 0.155021 0.356848 0.474059
C53   C     C_2   0.626788 0.726803 0.799256 0.521613
C54   C     C_2   0.590244 0.845401 0.218609 0.542950
C55   C     C_2   0.170249 0.772451 0.151020 0.564019
C56   C     C_3   0.157796 0.280985 0.796785 -0.320079
C57   C     C_2   0.747300 0.236424 0.693133 0.471605
C58   C     C_2   0.749107 0.551201 0.672967 0.600558
C59   C     C_2   0.860939 0.347465 0.528151 0.585251
C60   C     C_3   0.569782 0.242462 0.689286 0.255039
C61   C     C_3   0.485285 0.159903 0.699420 -0.281646
C62   C     C_R   0.067824 0.537991 0.802966 -0.103445
H1    H     H_    0.661273 0.757916 0.366991 0.071882
H2    H     H_    0.548520 0.844212 0.783365 0.048388
H3    H     H_    0.750434 0.827231 0.759343 0.168155
H4    H     H_    0.479940 0.746554 0.311637 -0.053306
H5    H     H_    0.597198 0.890345 0.330865 0.112703
H6    H     H_    0.382772 0.374721 0.341535 -0.013028
H7    H     H_    0.593951 0.396358 0.333830 0.045341
H8    H     H_    0.460143 0.391069 0.218816 0.019606
H9    H     H_    0.583824 0.305212 0.215112 0.036782
H10   H     H_    0.257664 0.336433 0.712441 0.109377
H11   H     H_    0.048990 0.344548 0.719953 -0.006969
H12   H     H_    0.278845 0.838856 0.665876 0.098408
H13   H     H_    0.186325 0.337971 0.836454 0.058434
H14   H     H_    0.042679 0.251429 0.809573 0.159662
H15   H     H_    0.253106 0.237675 0.800547 0.143532
H16   H     H_    0.533155 0.252836 0.635392 0.034414
H17   H     H_    0.526322 0.107741 0.660559 0.102052
H18   H     H_    0.355353 0.160552 0.690487 0.151138
H19   H     H_    0.210089 0.716821 0.282308 -0.035155
H20   H     H_    0.509699 0.148011 0.754010 0.146155
H21   H     H_    0.168404 0.580700 0.822655 0.081334
H22   H     H_    0.828822 0.372179 0.828255 0.082578
H23   H     H_    0.197391 0.837629 0.578263 0.002823
H24   H     H_    0.377798 0.619773 0.162671 0.046657
H25   H     H_    0.058603 0.406155 0.180134 0.076088
H26   H     H_    0.346201 0.531653 0.356885 0.051629
H27   H     H_    0.717205 0.430491 0.913494 0.074502
H28   H     H_    0.564948 0.378838 0.998814 0.088679
H29   H     H_    0.645415 0.421050 0.124434 0.086328
H30   H     H_    0.895005 0.503039 0.156997 0.159713
H31   H     H_    0.486055 0.536788 0.088354 0.070614
H32   H     H_    0.647999 0.587490 0.003266 0.090688
H33   H     H_    0.563980 0.549551 0.877367 0.104903
H34   H     H_    0.026976 0.288171 0.410961 -0.049468
H35   H     H_    0.301977 0.475295 0.846059 0.122365
H36   H     H_    0.520506 0.118648 0.442325 0.144893
H37   H     H_    0.264713 0.910846 0.427550 0.136030
H38   H     H_    0.694629 0.865449 0.540045 0.103344
H39   H     H_    0.958582 0.080505 0.554075 0.110176
H40   H     H_    0.344336 0.665686 0.466186 0.064157
H41   H     H_    0.954189 0.798064 0.204542 0.052073
H42   H     H_    0.279793 0.697058 0.589913 -0.058699
H43   H     H_    0.069560 0.695898 0.575933 0.094868
H44   H     H_    0.914411 0.832698 0.626748 -0.003877
H45   H     H_    0.993675 0.151804 0.278147 0.081874
H46   H     H_    0.799164 0.261256 0.293301 0.300949
H47   H     H_    0.280470 0.176768 0.329554 0.065073
H48   H     H_    0.515318 0.692240 0.805428 -0.012741
H49   H     H_    0.371483 0.220823 0.215670 0.325098
H50   H     H_    0.630324 0.802479 0.174042 0.013642
H51   H     H_    0.278043 0.739429 0.144974 -0.025976
H52   H     H_    0.821129 0.282603 0.673396 -0.050008
H53   H     H_    0.645117 0.580145 0.695149 -0.006372
H54   H     H_    0.144752 0.889016 0.296061 0.310025
H55   H     H_    0.911739 0.670531 0.145387 0.306595
H56   H     H_    0.927517 0.137999 0.363793 0.089961
H57   H     H_    0.917028 0.379549 0.489710 0.045628
H58   H     H_    0.451091 0.734477 0.681956 0.044398
H59   H     H_    0.563467 0.821680 0.654574 -0.008140
H60   H     H_    0.782139 0.856549 0.296221 0.084175
N1    N     N_2   0.541850 0.982788 0.479893 -0.217501
N2    N     N_2   0.684304 0.002948 0.499582 -0.229643
O1    O     O_2   0.886430 0.442790 0.326210 -0.463304
O2    O     O_2   0.265181 0.216256 0.554121 -0.463834
O3    O     O_3   0.118265 0.229103 0.672815 -0.590368
O4    O     O_3   0.133270 0.450140 0.414870 -0.511916
O5    O     O_3   0.558160 0.600070 0.536280 -0.427057
O6    O     O_2   0.381490 0.299900 0.465440 -0.464685
O7    O     O_3   0.521557 0.275334 0.343744 -0.627645
O8    O     O_2   0.457446 0.464159 0.753707 -0.536194
O9    O     O_3   0.524192 0.307184 0.742111 -0.636306
O10   O     O_3   0.642580 0.593140 0.369810 -0.471602
O11   O     O_2   0.708193 0.532876 0.242055 -0.494213
O12   O     O_3   0.673950 0.710219 0.647923 -0.615373
O13   O     O_3   0.071886 0.311632 0.311145 -0.629101
O14   O     O_3   0.680177 0.694554 0.264978 -0.564123
O15   O     O_2   0.808210 0.700130 0.534600 -0.448480
O16   O     O_3   0.055070 0.637380 0.405640 -0.465433
O17   O     O_2   0.966169 0.785037 0.463124 -0.496034
O18   O     O_2   0.027239 0.889972 0.716328 -0.556187
O19   O     O_3   0.825398 0.276299 0.345035 -0.768691
O20   O     O_2   0.202450 0.113756 0.403214 -0.582063
O21   O     O_2   0.750315 0.708025 0.825922 -0.580639
O22   O     O_3   0.339257 0.278196 0.215617 -0.707068
O23   O     O_3   0.008556 0.767311 0.328808 -0.577833
O24   O     O_2   0.496527 0.896620 0.208045 -0.520289
O25   O     O_2   0.146221 0.824682 0.114096 -0.539047
O26   O     O_2   0.808765 0.180692 0.717112 -0.566982
O27   O     O_2   0.767973 0.544069 0.610074 -0.482951
O28   O     O_3   0.220648 0.844491 0.294170 -0.774682
O29   O     O_3   0.987738 0.672481 0.186518 -0.742907
O30   O     O_2   0.833333 0.386095 0.585868 -0.597003
O31   O     O_2   0.303270 0.557240 0.673830 -0.476135
O32   O     O_3   0.056430 0.549930 0.585140 -0.441801
O33   O     O_3   0.547120 0.406930 0.630200 -0.419817
O34   O     O_3   0.151240 0.689414 0.678260 -0.628128
O35   O     O_3   0.631540 0.400000 0.463730 -0.459863
O36   O     O_3   0.134620 0.362690 0.594370 -0.498133
P1    P     P_3+3 0.058810 0.419740 0.337290 1.017639
P2    P     P_3+3 0.634670 0.689830 0.556010 1.036515
P3    P     P_3+3 0.083866 0.744988 0.409299 0.983535
P4    P     P_3+3 0.130890 0.580330 0.662710 1.038621
P5    P     P_3+3 0.114108 0.253250 0.587275 0.987056
P6    P     P_3+3 0.603638 0.598407 0.281654 0.963628
P7    P     P_3+3 0.553316 0.297208 0.436001 1.015425
P8    P     P_3+3 0.580284 0.404993 0.720394 0.922425

loop_
_geom_bond_atom_site_label_1
_geom_bond_atom_site_label_2
_ccdc_geom_bond_type
O4    P1    S    
O14   P6    S    
C18   H29   S    
C14   H26   S    
O33   P8    S    
C28   H43   S    
C49   H59   S    
C17   C18   A    
C15   H27   S    
Ba2   O36   S    
C41   P7    S    
C55   H51   S    
C11   C58   S    
C57   O26   D    
C25   C31   A    
C28   O34   S    
C42   N2    S    
C24   C25   A    
C35   C36   A    
C45   O3    S    
C32   C38   A    
H49   O22   S    
C60   H16   S    
Ba1   O32   S    
C1    H5    S    
C7    C14   A    
C22   C24   A    
C32   C33   A    
C8    C13   A    
C40   C51   S    
C35   H38   S    
C53   H48   S    
C19   H30   S    
C29   H32   S    
C30   H33   S    
C59   H57   S    
Ba1   Ba2   S    
C1    C54   S    
O9    P8    S    
C2    C11   A    
O7    P7    S    
C58   O27   D    
O17   P3    D    
C17   H28   S    
C56   H13   S    
Ba2   O4    S    
C47   H34   S    
C4    O23   S    
C34   O22   S    
Ba1   P2    S    
C2    P4    S    
C57   H52   S    
O2    P5    D    
Ba2   O6    S    
Ba1   O16   S    
O34   P4    S    
H46   O19   S    
C23   O7    S    
Ba2   P4    S    
C50   C53   S    
C52   O20   D    
O35   P7    S    
Ba1   O35   S    
C19   C20   A    
C28   H42   S    
C39   C41   A    
Ba2   O35   S    
C37   H37   S    
C4    C16   S    
C44   C46   A    
C44   P5    S    
O3    P5    S    
C61   H18   S    
C49   C50   S    
O23   P3    S    
C8    H25   S    
C3    C10   A    
Ba1   O4    S    
C8    C9    A    
C37   C38   A    
C3    C5    A    
C6    C7    A    
O10   P6    S    
C43   C44   A    
C46   H39   S    
C48   H45   S    
C32   H40   S    
C31   H35   S    
C60   O9    S    
C60   C61   S    
C9    C14   A    
C16   C55   S    
C53   O21   D    
C29   C30   A    
Ba2   O32   S    
C9    P1    S    
Ba2   O5    S    
C39   H36   S    
C47   O19   S    
C58   H53   S    
C15   C21   A    
C21   C26   A    
C41   C43   A    
Ba1   P1    S    
C38   P3    S    
C4    O28   S    
C50   H3    S    
C56   H15   S    
O15   P2    D    
C23   H7    S    
C3    H22   S    
C13   C22   S    
C61   H17   S    
C6    C13   A    
C47   O13   S    
N1    N2    D    
C39   C42   A    
C48   H56   S    
O6    P7    D    
Ba2   O33   S    
C54   O24   D    
Ba1   O10   S    
C59   O30   D    
C62   H21   S    
C36   N1    S    
C50   H2    S    
C1    H60   S    
O32   P4    S    
C27   H31   S    
C57   C60   S    
O1    P1    D    
C4    H19   S    
C33   C35   A    
C7    P6    S    
Ba1   O1    S    
C45   H10   S    
C12   O14   S    
Ba1   O5    S    
O31   P4    D    
C40   H23   S    
C1    C12   S    
C2    C62   A    
C40   H12   S    
C33   P2    S    
C61   H20   S    
C51   O18   D    
C30   C31   A    
O13   P1    S    
C16   H41   S    
C45   H11   S    
C48   C52   S    
O16   P3    S    
C51   H44   S    
C36   C37   A    
O5    P2    S    
Ba2   O31   S    
C10   C62   A    
C55   O25   D    
C43   C59   S    
C15   C17   A    
C12   H1    S    
H55   O29   S    
C52   H47   S    
H54   O28   S    
C20   C22   A    
C12   H4    S    
Ba1   O15   S    
C34   H9    S    
C56   H14   S    
C23   C34   S    
O36   P5    S    
C49   O12   S    
C34   H8    S    
C5    C11   A    
C18   C19   A    
C10   C26   S    
C24   C27   A    
C27   C29   A    
C47   C48   S    
O8    P8    D    
C5    P8    S    
C25   C26   A    
C49   H58   S    
C54   H50   S    
C20   C21   A    
C28   C40   S    
O12   P2    S    
C23   H6    S    
C6    H24   S    
O11   P6    D    
C16   O29   S    
C42   C46   A    
C45   C56   S    
