data_mof_unit_23163.cif
_audit_creation_date              2012-12-11T14:13:22-0500
_audit_creation_method            fapswitch 2.2
_symmetry_space_group_name_H-M    P1
_symmetry_Int_Tables_number       1
_space_group_crystal_system       triclinic
_cell_length_a                    11.586481
_cell_length_b                    18.736584
_cell_length_c                    9.958724
_cell_angle_alpha                 89.974656
_cell_angle_beta                  110.94385
_cell_angle_gamma                 90.034002
_cell_volume                      2019.1121846

loop_
_atom_site_label
_atom_site_type_symbol
_atom_type_description
_atom_site_fract_x
_atom_site_fract_y
_atom_site_fract_z
_atom_type_partial_charge
C1    C     C_R   0.074928 0.645547 0.140762 0.556110
C2    C     C_2   0.589538 0.078949 0.081618 -0.089726
C3    C     C_2   0.589291 0.421182 0.080729 -0.089819
C4    C     C_2   0.410172 0.578582 0.919841 -0.089878
C5    C     C_2   0.499136 0.961962 0.013507 0.106893
C6    C     C_2   0.498438 0.039214 0.990247 0.105779
C7    C     C_2   0.500162 0.461469 0.987491 0.105990
C8    C     C_2   0.499876 0.538466 0.012607 0.106614
C9    C     C_2   0.010742 0.922332 0.113927 -0.128604
C10   C     C_2   0.980557 0.075159 0.882558 -0.126242
C11   C     C_2   0.984599 0.423663 0.884161 -0.127454
C12   C     C_R   0.924959 0.354491 0.859194 0.556587
C13   C     C_2   0.014686 0.576536 0.115555 -0.128041
C14   C     C_2   0.009541 0.960834 0.000817 -0.166956
C15   C     C_2   0.967822 0.034129 0.985824 -0.171171
C16   C     C_2   0.977082 0.463802 0.991211 -0.171568
C17   C     C_2   0.020798 0.536659 0.007485 -0.172177
C18   C     C_R   0.469357 0.646621 0.442840 0.578958
C19   C     C_R   0.531228 0.353783 0.558090 0.581625
C20   C     C_R   0.530793 0.146308 0.557750 0.579006
C21   C     C_R   0.469679 0.853296 0.443127 0.576538
C22   C     C_R   0.377870 0.646631 0.962124 0.549883
C23   C     C_R   0.924286 0.145251 0.858980 0.554991
C24   C     C_R   0.622050 0.353312 0.038006 0.551395
C25   C     C_R   0.621991 0.146787 0.038286 0.550598
C26   C     C_R   0.377755 0.853492 0.962241 0.549280
C27   C     C_R   0.507221 0.425780 0.491038 -0.029089
C28   C     C_R   0.494955 0.575309 0.512453 -0.029486
C29   C     C_R   0.496287 0.924452 0.513643 -0.024749
C30   C     C_R   0.505928 0.074207 0.490995 -0.028165
C31   C     C_R   0.281154 0.419509 0.431825 0.184239
C32   C     C_R   0.720984 0.582131 0.568262 0.184339
C33   C     C_R   0.721415 0.918956 0.563496 0.186296
C34   C     C_R   0.074141 0.854186 0.140427 0.554832
C35   C     C_R   0.280640 0.079043 0.441785 0.183660
C36   C     C_R   0.176487 0.449558 0.448682 -0.115640
C37   C     C_R   0.825357 0.551677 0.551392 -0.116025
C38   C     C_R   0.824220 0.949841 0.543810 -0.113487
C39   C     C_R   0.178579 0.048103 0.463427 -0.117259
C40   C     C_R   0.181429 0.518262 0.502836 -0.154252
C41   C     C_R   0.820571 0.482559 0.499502 -0.155186
C42   C     C_R   0.817701 0.019032 0.491658 -0.156279
C43   C     C_R   0.186036 0.979154 0.516913 -0.156000
C44   C     C_R   0.287371 0.559531 0.529765 -0.094815
C45   C     C_R   0.393787 0.458616 0.475637 0.025783
C46   C     C_R   0.714931 0.441304 0.474234 -0.094862
C47   C     C_R   0.711862 0.059780 0.468658 -0.095805
C48   C     C_R   0.291907 0.938618 0.539060 -0.095740
C49   C     C_R   0.392396 0.531935 0.506676 -0.042841
C50   C     C_R   0.610177 0.469072 0.497676 -0.042776
C51   C     C_R   0.608570 0.031411 0.494640 -0.043211
C52   C     C_R   0.394436 0.967205 0.511862 -0.040766
C53   C     C_3   0.276538 0.359770 0.216613 -0.309527
C54   C     C_3   0.728105 0.647364 0.779203 -0.312996
C55   C     C_3   0.721569 0.850420 0.771007 -0.311492
C56   C     C_R   0.608642 0.542635 0.527648 0.026653
C57   C     C_3   0.263288 0.137982 0.221786 -0.310274
C58   C     C_3   0.295172 0.092429 0.879053 -0.291374
C59   C     C_3   0.702251 0.908628 0.123697 -0.289072
C60   C     C_3   0.703187 0.590705 0.129170 -0.288136
C61   C     C_3   0.297799 0.408479 0.868013 -0.287619
C62   C     C_R   0.608656 0.957820 0.525147 0.023794
C63   C     C_R   0.393830 0.040656 0.480482 0.026398
C64   C     C_2   0.409045 0.922070 0.920968 -0.088122
Cr1   Cr    Cr6+3 0.187610 0.750000 0.979860 0.991180
Cr2   Cr    Cr6+3 0.812390 0.250000 0.020140 0.992527
Cr3   Cr    Cr6+3 0.245810 0.750000 0.341640 1.004651
Cr4   Cr    Cr6+3 0.754190 0.250000 0.658360 1.005482
Cr5   Cr    Cr6+3 0.485760 0.750000 0.219910 1.048112
Cr6   Cr    Cr6+3 0.514240 0.250000 0.780090 1.048496
H1    H     H_    0.090719 0.419906 0.418331 0.093840
H2    H     H_    0.714743 0.388582 0.430223 0.145696
H3    H     H_    0.710272 0.112615 0.424466 0.145130
H4    H     H_    0.294220 0.885651 0.583058 0.142952
H5    H     H_    0.657785 0.056647 0.177085 0.075398
H6    H     H_    0.340481 0.944577 0.826088 0.077312
H7    H     H_    0.343047 0.556677 0.823027 0.075043
H8    H     H_    0.655537 0.442822 0.178496 0.073912
H9    H     H_    0.924631 0.054367 0.058918 0.161452
H10   H     H_    0.046791 0.939728 0.922895 0.164390
H11   H     H_    0.062399 0.557009 0.932893 0.163126
H12   H     H_    0.910735 0.581561 0.579259 0.093748
H13   H     H_    0.934835 0.443555 0.065268 0.162808
H14   H     H_    0.018515 0.053833 0.805584 0.095016
H15   H     H_    0.979519 0.944956 0.195574 0.096571
H16   H     H_    0.978992 0.554853 0.194275 0.094931
H17   H     H_    0.021089 0.445186 0.806005 0.094754
H18   H     H_    0.196028 0.322305 0.358442 0.242314
H19   H     H_    0.266452 0.306812 0.164992 0.127453
H20   H     H_    0.366978 0.382146 0.222602 0.146461
H21   H     H_    0.201287 0.394810 0.148218 0.152188
H22   H     H_    0.804908 0.680575 0.631099 0.241240
H23   H     H_    0.909667 0.920256 0.569797 0.093622
H24   H     H_    0.743054 0.701332 0.827584 0.129469
H25   H     H_    0.801878 0.611731 0.848542 0.152670
H26   H     H_    0.636859 0.627764 0.776448 0.144419
H27   H     H_    0.806080 0.819824 0.626132 0.240504
H28   H     H_    0.807478 0.829749 0.853888 0.130863
H29   H     H_    0.642955 0.815478 0.766556 0.144290
H30   H     H_    0.703984 0.904658 0.805025 0.148858
H31   H     H_    0.192479 0.175681 0.372127 0.241619
H32   H     H_    0.240512 0.189684 0.165083 0.127478
H33   H     H_    0.192036 0.098631 0.161220 0.153920
H34   H     H_    0.092649 0.077255 0.436786 0.093975
H35   H     H_    0.355005 0.120494 0.222424 0.146675
H36   H     H_    0.399296 0.045208 0.768431 0.256769
H37   H     H_    0.231711 0.114064 0.775059 0.140528
H38   H     H_    0.314116 0.135328 0.960814 0.144284
H39   H     H_    0.249627 0.046728 0.911123 0.124702
H40   H     H_    0.599031 0.956026 0.235104 0.256100
H41   H     H_    0.765194 0.885832 0.226791 0.141366
H42   H     H_    0.748622 0.954611 0.093829 0.123534
H43   H     H_    0.682783 0.866690 0.039881 0.143559
H44   H     H_    0.595415 0.543392 0.235206 0.255119
H45   H     H_    0.101564 0.540554 0.519719 0.106654
H46   H     H_    0.764609 0.612966 0.233610 0.141833
H47   H     H_    0.686364 0.632931 0.046246 0.143614
H48   H     H_    0.749990 0.544624 0.100453 0.123255
H49   H     H_    0.406147 0.457410 0.764544 0.255004
H50   H     H_    0.237021 0.386983 0.762515 0.142497
H51   H     H_    0.250303 0.453825 0.898084 0.121644
H52   H     H_    0.314593 0.365383 0.949154 0.144573
H53   H     H_    0.900158 0.460102 0.482225 0.106705
H54   H     H_    0.896062 0.041911 0.472277 0.107295
H55   H     H_    0.108168 0.956169 0.537217 0.107858
H56   H     H_    0.287493 0.612209 0.574017 0.144068
N1    N     N_2   0.269919 0.353101 0.358551 -0.495774
N2    N     N_2   0.732123 0.650184 0.635695 -0.494440
N3    N     N_2   0.734322 0.850924 0.631296 -0.494276
N4    N     N_2   0.265083 0.145277 0.367188 -0.494902
N5    N     N_2   0.409216 0.069956 0.864089 -0.471580
N6    N     N_2   0.588496 0.931125 0.139415 -0.470773
N7    N     N_2   0.587506 0.568666 0.140590 -0.469932
N8    N     N_2   0.413633 0.431550 0.858402 -0.469820
O1    O     O_R   0.267710 0.668200 0.902110 -0.542488
O2    O     O_R   0.883280 0.330790 0.732340 -0.518108
O3    O     O_R   0.883280 0.169210 0.732340 -0.517445
O4    O     O_R   0.116720 0.830790 0.267660 -0.516498
O5    O     O_R   0.366710 0.675440 0.427590 -0.518320
O6    O     O_R   0.633290 0.324560 0.572410 -0.518041
O7    O     O_R   0.633290 0.175440 0.572410 -0.517315
O8    O     O_R   0.366710 0.824560 0.427590 -0.517570
O9    O     O_R   0.534870 0.669390 0.371760 -0.476499
O10   O     O_R   0.465130 0.330610 0.628240 -0.477229
O11   O     O_R   0.465130 0.169390 0.628240 -0.477622
O12   O     O_R   0.732290 0.331800 0.097890 -0.542106
O13   O     O_R   0.534870 0.830610 0.371760 -0.476224
O14   O     O_R   0.453080 0.674480 0.075160 -0.461940
O15   O     O_R   0.546920 0.325520 0.924840 -0.462095
O16   O     O_R   0.546920 0.174480 0.924840 -0.461506
O17   O     O_R   0.453080 0.825520 0.075160 -0.461769
O18   O     O_3   0.306390 0.750000 0.180470 -0.248980
O19   O     O_3   0.693610 0.250000 0.819530 -0.250373
O20   O     O_R   0.732290 0.168200 0.097890 -0.542803
O21   O     O_R   0.267710 0.831800 0.902110 -0.542406
O22   O     O_R   0.099480 0.674460 0.038850 -0.504727
O23   O     O_R   0.900520 0.325540 0.961150 -0.504069
O24   O     O_R   0.900520 0.174460 0.961150 -0.504204
O25   O     O_R   0.099480 0.825540 0.038850 -0.505569
O26   O     O_R   0.116720 0.669210 0.267660 -0.517655

loop_
_geom_bond_atom_site_label_1
_geom_bond_atom_site_label_2
_ccdc_geom_bond_type
C44   C49   A    
C57   H35   S    
C30   C51   A    
C19   O10   A    
Cr6   O19   S    
Cr6   O16   S    
C31   N1    S    
C4    C8    D    
C43   H55   S    
C28   C56   A    
C42   H54   S    
C39   H34   S    
C20   C30   S    
C57   H32   S    
Cr6   O15   S    
C44   H56   S    
C21   O13   A    
C26   O17   A    
C21   O8    A    
C38   C42   A    
H18   N1    S    
C3    C7    D    
C10   C15   D    
C5    C6    S    
C40   H45   S    
C58   H39   S    
C23   O24   A    
C38   H23   S    
C61   H51   S    
C58   H37   S    
C11   C16   D    
Cr3   O4    S    
C26   C64   S    
C53   N1    S    
C9    H15   S    
C19   O6    A    
C5    N6    S    
C15   H9    S    
C11   H17   S    
C33   C62   A    
C55   N3    S    
C13   H16   S    
C53   H21   S    
C59   H41   S    
C41   C46   A    
H40   N6    S    
Cr3   O26   S    
C14   H10   S    
C12   O23   A    
C17   H11   S    
C19   C27   S    
C43   C48   A    
C40   C44   A    
C54   H26   S    
C27   C50   A    
Cr1   O25   S    
C34   O25   A    
C27   C45   A    
C25   O20   A    
C30   C63   A    
C61   H50   S    
Cr4   O3    S    
C2    C6    D    
C51   C62   A    
H22   N2    S    
C26   O21   A    
C61   N8    S    
C59   H42   S    
H36   N5    S    
C57   H33   S    
C59   N6    S    
H49   N8    S    
C54   H24   S    
Cr5   O17   S    
C48   H4    S    
C57   N4    S    
C7    C8    S    
C18   C28   S    
C47   H3    S    
C7    N8    S    
Cr4   O19   S    
Cr2   O20   S    
C16   C17   S    
C39   C43   A    
C21   C29   S    
C34   O4    A    
C16   H13   S    
C50   C56   A    
Cr5   O9    S    
C5    C64   D    
C61   H52   S    
C55   H30   S    
C1    O22   A    
C35   C39   A    
C9    C14   D    
C4    C22   S    
C28   C49   A    
C14   C15   S    
C36   C40   A    
C58   N5    S    
C59   H43   S    
C45   C49   A    
C64   H6    S    
C60   H47   S    
Cr6   O11   S    
C32   C37   A    
Cr4   O2    S    
C60   H48   S    
C35   N4    S    
C54   H25   S    
Cr1   O1    S    
C22   O14   A    
C53   H19   S    
C9    C34   S    
Cr5   O13   S    
C37   H12   S    
Cr4   O6    S    
C1    C13   S    
C31   C45   A    
Cr2   O24   S    
Cr3   O5    S    
C33   N3    S    
C29   C62   A    
C18   O9    A    
Cr3   O18   S    
C31   C36   A    
Cr5   O18   S    
C46   H2    S    
C20   O7    A    
C23   O3    A    
C1    O26   A    
C3    C24   S    
C6    N5    S    
C52   C63   A    
Cr2   O19   S    
C47   C51   A    
C11   C12   S    
C36   H1    S    
C10   C23   S    
Cr1   O22   S    
C46   C50   A    
Cr6   O10   S    
C33   C38   A    
C13   C17   D    
C22   O1    A    
C41   H53   S    
Cr1   O18   S    
C8    N7    S    
H27   N3    S    
C4    H7    S    
Cr1   O21   S    
C24   O12   A    
H31   N4    S    
C3    H8    S    
C32   N2    S    
C54   N2    S    
C55   H28   S    
C10   H14   S    
H44   N7    S    
C2    C25   S    
C58   H38   S    
C42   C47   A    
C37   C41   A    
C18   O5    A    
Cr2   O12   S    
C60   H46   S    
C24   O15   A    
C48   C52   A    
C12   O2    A    
C55   H29   S    
C53   H20   S    
Cr5   O14   S    
C20   O11   A    
C25   O16   A    
C35   C63   A    
Cr3   O8    S    
C60   N7    S    
C32   C56   A    
Cr2   O23   S    
C2    H5    S    
Cr4   O7    S    
C29   C52   A    
