data_mof_unit_8378.cif
_audit_creation_date              2012-12-10T19:46:25-0500
_audit_creation_method            fapswitch 2.2
_symmetry_space_group_name_H-M    P1
_symmetry_Int_Tables_number       1
_space_group_crystal_system       triclinic
_cell_length_a                    10.862352
_cell_length_b                    10.84907
_cell_length_c                    10.429011
_cell_angle_alpha                 90.327111
_cell_angle_beta                  90.530654
_cell_angle_gamma                 90.030202
_cell_volume                      1228.94863456

loop_
_atom_site_label
_atom_site_type_symbol
_atom_type_description
_atom_site_fract_x
_atom_site_fract_y
_atom_site_fract_z
_atom_type_partial_charge
C1    C     C_R   0.503268 0.261557 0.499427 0.842439
C2    C     C_R   0.496736 0.738443 0.500573 0.842438
C3    C     C_R   0.872059 0.506089 0.502519 -0.093012
C4    C     C_R   0.127940 0.493917 0.497480 -0.093023
C5    C     C_R   0.940620 0.531503 0.615480 0.089280
C6    C     C_R   0.059379 0.468508 0.384516 0.089250
C7    C     C_R   0.587496 0.171230 0.051169 0.466495
C8    C     C_R   0.412489 0.828734 0.948821 0.466468
C9    C     C_R   0.537749 0.116923 0.160539 -0.159230
C10   C     C_R   0.462252 0.883040 0.839459 -0.159147
C11   C     C_R   0.602803 0.118366 0.277452 -0.078936
C12   C     C_R   0.397198 0.881630 0.722543 -0.078950
C13   C     C_R   0.719921 0.173254 0.284025 0.659693
C14   C     C_R   0.280068 0.826768 0.715959 0.659661
C15   C     C_R   0.770919 0.225771 0.174509 -0.238854
C16   C     C_R   0.229056 0.774248 0.825466 -0.238853
C17   C     C_R   0.705148 0.225430 0.058714 -0.319240
C18   C     C_R   0.294823 0.774562 0.941266 -0.319224
C19   C     C_R   0.541879 0.932709 0.394642 -0.209887
C20   C     C_R   0.458135 0.067290 0.605361 -0.209876
C21   C     C_R   0.495069 0.871974 0.501668 -0.072214
C22   C     C_R   0.504942 0.128025 0.498334 -0.072221
C23   C     C_R   0.261524 0.496005 0.499080 0.845104
C24   C     C_R   0.738476 0.503998 0.500919 0.845141
C25   C     C_R   0.451846 0.939747 0.608176 0.080556
C26   C     C_R   0.548168 0.060251 0.391827 0.080558
C27   C     C_1   0.499992 0.499981 0.071946 0.118784
C28   C     C_1   0.500007 0.500019 0.928054 0.118910
C29   C     C_R   0.159774 0.462971 0.037610 -0.317854
C30   C     C_R   0.840130 0.537049 0.962354 -0.317862
C31   C     C_R   0.111897 0.504373 0.154198 0.577989
C32   C     C_R   0.888015 0.495636 0.845774 0.578038
C33   C     C_R   0.115162 0.427746 0.262325 -0.003096
C34   C     C_R   0.884834 0.572281 0.737663 -0.003094
C35   C     C_R   0.166526 0.309496 0.252197 -0.303284
C36   C     C_R   0.833551 0.690564 0.747800 -0.303429
C37   C     C_R   0.213734 0.268140 0.135383 -0.104018
C38   C     C_R   0.786345 0.731937 0.864610 -0.104049
C39   C     C_R   0.210635 0.344000 0.027323 0.459029
C40   C     C_R   0.789354 0.656055 0.972653 0.459143
C41   C     C_R   0.932235 0.476508 0.388408 -0.122088
C42   C     C_R   0.067763 0.523501 0.611589 -0.122202
Cu1   Cu    Cu3+1 0.500000 0.500000 0.625300 0.999849
Cu2   Cu    Cu3+1 0.500000 0.500000 0.374700 0.999814
H1    H     H_    0.861865 0.266410 0.179019 0.175755
H2    H     H_    0.138102 0.733626 0.820947 0.175764
H3    H     H_    0.577122 0.880557 0.313891 0.203482
H4    H     H_    0.422889 0.119441 0.686112 0.203478
H5    H     H_    0.156194 0.522998 0.955134 0.147228
H6    H     H_    0.843648 0.477009 0.044819 0.147221
H7    H     H_    0.168734 0.248971 0.334440 0.187741
H8    H     H_    0.831408 0.751103 0.665569 0.187809
H9    H     H_    0.251660 0.176213 0.128437 0.173608
H10   H     H_    0.748483 0.823891 0.871564 0.173616
H11   H     H_    0.879940 0.456348 0.301807 0.144175
H12   H     H_    0.120058 0.543663 0.698190 0.144132
H13   H     H_    0.745874 0.266925 0.975055 0.203464
H14   H     H_    0.254086 0.733063 0.024918 0.203419
H15   H     H_    0.447862 0.073995 0.154715 0.179547
H16   H     H_    0.552154 0.925939 0.845289 0.179547
N1    N     N_1   0.500010 0.499990 0.186410 -0.156914
N2    N     N_1   0.499990 0.500010 0.813590 -0.156880
O1    O     O_R   0.499990 0.319650 0.605810 -0.576271
O2    O     O_R   0.500010 0.680350 0.394190 -0.576286
O3    O     O_R   0.499990 0.319640 0.394190 -0.589590
O4    O     O_R   0.500010 0.680360 0.605810 -0.589592
O5    O     O_R   0.319640 0.500010 0.605810 -0.593905
O6    O     O_R   0.680360 0.499990 0.394190 -0.593920
O7    O     O_R   0.319650 0.500010 0.394190 -0.569559
O8    O     O_R   0.680350 0.499990 0.605810 -0.569561
O9    O     O_3   0.257062 0.299328 0.913553 -0.673373
H17   H     H_    0.247357 0.363463 0.846821 0.336636
O10   O     O_3   0.742932 0.700741 0.086419 -0.673312
H18   H     H_    0.752464 0.636544 0.153110 0.336622
F1    F     F_    0.784914 0.174723 0.395809 -0.664574
F2    F     F_    0.215080 0.825320 0.604168 -0.664567
F3    F     F_    0.062309 0.618968 0.161772 -0.664282
F4    F     F_    0.937536 0.381014 0.838193 -0.664319
O11   O     O_3   0.519324 0.169891 0.939017 -0.711568
H19   H     H_    0.566978 0.211831 0.871317 0.330903
O12   O     O_3   0.480660 0.830042 0.060976 -0.711562
H20   H     H_    0.432983 0.788129 0.128678 0.330893

loop_
_geom_bond_atom_site_label_1
_geom_bond_atom_site_label_2
_ccdc_geom_bond_type
C30   C32   A    
C5    C42   A    
O10   H18   S    
C23   O7    A    
O12   H20   S    
C3    C24   S    
Cu1   O1    S    
C29   H5    S    
Cu2   O2    S    
C19   C21   A    
C19   H3    S    
C20   C25   A    
C40   O10   S    
C15   C17   A    
C23   O5    A    
C19   C26   A    
C41   H11   S    
C27   N1    T    
C42   H12   S    
C18   H14   S    
C13   F1    S    
C7    C17   A    
C6    C41   A    
C1    O3    A    
C31   C33   A    
C36   H8    S    
C37   H9    S    
C30   H6    S    
C1    C22   S    
Cu2   O3    S    
C1    O1    A    
C2    O2    A    
C31   F3    S    
C24   O8    A    
C8    O12   S    
C4    C6    A    
C16   H2    S    
C4    C23   S    
C11   C26   S    
C3    C5    A    
C8    C18   A    
C9    H15   S    
C14   F2    S    
C10   H16   S    
Cu1   Cu2   S    
C38   H10   S    
C29   C31   A    
C5    C34   S    
C29   C39   A    
C2    C21   S    
C30   C40   A    
Cu2   O7    S    
C16   C18   A    
C9    C11   A    
C20   H4    S    
C10   C12   A    
C8    C10   A    
C12   C14   A    
Cu1   O8    S    
C13   C15   A    
C35   H7    S    
C14   C16   A    
Cu2   O6    S    
C15   H1    S    
C7    O11   S    
C7    C9    A    
C21   C25   A    
C3    C41   A    
C35   C37   A    
C20   C22   A    
C2    O4    A    
Cu2   N1    S    
C6    C33   S    
C12   C25   S    
C36   C38   A    
O9    H17   S    
C37   C39   A    
C38   C40   A    
C11   C13   A    
C4    C42   A    
Cu1   O4    S    
C33   C35   A    
C34   C36   A    
C24   O6    A    
C32   F4    S    
O11   H19   S    
Cu1   O5    S    
C22   C26   A    
C17   H13   S    
C27   C28   S    
C39   O9    S    
Cu1   N2    S    
C32   C34   A    
C28   N2    T    
