data_mof_unit_48551.cif
_audit_creation_date              2012-12-11T14:45:26-0500
_audit_creation_method            fapswitch 2.2
_symmetry_space_group_name_H-M    P1
_symmetry_Int_Tables_number       1
_space_group_crystal_system       triclinic
_cell_length_a                    24.944261
_cell_length_b                    7.172467
_cell_length_c                    14.464247
_cell_angle_alpha                 89.938591
_cell_angle_beta                  102.836491
_cell_angle_gamma                 87.212276
_cell_volume                      2519.97757125

loop_
_atom_site_label
_atom_site_type_symbol
_atom_type_description
_atom_site_fract_x
_atom_site_fract_y
_atom_site_fract_z
_atom_type_partial_charge
O1    O     O_R   0.319150 0.364170 0.330530 -0.543025
O2    O     O_R   0.680850 0.635830 0.669470 -0.543025
O3    O     O_R   0.180850 0.864170 0.169470 -0.538230
O4    O     O_R   0.819150 0.135830 0.830530 -0.538228
O5    O     O_R   0.210330 0.696850 0.354180 -0.539234
O6    O     O_R   0.789670 0.303150 0.645820 -0.539235
O7    O     O_R   0.289670 0.196850 0.145820 -0.537438
O8    O     O_R   0.710330 0.803150 0.854180 -0.537432
C1    C     C_R   0.197115 0.527566 0.377960 0.676259
C2    C     C_R   0.802885 0.472434 0.622040 0.676257
C3    C     C_R   0.302559 0.023133 0.121754 0.680096
C4    C     C_R   0.697440 0.976866 0.878245 0.680096
O9    O     O_R   0.320550 0.694110 0.341970 -0.541266
O10   O     O_R   0.679450 0.305890 0.658030 -0.541268
O11   O     O_R   0.179450 0.194110 0.158030 -0.547501
O12   O     O_R   0.820550 0.805890 0.841970 -0.547502
O13   O     O_R   0.291860 0.861000 0.157170 -0.536621
O14   O     O_R   0.708140 0.139000 0.842830 -0.536623
O15   O     O_R   0.208140 0.361000 0.342830 -0.535849
O16   O     O_R   0.791860 0.639000 0.657170 -0.535850
C5    C     C_R   0.341893 0.520792 0.362288 0.689721
C6    C     C_R   0.658107 0.479208 0.637712 0.689721
C7    C     C_R   0.157716 0.030278 0.137951 0.688169
C8    C     C_R   0.842284 0.969722 0.862049 0.688169
O17   O     O_3   0.240460 0.529330 0.189380 -0.375664
O18   O     O_3   0.759540 0.470670 0.810620 -0.375661
O19   O     O_3   0.259540 0.029330 0.310620 -0.376140
O20   O     O_3   0.740460 0.970670 0.689380 -0.376143
V1    V     V_3+5 0.251770 0.805510 0.261240 1.416917
V2    V     V_3+5 0.748230 0.194490 0.738760 1.416916
V3    V     V_3+5 0.248230 0.305510 0.238760 1.413073
V4    V     V_3+5 0.751770 0.694490 0.761240 1.413080
C9    C     C_R   0.101124 0.040037 0.076522 -0.063213
C10   C     C_R   0.898876 0.959963 0.923478 -0.063214
C11   C     C_R   0.397818 0.493472 0.424162 -0.061941
C12   C     C_R   0.602182 0.506528 0.575837 -0.061938
C13   C     C_R   0.973347 0.774614 0.027134 -0.199208
C14   C     C_R   0.026653 0.225386 0.972866 -0.199209
C15   C     C_R   0.532452 0.717527 0.477772 -0.198842
C16   C     C_R   0.467548 0.282473 0.522228 -0.198843
C17   C     C_R   0.918727 0.795863 0.976515 -0.170651
C18   C     C_R   0.081273 0.204137 0.023484 -0.170649
C19   C     C_R   0.586613 0.677905 0.527067 -0.168418
C20   C     C_R   0.413387 0.322095 0.472932 -0.168418
C21   C     C_R   0.935021 0.104556 0.923735 -0.234183
C22   C     C_R   0.064979 0.895444 0.076265 -0.234185
C23   C     C_R   0.562431 0.373128 0.572494 -0.236667
C24   C     C_R   0.437569 0.626872 0.427506 -0.236664
C25   C     C_R   0.990288 0.083323 0.974093 0.155614
C26   C     C_R   0.009712 0.916677 0.025907 0.155614
C27   C     C_R   0.507606 0.412988 0.523680 0.156175
C28   C     C_R   0.492394 0.587012 0.476320 0.156177
H1    H     H_    0.079280 0.769028 0.117333 0.123307
H2    H     H_    0.920720 0.230972 0.882667 0.123307
H3    H     H_    0.426390 0.758392 0.389445 0.122295
H4    H     H_    0.573610 0.241608 0.610554 0.122292
H5    H     H_    0.107917 0.318315 0.021842 0.134123
H6    H     H_    0.892083 0.681685 0.978158 0.134124
H7    H     H_    0.383659 0.216485 0.471849 0.133747
H8    H     H_    0.616341 0.783515 0.528150 0.133744
H9    H     H_    0.987240 0.646094 0.066554 0.119709
H10   H     H_    0.012760 0.353906 0.933446 0.119709
H11   H     H_    0.521806 0.851237 0.441711 0.119228
H12   H     H_    0.478194 0.148763 0.558289 0.119232
C29   C     C_R   0.664863 0.993757 0.950284 -0.027608
C30   C     C_R   0.335133 0.006225 0.049709 -0.027639
C31   C     C_R   0.835535 0.471674 0.549641 -0.029009
C32   C     C_R   0.164465 0.528326 0.450358 -0.029008
C33   C     C_R   0.656099 0.089055 0.106245 -0.161071
C34   C     C_R   0.343910 0.910649 0.893794 -0.161084
C35   C     C_R   0.845421 0.392705 0.391990 -0.162373
C36   C     C_R   0.154579 0.607285 0.608011 -0.162370
C37   C     C_R   0.688533 0.057148 0.040540 -0.170255
C38   C     C_R   0.311474 0.942616 0.959491 -0.170229
C39   C     C_R   0.812810 0.411809 0.458217 -0.168094
C40   C     C_R   0.187191 0.588184 0.541784 -0.168093
C41   C     C_R   0.608618 0.963111 0.925249 -0.211570
C42   C     C_R   0.391371 0.036995 0.074718 -0.211598
C43   C     C_R   0.891208 0.511499 0.575172 -0.212176
C44   C     C_R   0.108791 0.488503 0.424827 -0.212175
C45   C     C_R   0.574258 0.999461 0.989687 0.082438
C46   C     C_R   0.425738 0.000494 0.010307 0.082435
C47   C     C_R   0.925910 0.487016 0.510187 0.082265
C48   C     C_R   0.074090 0.512981 0.489813 0.082265
C49   C     C_R   0.599326 0.062501 0.081460 0.139572
C50   C     C_R   0.400677 0.937306 0.918560 0.139577
C51   C     C_R   0.901642 0.427714 0.417309 0.139891
C52   C     C_R   0.098359 0.572278 0.582692 0.139891
C53   C     C_R   0.516034 0.978720 0.965659 0.058371
C54   C     C_R   0.483963 0.021210 0.034340 0.058373
C55   C     C_R   0.983779 0.515423 0.534667 0.058522
C56   C     C_R   0.016221 0.484573 0.465333 0.058522
C57   C     C_R   0.511218 0.081875 0.124849 -0.186490
C58   C     C_R   0.488784 0.917947 0.875168 -0.186501
C59   C     C_R   0.989659 0.427636 0.373740 -0.186511
C60   C     C_R   0.010341 0.572356 0.626261 -0.186511
C61   C     C_R   0.567616 0.101528 0.147609 -0.199928
C62   C     C_R   0.432389 0.898214 0.852422 -0.199933
C63   C     C_R   0.933647 0.400342 0.350548 -0.199564
C64   C     C_R   0.066353 0.599647 0.649453 -0.199563
H13   H     H_    0.406898 0.083545 0.145952 0.097356
H14   H     H_    0.593080 0.916791 0.853977 0.097316
H15   H     H_    0.093781 0.445885 0.352741 0.098577
H16   H     H_    0.906218 0.554125 0.647257 0.098578
H17   H     H_    0.675245 0.138156 0.176075 0.112480
H18   H     H_    0.324771 0.861402 0.823990 0.112480
H19   H     H_    0.826911 0.346288 0.321313 0.112593
H20   H     H_    0.173090 0.653697 0.678689 0.112590
H21   H     H_    0.490282 0.116471 0.180493 0.124515
H22   H     H_    0.509725 0.883247 0.819543 0.124531
H23   H     H_    0.010900 0.401746 0.317583 0.123728
H24   H     H_    0.989100 0.598242 0.682418 0.123727
H25   H     H_    0.586575 0.149448 0.217815 0.123947
H26   H     H_    0.413437 0.850172 0.782237 0.123953
H27   H     H_    0.915249 0.355432 0.279494 0.123909
H28   H     H_    0.084752 0.644554 0.720508 0.123908
H29   H     H_    0.268019 0.916273 0.940339 0.105493
H30   H     H_    0.731995 0.083377 0.059715 0.105478
H31   H     H_    0.230096 0.621691 0.561519 0.106688
H32   H     H_    0.769905 0.378298 0.438482 0.106690

loop_
_geom_bond_atom_site_label_1
_geom_bond_atom_site_label_2
_ccdc_geom_bond_type
O17   V3    S    
C24   H3    S    
C47   C51   A    
O1    C5    A    
C35   H19   S    
O19   V1    S    
O13   V1    S    
O3    C7    A    
C64   H28   S    
C44   C48   A    
O15   V3    S    
C14   C25   A    
C2    C31   S    
O7    C3    A    
C60   H24   S    
C9    C18   A    
O9    V1    S    
C17   H6    S    
C14   C18   A    
C63   H27   S    
O4    C8    A    
C59   C63   A    
C62   H26   S    
C58   C62   A    
C20   H7    S    
C30   C38   A    
O1    V3    S    
C29   C37   A    
C12   C23   A    
O2    V4    S    
C53   C58   A    
O3    V1    S    
C34   C38   A    
C55   C60   A    
C1    O15   A    
C36   H20   S    
C2    O16   A    
C7    C9    S    
O2    C6    A    
C33   C37   A    
O14   V2    S    
C41   C45   A    
C16   C20   A    
O5    V1    S    
C3    C30   S    
C36   C40   A    
C45   C53   A    
O11   C7    A    
C15   C28   A    
O12   C8    A    
C42   H13   S    
C9    C22   A    
C41   H14   S    
C10   C17   A    
O10   V2    S    
C11   C24   A    
C18   H5    S    
C36   C52   A    
C51   C63   A    
C30   C42   A    
C40   H31   S    
C29   C41   A    
C44   H15   S    
C27   C28   A    
O8    V4    S    
O7    V3    S    
C34   H18   S    
C55   C56   A    
C33   H17   S    
O18   V4    S    
C15   C19   A    
C46   C50   A    
C58   H22   S    
C56   C59   A    
C8    C10   S    
O5    C1    A    
C42   C46   A    
C13   H9    S    
C6    C12   S    
C21   C25   A    
O8    C4    A    
O9    C5    A    
C10   C21   A    
C32   C40   A    
C11   C20   A    
C52   C64   A    
C19   H8    S    
C35   C51   A    
O6    V2    S    
C21   H2    S    
C43   H16   S    
C31   C39   A    
C61   H25   S    
C32   C44   A    
C34   C50   A    
C57   C61   A    
C33   C49   A    
C54   C57   A    
O16   V4    S    
C38   H29   S    
C3    O13   A    
C37   H30   S    
C39   H32   S    
C48   C52   A    
C46   C54   A    
O6    C2    A    
C23   C27   A    
O11   V3    S    
C5    C11   S    
O12   V4    S    
C16   C27   A    
C15   H11   S    
C4    C29   S    
C22   C26   A    
C16   H12   S    
O10   C6    A    
O20   V2    S    
C1    C32   S    
C59   H23   S    
C35   C39   A    
C13   C26   A    
C60   C64   A    
C22   H1    S    
C47   C55   A    
C13   C17   A    
C50   C62   A    
O4    V2    S    
C49   C61   A    
C43   C47   A    
C24   C28   A    
C25   C26   A    
C4    O14   A    
C12   C19   A    
C48   C56   A    
C53   C54   A    
C31   C43   A    
C45   C49   A    
C57   H21   S    
C23   H4    S    
C14   H10   S    
