data_mof_unit_11505.cif
_audit_creation_date              2012-10-26T21:01:05-0400
_audit_creation_method            fapswitch 2.2
_symmetry_space_group_name_H-M    P1
_symmetry_Int_Tables_number       1
_space_group_crystal_system       triclinic
_cell_length_a                    10.883258
_cell_length_b                    10.840185
_cell_length_c                    9.547839
_cell_angle_alpha                 90.58242
_cell_angle_beta                  89.474823
_cell_angle_gamma                 90.861151
_cell_volume                      1126.18973772

loop_
_atom_site_label
_atom_site_type_symbol
_atom_type_description
_atom_site_fract_x
_atom_site_fract_y
_atom_site_fract_z
_atom_type_partial_charge
C1    C     C_R   0.496916 0.262783 0.499484 0.550092
C2    C     C_R   0.429783 0.418170 0.074881 -0.009424
C3    C     C_R   0.427162 0.419150 0.925172 0.358722
C4    C     C_R   0.265071 0.496234 0.500589 0.548249
C5    C     C_R   0.563358 0.588465 0.926645 0.110890
C6    C     C_3   0.698108 0.611067 0.920280 -0.291143
C7    C     C_3   0.696960 0.616165 0.078794 -0.279393
C8    C     C_R   0.503872 0.737680 0.500579 0.567180
C9    C     C_R   0.734940 0.497518 0.498998 0.587817
C10   C     C_2   0.933068 0.454845 0.386091 0.227925
C11   C     C_2   0.867992 0.499970 0.495659 -0.062783
C12   C     C_R   0.492002 0.130041 0.499738 -0.008671
C13   C     C_2   0.068082 0.475268 0.384907 -0.177868
C14   C     C_2   0.132878 0.480252 0.503411 -0.171251
C15   C     C_R   0.530834 0.066917 0.616788 -0.018620
C16   C     C_3   0.945718 0.341724 0.173617 -0.030951
C17   C     C_3   0.867280 0.260190 0.078122 -0.370353
C18   C     C_3   0.773629 0.127109 0.519116 0.035227
C19   C     C_3   0.912054 0.135869 0.495932 -0.366407
C20   C     C_3   0.235617 0.337825 0.879888 -0.014928
C21   C     C_3   0.166715 0.247310 0.784981 -0.370668
C22   C     C_3   0.844504 0.899077 0.764070 -0.000862
C23   C     C_R   0.447703 0.061942 0.384619 -0.181443
C24   C     C_3   0.946092 0.809801 0.725459 -0.389494
C25   C     C_R   0.452174 0.933046 0.385387 -0.173188
C26   C     C_R   0.500915 0.871067 0.501268 0.019282
C27   C     C_R   0.534539 0.940611 0.619489 -0.010282
C28   C     C_3   0.639988 0.940761 0.721628 0.159933
C29   C     C_3   0.637081 0.082849 0.714610 0.171592
C30   C     C_R   0.562183 0.589845 0.073961 0.136765
Cu1   Cu    Cu3+1 0.499990 0.499980 0.640670 1.009008
Cu2   Cu    Cu3+1 0.500010 0.500020 0.359330 0.948028
H1    H     H_    0.378250 0.348792 0.132118 0.109598
H2    H     H_    0.948741 0.224132 0.539655 0.158318
H3    H     H_    0.958558 0.058114 0.546724 0.141562
H4    H     H_    0.933005 0.131420 0.382121 0.103672
H5    H     H_    0.202864 0.432628 0.858312 0.131030
H6    H     H_    0.212888 0.313729 0.990137 0.086174
H7    H     H_    0.066163 0.260420 0.796615 0.092634
H8    H     H_    0.193370 0.262343 0.673877 0.165091
H9    H     H_    0.188931 0.151119 0.813336 0.142581
H10   H     H_    0.749589 0.531198 0.877156 0.151999
H11   H     H_    0.719308 0.700100 0.870702 0.151210
H12   H     H_    0.609449 0.902351 0.824270 0.062584
H13   H     H_    0.749493 0.540473 0.125572 0.206224
H14   H     H_    0.717989 0.709658 0.121975 0.120691
H15   H     H_    0.911831 0.545572 0.583666 0.035998
H16   H     H_    0.115127 0.485297 0.284878 0.130799
H17   H     H_    0.089942 0.465367 0.604915 0.087067
H18   H     H_    0.412732 0.107909 0.293327 0.128193
H19   H     H_    0.419253 0.882291 0.294548 0.134952
H20   H     H_    0.814503 0.880828 0.873767 0.092303
H21   H     H_    0.884421 0.993658 0.762886 0.180507
H22   H     H_    0.976173 0.823770 0.615209 0.158187
H23   H     H_    0.017729 0.283200 0.219972 0.123478
H24   H     H_    0.025945 0.825401 0.795358 0.091834
H25   H     H_    0.912508 0.713532 0.738169 0.144477
H26   H     H_    0.606923 0.124352 0.815920 0.112434
H27   H     H_    0.988710 0.415619 0.108769 0.116800
H28   H     H_    0.796868 0.316290 0.025752 0.163010
H29   H     H_    0.926068 0.216037 0.996952 0.096459
H30   H     H_    0.820424 0.186882 0.140142 0.148674
H31   H     H_    0.732303 0.202924 0.459365 0.162511
H32   H     H_    0.740816 0.037457 0.475072 0.172247
N1    N     N_R   0.500780 0.500930 0.147930 -0.257329
N2    N     N_R   0.500780 0.500890 0.852020 -0.221437
O1    O     O_R   0.500000 0.319640 0.618810 -0.435640
O2    O     O_3   0.746493 0.143246 0.663830 -0.566543
O3    O     O_3   0.362923 0.328387 0.852390 -0.532122
O4    O     O_3   0.747713 0.886725 0.666012 -0.548092
O5    O     O_R   0.500010 0.319680 0.381230 -0.522968
O6    O     O_R   0.321940 0.499980 0.618760 -0.484791
O7    O     O_R   0.321950 0.500020 0.381180 -0.512008
O8    O     O_R   0.499990 0.680320 0.618770 -0.497645
O9    O     O_R   0.500000 0.680360 0.381190 -0.512223
O10   O     O_R   0.678050 0.499980 0.618820 -0.510100
O11   O     O_R   0.678060 0.500020 0.381240 -0.453083
O12   O     O_3   0.869424 0.393982 0.278081 -0.552299

loop_
_geom_bond_atom_site_label_1
_geom_bond_atom_site_label_2
_ccdc_geom_bond_type
Cu1   N2    S    
C19   H2    S    
C8    C26   S    
C11   H15   S    
C2    N1    A    
Cu2   O9    S    
C10   O12   S    
Cu1   O1    S    
C12   C23   A    
C26   C27   A    
C1    O5    A    
C7    H13   S    
C28   C29   S    
C3    O3    S    
C19   H4    S    
C5    C6    S    
C18   H31   S    
C14   H17   S    
C18   O2    S    
C18   C19   S    
C17   H29   S    
Cu2   O11   S    
C24   H25   S    
C9    O10   A    
Cu2   O5    S    
C7    C30   S    
C13   C14   D    
C1    C12   S    
C15   C29   S    
C22   H21   S    
C7    H14   S    
Cu2   O7    S    
C16   C17   S    
Cu1   O8    S    
C25   C26   A    
C28   H12   S    
C8    O9    A    
C16   H27   S    
C25   H19   S    
C17   H30   S    
C29   O2    S    
C20   H6    S    
C15   C27   A    
Cu1   Cu2   S    
C21   H7    S    
C12   C15   A    
C8    O8    A    
C9    O11   A    
C29   H26   S    
C9    C11   S    
C4    O7    A    
C21   H9    S    
C2    H1    S    
Cu1   O6    S    
C6    H11   S    
C22   C24   S    
C20   O3    S    
C3    N2    A    
C4    O6    A    
C22   H20   S    
C5    C30   A    
C28   O4    S    
C5    N2    A    
C23   H18   S    
C10   C13   S    
C13   H16   S    
C6    C7    S    
C24   H24   S    
C2    C3    A    
C16   H23   S    
C19   H3    S    
C20   H5    S    
C18   H32   S    
Cu1   O10   S    
C21   H8    S    
C1    O1    A    
C16   O12   S    
C23   C25   A    
C4    C14   S    
C30   N1    A    
C10   C11   D    
C17   H28   S    
C20   C21   S    
C6    H10   S    
C27   C28   S    
C24   H22   S    
C22   O4    S    
Cu2   N1    S    
