data_mof_unit_14346.cif
_audit_creation_date              2012-12-10T17:01:35-0500
_audit_creation_method            fapswitch 2.2
_symmetry_space_group_name_H-M    P1
_symmetry_Int_Tables_number       1
_space_group_crystal_system       triclinic
_cell_length_a                    9.865666
_cell_length_b                    11.098681
_cell_length_c                    13.104109
_cell_angle_alpha                 89.183003
_cell_angle_beta                  75.545045
_cell_angle_gamma                 111.590649
_cell_volume                      1282.93501838

loop_
_atom_site_label
_atom_site_type_symbol
_atom_type_description
_atom_site_fract_x
_atom_site_fract_y
_atom_site_fract_z
_atom_type_partial_charge
C1    C     C_R   0.439294 0.253851 0.508980 0.846520
C2    C     C_R   0.560528 0.746000 0.493503 0.862035
C3    C     C_2   0.084440 0.507770 0.487582 0.148930
C4    C     C_2   0.917706 0.483448 0.502424 0.125913
C5    C     C_R   0.473376 0.498640 0.702928 0.843231
C6    C     C_R   0.528143 0.508240 0.296891 0.865741
C7    C     C_R   0.546858 0.519635 0.181808 -0.247083
C8    C     C_R   0.457032 0.499705 0.817974 -0.246717
C9    C     C_R   0.301402 0.460931 0.000084 -0.257659
C10   C     C_R   0.704419 0.579232 0.999646 -0.277888
C11   C     C_R   0.312403 0.468397 0.891452 0.352085
C12   C     C_R   0.693414 0.572507 0.108901 0.361100
C13   C     C_R   0.587286 0.534188 0.854848 0.534030
C14   C     C_R   0.416662 0.479888 0.144805 0.523784
C15   C     C_R   0.574462 0.533059 0.963369 -0.069918
C16   C     C_R   0.430328 0.489156 0.036386 -0.076493
C17   C     C_2   0.405843 0.114573 0.519529 -0.419514
C18   C     C_2   0.594160 0.885208 0.488998 -0.406301
C19   C     C_2   0.517930 0.069715 0.500212 0.505437
C20   C     C_2   0.482407 0.930130 0.514254 0.500501
Cu1   Cu    Cu3+1 0.647370 0.522180 0.481340 1.059312
Cu2   Cu    Cu3+1 0.352630 0.477820 0.518660 1.031244
H1    H     H_    0.193261 0.441448 0.056900 0.202141
H2    H     H_    0.813497 0.625286 0.942176 0.202783
H3    H     H_    0.712264 0.951661 0.462054 0.167893
H4    H     H_    0.287772 0.048206 0.546055 0.150804
H5    H     H_    0.832976 0.402733 0.559337 0.177630
H6    H     H_    0.168860 0.579648 0.423628 0.142979
N1    N     N_2   0.131210 0.444490 0.546730 -0.016706
N2    N     N_2   0.868790 0.555510 0.453270 -0.017667
O1    O     O_R   0.578710 0.332530 0.490040 -0.519631
O2    O     O_R   0.421290 0.667470 0.509960 -0.521945
O3    O     O_R   0.329810 0.295070 0.521560 -0.648408
O4    O     O_R   0.670190 0.704930 0.478440 -0.598690
O5    O     O_R   0.604230 0.515670 0.637800 -0.552755
O6    O     O_R   0.395770 0.484330 0.362200 -0.555851
O7    O     O_R   0.355330 0.478200 0.669330 -0.535493
O8    O     O_R   0.644670 0.521800 0.330670 -0.510966
F1    F     F_    0.275539 0.430882 0.213947 -0.670094
F2    F     F_    0.727519 0.571994 0.785332 -0.668886
O9    O     O_3   0.820003 0.630495 0.147344 -0.538647
C21   C     C_3   0.947389 0.606243 0.089751 0.062459
H7    H     H_    0.000062 0.667343 0.011699 0.154687
H8    H     H_    0.916158 0.500991 0.080456 0.141522
C22   C     C_3   0.068198 0.642753 0.148998 -0.634491
H9    H     H_    0.035517 0.566324 0.215918 0.283088
H10   H     H_    0.178049 0.650151 0.095103 0.186864
H11   H     H_    0.083325 0.738792 0.178099 0.266992
O10   O     O_3   0.192328 0.473317 0.856570 -0.538184
C23   C     C_3   0.060775 0.357624 0.892049 0.064771
H12   H     H_    0.030873 0.325075 0.978027 0.121420
H13   H     H_    0.076137 0.277586 0.847158 0.147807
C24   C     C_3   0.926919 0.382366 0.872478 -0.659298
H14   H     H_    0.954150 0.427207 0.790640 0.322287
H15   H     H_    0.824636 0.290679 0.889587 0.186690
H16   H     H_    0.901780 0.453454 0.923549 0.204316
F3    F     F_    0.334405 0.847595 0.552538 -0.685097
F4    F     F_    0.666574 0.152120 0.465231 -0.681352
O11   O     O_3   0.973773 0.658451 0.384606 -0.509630
C25   C     C_3   0.020229 0.766340 0.441895 0.162337
H17   H     H_    0.074495 0.746770 0.501547 0.179513
H18   H     H_    0.924076 0.791508 0.484334 0.178273
C26   C     C_3   0.134936 0.884082 0.364719 -0.801804
H19   H     H_    0.082975 0.907398 0.305078 0.252539
H20   H     H_    0.172433 0.970011 0.408070 0.211851
H21   H     H_    0.235286 0.863101 0.323327 0.250688
O12   O     O_3   0.019086 0.358953 0.626022 -0.535865
C27   C     C_3   0.031169 0.236648 0.623202 0.221261
H22   H     H_    0.113848 0.234445 0.666397 0.163384
H23   H     H_    0.061237 0.212773 0.540258 0.172051
C28   C     C_3   0.879079 0.130221 0.680798 -0.880480
H24   H     H_    0.790473 0.128946 0.641931 0.282549
H25   H     H_    0.888823 0.033621 0.678304 0.215701
H26   H     H_    0.844016 0.146167 0.764982 0.246371

loop_
_geom_bond_atom_site_label_1
_geom_bond_atom_site_label_2
_ccdc_geom_bond_type
C28   H26   S    
C23   H13   S    
O12   C27   S    
C26   H20   S    
C8    C13   A    
Cu1   O5    S    
Cu2   N1    S    
C5    O7    A    
C5    C8    S    
Cu2   O6    S    
O9    C21   S    
C1    C17   S    
C19   C20   S    
C13   C15   A    
C8    C11   A    
C4    N2    D    
N2    O11   S    
C2    O4    A    
C24   H15   S    
C23   H12   S    
C14   F1    S    
C21   H8    S    
C1    O3    A    
O11   C25   S    
C24   H14   S    
C9    C11   A    
C3    N1    D    
Cu1   O1    S    
C12   O9    S    
C18   H3    S    
Cu2   O2    S    
Cu2   O3    S    
C27   C28   S    
C11   O10   S    
C17   H4    S    
C10   C12   A    
C2    O2    A    
C3    H6    S    
C17   C19   D    
C9    C16   A    
C6    O6    A    
Cu1   Cu2   S    
C6    C7    S    
C18   C20   D    
C10   C15   A    
C22   H10   S    
C19   F4    S    
C7    C12   A    
C14   C16   A    
C26   H21   S    
C23   C24   S    
C2    C18   S    
C21   H7    S    
C15   C16   A    
C25   C26   S    
C5    O5    A    
C1    O1    A    
C4    H5    S    
C28   H24   S    
C3    C4    S    
C25   H18   S    
O10   C23   S    
Cu1   N2    S    
C24   H16   S    
C28   H25   S    
C27   H23   S    
C25   H17   S    
C13   F2    S    
Cu1   O4    S    
C22   H11   S    
C10   H2    S    
C20   F3    S    
N1    O12   S    
Cu2   O7    S    
C6    O8    A    
C27   H22   S    
C7    C14   A    
C9    H1    S    
Cu1   O8    S    
C26   H19   S    
C22   H9    S    
C21   C22   S    
