data_mof_unit_8206.cif
_audit_creation_date              2012-12-10T17:10:26-0500
_audit_creation_method            fapswitch 2.2
_symmetry_space_group_name_H-M    P1
_symmetry_Int_Tables_number       1
_space_group_crystal_system       triclinic
_cell_length_a                    10.718977
_cell_length_b                    12.970111
_cell_length_c                    11.671543
_cell_angle_alpha                 99.724604
_cell_angle_beta                  92.465396
_cell_angle_gamma                 91.252134
_cell_volume                      1597.15675676

loop_
_atom_site_label
_atom_site_type_symbol
_atom_type_description
_atom_site_fract_x
_atom_site_fract_y
_atom_site_fract_z
_atom_type_partial_charge
C1    C     C_R   0.499278 0.299770 0.478876 0.798510
C2    C     C_R   0.501047 0.700263 0.521023 0.803756
C3    C     C_R   0.509765 0.812745 0.531137 -0.050839
C4    C     C_R   0.490540 0.187384 0.468510 -0.045365
C5    C     C_R   0.355539 0.034175 0.421849 -0.210413
C6    C     C_R   0.644298 0.966120 0.578263 -0.209546
C7    C     C_R   0.379365 0.138642 0.419317 -0.224006
C8    C     C_R   0.619784 0.862021 0.582313 -0.224419
C9    C     C_R   0.584175 0.131183 0.517618 0.028137
C10   C     C_R   0.417740 0.868166 0.478777 0.025864
C11   C     C_R   0.558499 0.024362 0.522979 0.126866
C12   C     C_R   0.442883 0.975155 0.474132 0.124959
C13   C     C_R   0.434227 0.372566 0.022175 -0.305396
C14   C     C_R   0.565792 0.627385 0.977849 -0.308327
C15   C     C_R   0.433277 0.388598 0.144156 0.091805
C16   C     C_R   0.566202 0.611565 0.855865 0.090942
C17   C     C_R   0.517571 0.560393 0.156379 0.013754
C18   C     C_R   0.483480 0.439228 0.843599 0.024697
C19   C     C_R   0.520899 0.547653 0.033914 0.059633
C20   C     C_R   0.479529 0.452146 0.966073 0.056852
C21   C     C_R   0.262013 0.484911 0.499748 0.802307
C22   C     C_R   0.738051 0.514963 0.500272 0.801284
C23   C     C_R   0.112641 0.467247 0.712605 0.025582
C24   C     C_R   0.887916 0.532696 0.287638 0.022934
C25   C     C_R   0.067248 0.516497 0.818067 -0.212855
C26   C     C_R   0.933663 0.483675 0.182221 -0.216703
C27   C     C_R   0.966958 0.583363 0.817787 0.020610
C28   C     C_R   0.033731 0.416583 0.182580 0.017647
C29   C     C_R   0.903707 0.591319 0.712564 -0.163408
C30   C     C_R   0.096408 0.408106 0.287865 -0.176363
C31   C     C_R   0.946660 0.538962 0.606115 0.051259
C32   C     C_R   0.053417 0.460545 0.394199 0.040466
C33   C     C_R   0.063690 0.492117 0.606343 0.013407
C34   C     C_R   0.936582 0.507657 0.393915 0.024723
C35   C     C_R   0.875698 0.531459 0.499963 -0.214448
C36   C     C_R   0.124449 0.468251 0.500243 -0.212836
Cu1   Cu    Cu3+1 0.509250 0.507730 0.615930 0.943544
Cu2   Cu    Cu3+1 0.490750 0.492270 0.384070 0.942877
H1    H     H_    0.400300 0.298391 0.972341 0.163216
H2    H     H_    0.599587 0.701591 0.027712 0.161704
H3    H     H_    0.108072 0.501199 0.899859 0.156187
H4    H     H_    0.893405 0.499442 0.100427 0.161098
H5    H     H_    0.822734 0.640037 0.713799 0.134872
H6    H     H_    0.177278 0.359282 0.286764 0.137781
H7    H     H_    0.689883 0.818208 0.621766 0.137925
H8    H     H_    0.308041 0.183064 0.382381 0.135384
H9    H     H_    0.266464 0.001949 0.384226 0.150663
H10   H     H_    0.732320 0.998882 0.617984 0.153197
H11   H     H_    0.454360 0.365360 0.791437 0.155396
H12   H     H_    0.548269 0.633772 0.208534 0.146100
H13   H     H_    0.600210 0.674249 0.814184 0.127787
H14   H     H_    0.398732 0.326122 0.185876 0.126728
N1    N     N_R   0.523180 0.519350 0.790130 -0.185365
N2    N     N_R   0.476820 0.480650 0.209870 -0.183006
O1    O     O_R   0.506570 0.354460 0.582000 -0.587655
O2    O     O_R   0.493430 0.645540 0.418000 -0.581941
O3    O     O_R   0.490940 0.341410 0.386200 -0.599019
O4    O     O_R   0.509060 0.658590 0.613800 -0.602163
O5    O     O_R   0.327470 0.506520 0.597900 -0.565832
O6    O     O_R   0.672530 0.493480 0.402100 -0.563866
O7    O     O_R   0.311840 0.493460 0.402100 -0.582230
O8    O     O_R   0.688160 0.506540 0.597900 -0.582994
C37   C     C_1   0.077066 0.361223 0.074856 0.202757
N3    N     N_1   0.111853 0.316220 0.988487 -0.297822
C38   C     C_1   0.924307 0.639249 0.925572 0.196034
N4    N     N_1   0.890139 0.684656 0.012002 -0.300939
C39   C     C_1   0.185939 0.375160 0.712566 0.260838
N5    N     N_1   0.241699 0.299623 0.711119 -0.308283
C40   C     C_1   0.815054 0.625021 0.287720 0.257647
N6    N     N_1   0.759700 0.700771 0.289183 -0.312800
C41   C     C_3   0.292697 0.813673 0.434003 -0.409210
C42   C     C_3   0.285757 0.780612 0.300957 -0.336878
C43   C     C_3   0.165956 0.716888 0.259469 -0.787722
H15   H     H_    0.162492 0.644559 0.298441 0.268189
H16   H     H_    0.082795 0.763740 0.284215 0.256179
H17   H     H_    0.163285 0.694156 0.163274 0.245304
H18   H     H_    0.289288 0.850133 0.257258 0.211133
H19   H     H_    0.366648 0.732412 0.273219 0.238359
H20   H     H_    0.276338 0.743316 0.474609 0.198058
H21   H     H_    0.214120 0.864744 0.462497 0.188663
C44   C     C_3   0.710910 0.184330 0.559633 -0.422835
C45   C     C_3   0.811318 0.150522 0.472094 -0.361450
C46   C     C_3   0.936699 0.206123 0.511742 -0.811968
H22   H     H_    0.927653 0.292122 0.519993 0.258417
H23   H     H_    0.969633 0.186885 0.596966 0.263196
H24   H     H_    0.007297 0.180674 0.446716 0.239176
H25   H     H_    0.823657 0.064698 0.460865 0.227938
H26   H     H_    0.781625 0.170251 0.386110 0.229548
H27   H     H_    0.707902 0.270670 0.571250 0.220220
H28   H     H_    0.738900 0.168580 0.647528 0.196791

loop_
_geom_bond_atom_site_label_1
_geom_bond_atom_site_label_2
_ccdc_geom_bond_type
C27   C29   A    
C43   H15   S    
C19   C20   A    
C16   H13   S    
C41   H20   S    
Cu1   O8    S    
C21   C36   S    
C22   C35   S    
C5    H9    S    
C42   H18   S    
C6    H10   S    
C32   C36   A    
C24   C26   A    
C21   O5    A    
C22   O6    A    
C45   H25   S    
C33   C36   A    
C18   C20   A    
C34   C35   A    
C23   C39   S    
C16   N1    A    
C42   H19   S    
C18   N1    A    
C8    H7    S    
C23   C33   A    
C31   C33   A    
C21   O7    A    
Cu1   O4    S    
Cu2   O7    S    
C44   H27   S    
C10   C41   S    
C29   H5    S    
C43   H16   S    
C30   H6    S    
C4    C7    A    
C41   H21   S    
C24   C40   S    
C44   C45   S    
C39   N5    T    
C7    H8    S    
C5    C12   A    
C3    C8    A    
C25   H3    S    
C6    C11   A    
C5    C7    A    
C6    C8    A    
C24   C34   A    
C32   C34   A    
C15   N2    A    
Cu1   Cu2   S    
C27   C38   S    
C1    O3    A    
C22   O8    A    
Cu2   O3    S    
C46   H22   S    
Cu2   N2    S    
C15   H14   S    
C9    C11   A    
Cu1   O5    S    
C10   C12   A    
Cu2   O6    S    
C44   H28   S    
C46   H23   S    
C38   N4    T    
C13   C15   A    
C43   H17   S    
C14   C16   A    
C26   H4    S    
C13   C20   A    
C14   C19   A    
C42   C43   S    
C17   H12   S    
C11   C12   A    
C2    O4    A    
C25   C27   A    
C26   C28   A    
C1    C4    S    
C28   C30   A    
C2    C3    S    
C1    O1    A    
Cu1   N1    S    
C41   C42   S    
C29   C31   A    
C3    C10   A    
C2    O2    A    
C30   C32   A    
C45   H26   S    
C17   C19   A    
C31   C35   A    
C23   C25   A    
C40   N6    T    
C13   H1    S    
C14   H2    S    
C37   N3    T    
Cu1   O1    S    
C28   C37   S    
C46   H24   S    
Cu2   O2    S    
C45   C46   S    
C4    C9    A    
C17   N2    A    
C18   H11   S    
C9    C44   S    
