data_mof_unit_47476.cif
_audit_creation_date              2012-12-11T16:45:22-0500
_audit_creation_method            fapswitch 2.2
_symmetry_space_group_name_H-M    P1
_symmetry_Int_Tables_number       1
_space_group_crystal_system       triclinic
_cell_length_a                    19.726726
_cell_length_b                    17.075683
_cell_length_c                    15.543656
_cell_angle_alpha                 89.999976
_cell_angle_beta                  53.019551
_cell_angle_gamma                 90.000857
_cell_volume                      4182.6018129

loop_
_atom_site_label
_atom_site_type_symbol
_atom_type_description
_atom_site_fract_x
_atom_site_fract_y
_atom_site_fract_z
_atom_type_partial_charge
C1    C     C_R   0.882579 0.695674 0.981468 -0.058225
C2    C     C_R   0.117936 0.695583 0.017702 -0.073920
C3    C     C_R   0.382075 0.195585 0.982285 -0.073860
C4    C     C_R   0.617403 0.195678 0.018557 -0.057988
C5    C     C_R   0.880058 0.320779 0.307131 0.063820
C6    C     C_R   0.124387 0.321682 0.691716 0.064089
C7    C     C_R   0.375757 0.821643 0.308214 0.063898
C8    C     C_R   0.619905 0.820781 0.692887 0.063783
C9    C     C_R   0.788184 0.347784 0.022980 0.148409
C10   C     C_R   0.211468 0.347579 0.977914 0.146643
C11   C     C_R   0.288525 0.847585 0.022103 0.146608
C12   C     C_R   0.711811 0.847784 0.977028 0.148409
C13   C     C_R   0.807907 0.637006 0.322232 -0.300949
C14   C     C_R   0.190881 0.638513 0.678024 -0.303355
C15   C     C_R   0.309049 0.138443 0.321962 -0.303367
C16   C     C_R   0.692149 0.136944 0.677778 -0.301280
C17   C     C_R   0.678587 0.650140 0.511620 0.012521
C18   C     C_R   0.320567 0.654934 0.491788 0.002570
C19   C     C_R   0.179392 0.154927 0.508256 0.002677
C20   C     C_R   0.821448 0.150089 0.488331 0.012290
C21   C     C_R   0.749550 0.682415 0.416554 0.084418
C22   C     C_R   0.246173 0.684899 0.584590 0.093549
C23   C     C_R   0.253780 0.184856 0.415394 0.093408
C24   C     C_R   0.750529 0.182361 0.583450 0.084466
C25   C     C_R   0.275509 0.263597 0.410491 -0.117821
C26   C     C_R   0.735501 0.263059 0.589715 -0.130022
C27   C     C_R   0.764612 0.763102 0.410317 -0.130168
C28   C     C_R   0.224501 0.763648 0.589445 -0.117775
C29   C     C_R   0.228877 0.308886 0.501390 -0.263678
C30   C     C_R   0.784159 0.308541 0.499265 -0.269049
C31   C     C_R   0.715925 0.808573 0.500770 -0.269251
C32   C     C_R   0.271203 0.808910 0.498526 -0.263611
C33   C     C_R   0.163067 0.274658 0.598595 0.072242
C34   C     C_R   0.844477 0.273119 0.400046 0.069065
C35   C     C_R   0.655528 0.773144 0.599954 0.069170
C36   C     C_R   0.337033 0.774647 0.401361 0.072265
C37   C     C_R   0.632862 0.695252 0.603352 0.089613
C38   C     C_R   0.365596 0.699763 0.399967 0.085424
C39   C     C_R   0.134448 0.199784 0.600058 0.085462
C40   C     C_R   0.867112 0.195210 0.396602 0.089665
C41   C     C_3   0.616393 0.628560 0.675478 -0.589118
C42   C     C_3   0.387789 0.631328 0.327785 -0.579576
C43   C     C_3   0.112263 0.131375 0.672270 -0.579626
C44   C     C_3   0.883504 0.128537 0.324491 -0.589123
C45   C     C_R   0.893347 0.303267 0.211563 -0.137474
C46   C     C_R   0.109133 0.303805 0.787975 -0.132558
C47   C     C_R   0.390932 0.803786 0.211997 -0.132542
C48   C     C_R   0.606637 0.803267 0.788442 -0.137300
C49   C     C_3   0.666116 0.577726 0.574723 0.412803
C50   C     C_3   0.338165 0.581064 0.428991 0.416470
C51   C     C_3   0.161771 0.081073 0.571102 0.416469
C52   C     C_3   0.833889 0.077677 0.425233 0.412606
C53   C     C_2   0.689256 0.238408 0.099906 -0.197508
C54   C     C_2   0.310984 0.238700 0.900268 -0.200328
C55   C     C_2   0.189016 0.738699 0.099736 -0.200266
C56   C     C_2   0.810725 0.738401 0.900121 -0.197542
C57   C     C_2   0.212559 0.808430 0.049334 -0.191111
C58   C     C_2   0.788062 0.808650 0.949156 -0.192845
C59   C     C_2   0.711926 0.308655 0.050863 -0.192842
C60   C     C_2   0.287431 0.308424 0.950687 -0.191112
C61   C     C_R   0.829326 0.410650 0.951956 -0.153967
C62   C     C_R   0.170426 0.410574 0.048569 -0.151671
C63   C     C_R   0.329569 0.910577 0.951441 -0.151649
C64   C     C_R   0.670671 0.910650 0.048049 -0.153970
C65   C     C_R   0.861817 0.581844 0.314897 0.446663
C66   C     C_R   0.137361 0.583306 0.684907 0.436780
C67   C     C_R   0.362580 0.083250 0.315080 0.436962
C68   C     C_R   0.638219 0.081801 0.685109 0.446394
C69   C     C_R   0.840393 0.320536 0.047694 -0.116759
C70   C     C_R   0.159373 0.320224 0.953075 -0.117453
C71   C     C_R   0.340620 0.820231 0.046941 -0.117460
C72   C     C_R   0.659604 0.820536 0.952309 -0.116784
C73   C     C_R   0.845427 0.664728 0.218334 0.461786
C74   C     C_R   0.153506 0.666329 0.781771 0.465311
C75   C     C_R   0.346460 0.166281 0.218212 0.465256
C76   C     C_R   0.654610 0.164675 0.781678 0.461791
C77   C     C_R   0.903217 0.396644 0.304172 -0.137892
C78   C     C_R   0.099706 0.396748 0.694461 -0.143702
C79   C     C_R   0.400396 0.896721 0.305483 -0.143207
C80   C     C_R   0.596764 0.896648 0.695837 -0.137814
C81   C     C_R   0.866433 0.603106 0.895349 -0.194430
C82   C     C_R   0.133097 0.603278 0.105154 -0.180726
C83   C     C_R   0.366907 0.103279 0.894841 -0.180587
C84   C     C_R   0.633554 0.103109 0.104668 -0.194378
C85   C     C_R   0.852694 0.681496 0.923084 0.102208
C86   C     C_R   0.147376 0.681553 0.076616 0.100489
C87   C     C_R   0.352633 0.181555 0.923374 0.100377
C88   C     C_R   0.647283 0.181502 0.076946 0.102104
H1    H     H_    0.895626 0.752228 0.999614 0.144346
H2    H     H_    0.104808 0.752087 0.999588 0.147494
H3    H     H_    0.395207 0.252088 0.000396 0.147450
H4    H     H_    0.604356 0.252231 0.000408 0.144260
H5    H     H_    0.248380 0.368839 0.497320 0.153630
H6    H     H_    0.768643 0.370067 0.505630 0.154601
H7    H     H_    0.731467 0.870090 0.494447 0.154644
H8    H     H_    0.251741 0.868872 0.502544 0.153650
H9    H     H_    0.649231 0.634868 0.713267 0.155360
H10   H     H_    0.357561 0.633688 0.286339 0.154972
H11   H     H_    0.142571 0.133722 0.713616 0.154942
H12   H     H_    0.850567 0.134856 0.286832 0.155349
H13   H     H_    0.547747 0.613958 0.731949 0.226088
H14   H     H_    0.457212 0.619663 0.274333 0.223389
H15   H     H_    0.042831 0.119759 0.725816 0.223411
H16   H     H_    0.952148 0.113951 0.267909 0.226126
H17   H     H_    0.723379 0.552549 0.561979 0.113331
H18   H     H_    0.282915 0.552544 0.439807 0.111022
H19   H     H_    0.217018 0.052505 0.560238 0.111096
H20   H     H_    0.776605 0.052452 0.438081 0.113549
H21   H     H_    0.714933 0.216291 0.140190 0.130446
H22   H     H_    0.286293 0.217155 0.858550 0.128671
H23   H     H_    0.213710 0.717151 0.141448 0.128660
H24   H     H_    0.785049 0.716284 0.859835 0.130424
H25   H     H_    0.185963 0.830817 0.010372 0.131161
H26   H     H_    0.815759 0.831582 0.986513 0.130392
H27   H     H_    0.684227 0.331587 0.013508 0.130376
H28   H     H_    0.314023 0.330808 0.989656 0.131159
H29   H     H_    0.890920 0.246353 0.183401 0.097265
H30   H     H_    0.112341 0.246942 0.815636 0.094301
H31   H     H_    0.387710 0.746926 0.184338 0.094297
H32   H     H_    0.609078 0.746355 0.816596 0.097201
H33   H     H_    0.807298 0.444254 0.914248 0.103569
H34   H     H_    0.192299 0.444206 0.086446 0.103682
H35   H     H_    0.307696 0.944209 0.913565 0.103696
H36   H     H_    0.692698 0.944253 0.085760 0.103587
H37   H     H_    0.830957 0.271306 0.097128 0.088739
H38   H     H_    0.168626 0.270493 0.904514 0.088264
H39   H     H_    0.331362 0.770506 0.095517 0.088279
H40   H     H_    0.669039 0.771308 0.902875 0.088743
H41   H     H_    0.912684 0.423744 0.359008 0.152841
H42   H     H_    0.092028 0.422522 0.637598 0.153831
H43   H     H_    0.408117 0.922500 0.362305 0.153778
H44   H     H_    0.587313 0.923762 0.640993 0.153047
H45   H     H_    0.859779 0.574881 0.838516 0.097743
H46   H     H_    0.138669 0.575357 0.163106 0.097361
H47   H     H_    0.361328 0.075356 0.836896 0.097416
H48   H     H_    0.640201 0.074883 0.161506 0.097803
H49   H     H_    0.331449 0.288979 0.338370 0.165714
H50   H     H_    0.682458 0.290578 0.662573 0.173479
H51   H     H_    0.817691 0.790613 0.337482 0.173606
H52   H     H_    0.168560 0.789054 0.661537 0.165682
N1    N     N_R   0.908660 0.628630 0.995840 -0.052648
N2    N     N_R   0.091340 0.628630 0.004160 -0.053127
N3    N     N_R   0.408660 0.128630 0.995840 -0.053138
N4    N     N_R   0.591340 0.128630 0.004160 -0.052658
N5    N     N_R   0.922310 0.368460 0.151950 -0.044086
N6    N     N_R   0.077690 0.368460 0.848050 -0.043052
N7    N     N_R   0.422310 0.868460 0.151950 -0.043086
N8    N     N_R   0.577690 0.868460 0.848050 -0.044123
N9    N     N_R   0.903470 0.421430 0.936420 -0.040125
N10   N     N_R   0.096530 0.421430 0.063580 -0.038905
N11   N     N_R   0.403470 0.921430 0.936420 -0.038901
N12   N     N_R   0.596530 0.921430 0.063580 -0.040127
N13   N     N_R   0.927500 0.575670 0.211370 -0.125345
N14   N     N_R   0.072500 0.575670 0.788630 -0.131670
N15   N     N_R   0.427500 0.075670 0.211370 -0.131639
N16   N     N_R   0.572500 0.075670 0.788630 -0.125232
N17   N     N_R   0.908660 0.365680 0.995820 -0.044375
N18   N     N_R   0.091340 0.365680 0.004180 -0.044436
N19   N     N_R   0.408660 0.865680 0.995820 -0.044450
N20   N     N_R   0.591340 0.865680 0.004180 -0.044381
N21   N     N_R   0.922310 0.631420 0.151980 -0.112673
N22   N     N_R   0.077690 0.631420 0.848020 -0.110953
N23   N     N_R   0.422310 0.131420 0.151980 -0.110982
N24   N     N_R   0.577690 0.131420 0.848020 -0.112703
N25   N     N_R   0.927500 0.426330 0.211360 -0.047497
N26   N     N_R   0.072500 0.426330 0.788640 -0.048850
N27   N     N_R   0.427500 0.926330 0.211360 -0.048843
N28   N     N_R   0.572500 0.926330 0.788640 -0.047496
N29   N     N_R   0.903470 0.570760 0.936440 -0.048176
N30   N     N_R   0.096530 0.570760 0.063560 -0.045554
N31   N     N_R   0.403470 0.070760 0.936440 -0.045550
N32   N     N_R   0.596530 0.070760 0.063560 -0.048177
Ni1   Ni    Ni4+2 1.000000 0.630300 0.000000 0.215741
Ni2   Ni    Ni4+2 0.500000 0.130300 0.000000 0.215655
Ni3   Ni    Ni4+2 1.000000 0.369700 0.000000 0.200376
Ni4   Ni    Ni4+2 0.500000 0.869700 0.000000 0.200354
Ni5   Ni    Ni4+2 0.988090 0.497570 0.863760 0.183612
Ni6   Ni    Ni4+2 0.011910 0.497570 0.136240 0.190939
Ni7   Ni    Ni4+2 0.488090 0.997570 0.863760 0.191089
Ni8   Ni    Ni4+2 0.511910 0.997570 0.136240 0.183625
O1    O     O_3   0.612745 0.521933 0.575722 -0.607936
C89   C     C_3   0.658194 0.480042 0.477525 0.280594
H53   H     H_    0.726015 0.470428 0.442772 0.091404
H54   H     H_    0.655342 0.512538 0.417783 0.103018
C90   C     C_3   0.617525 0.399991 0.496534 -0.893543
H55   H     H_    0.549690 0.406717 0.531185 0.260512
H56   H     H_    0.650692 0.367405 0.419308 0.216892
H57   H     H_    0.621645 0.365814 0.553979 0.254214
O2    O     O_3   0.392241 0.528992 0.432172 -0.609708
C91   C     C_3   0.346596 0.490166 0.532663 0.282276
H58   H     H_    0.280426 0.475234 0.564103 0.090069
H59   H     H_    0.344456 0.527799 0.592653 0.100962
C92   C     C_3   0.391805 0.414212 0.520367 -0.891207
H60   H     H_    0.458670 0.426688 0.486604 0.263044
H61   H     H_    0.359668 0.385274 0.599981 0.214917
H62   H     H_    0.390975 0.374051 0.464823 0.251135
O3    O     O_3   0.107581 0.029046 0.568085 -0.609730
C93   C     C_3   0.153103 0.990114 0.467678 0.282274
H63   H     H_    0.219318 0.975224 0.436087 0.090053
H64   H     H_    0.155119 0.027651 0.407704 0.101059
C94   C     C_3   0.107852 0.914115 0.480267 -0.891444
H65   H     H_    0.040924 0.926537 0.514277 0.263161
H66   H     H_    0.139828 0.885115 0.400719 0.214915
H67   H     H_    0.108873 0.874029 0.535728 0.251141
O4    O     O_3   0.887358 0.021915 0.424068 -0.607931
C95   C     C_3   0.842096 0.980109 0.522324 0.280789
H68   H     H_    0.774244 0.970403 0.557273 0.091194
H69   H     H_    0.845057 0.012731 0.581900 0.102986
C96   C     C_3   0.882893 0.900128 0.503312 -0.893703
H70   H     H_    0.950851 0.906957 0.468031 0.260813
H71   H     H_    0.850117 0.867738 0.580643 0.216854
H72   H     H_    0.878356 0.865702 0.446387 0.254084
O5    O     O_3   0.864467 0.559941 0.398221 -0.676819
C97   C     C_3   0.925136 0.605556 0.396797 0.299228
H73   H     H_    0.952720 0.655228 0.338068 0.089581
H74   H     H_    0.978392 0.566927 0.375942 0.105575
C98   C     C_3   0.883892 0.639880 0.508420 -0.982720
H75   H     H_    0.858831 0.592183 0.568955 0.255166
H76   H     H_    0.931286 0.674308 0.509180 0.230359
H77   H     H_    0.830830 0.679217 0.530420 0.265423
O6    O     O_3   0.138093 0.558952 0.599506 -0.666467
C99   C     C_3   0.058963 0.574579 0.620952 0.285087
H78   H     H_    0.041407 0.637525 0.641346 0.104626
H79   H     H_    0.008317 0.537361 0.688088 0.093254
C100  C     C_3   0.064898 0.555694 0.521015 -0.966610
H80   H     H_    0.084593 0.493797 0.496788 0.258803
H81   H     H_    0.002093 0.564331 0.538261 0.225649
H82   H     H_    0.112013 0.594736 0.453653 0.259537
O7    O     O_3   0.361775 0.058827 0.400507 -0.666551
C101  C     C_3   0.440783 0.074654 0.379309 0.284776
H83   H     H_    0.458158 0.137650 0.359113 0.104608
H84   H     H_    0.491591 0.037581 0.312128 0.093290
C102  C     C_3   0.434728 0.055715 0.479318 -0.966316
H85   H     H_    0.415347 0.993726 0.503231 0.258715
H86   H     H_    0.497408 0.064644 0.462329 0.225670
H87   H     H_    0.387321 0.094524 0.546804 0.259522
O8    O     O_3   0.635534 0.059978 0.601790 -0.676727
C103  C     C_3   0.575178 0.105944 0.602976 0.299820
H88   H     H_    0.548315 0.156043 0.661009 0.089516
H89   H     H_    0.521423 0.067726 0.624632 0.105434
C104  C     C_3   0.616482 0.139547 0.490971 -0.983069
H90   H     H_    0.640876 0.091449 0.431098 0.255283
H91   H     H_    0.569322 0.174249 0.490039 0.230297
H92   H     H_    0.670034 0.178478 0.468194 0.265207
O9    O     O_3   0.818510 0.728803 0.191485 -0.650614
C105  C     C_3   0.732920 0.719498 0.229635 0.281957
H93   H     H_    0.692145 0.685062 0.305153 0.089713
H94   H     H_    0.731211 0.688812 0.168059 0.111422
C106  C     C_3   0.692285 0.799762 0.249843 -0.909766
H95   H     H_    0.731742 0.837065 0.177243 0.249961
H96   H     H_    0.628188 0.793461 0.269870 0.218611
H97   H     H_    0.686065 0.828932 0.318093 0.257908
O10   O     O_3   0.177281 0.733189 0.808024 -0.648626
C107  C     C_3   0.263581 0.729120 0.768395 0.280147
H98   H     H_    0.305674 0.694916 0.692938 0.087512
H99   H     H_    0.267853 0.701182 0.829413 0.110879
C108  C     C_3   0.299574 0.811627 0.747286 -0.912334
H100  H     H_    0.259102 0.848288 0.820434 0.249210
H101  H     H_    0.364727 0.809561 0.724710 0.217165
H102  H     H_    0.302238 0.838824 0.680433 0.258869
O11   O     O_3   0.322671 0.233134 0.191963 -0.648652
C109  C     C_3   0.236374 0.229047 0.231580 0.280278
H103  H     H_    0.194286 0.194816 0.307015 0.087490
H104  H     H_    0.232119 0.201128 0.170539 0.110894
C110  C     C_3   0.200356 0.311545 0.252736 -0.912442
H105  H     H_    0.240824 0.348233 0.179613 0.249220
H106  H     H_    0.135208 0.309468 0.275299 0.217169
H107  H     H_    0.197676 0.338720 0.319612 0.258871
O12   O     O_3   0.681578 0.228708 0.808529 -0.650666
C111  C     C_3   0.767152 0.219320 0.770409 0.282046
H108  H     H_    0.807901 0.184859 0.694911 0.089664
H109  H     H_    0.768813 0.188618 0.832014 0.111446
C112  C     C_3   0.807874 0.299545 0.750167 -0.909783
H110  H     H_    0.768448 0.336875 0.822741 0.249983
H111  H     H_    0.871955 0.293178 0.730170 0.218650
H112  H     H_    0.814146 0.328722 0.681886 0.257869

loop_
_geom_bond_atom_site_label_1
_geom_bond_atom_site_label_2
_ccdc_geom_bond_type
C83   C87   A    
C75   O11   S    
C82   H46   S    
C91   H58   S    
C80   H44   S    
C63   H35   S    
C94   H66   S    
C94   H65   S    
C19   C23   A    
C28   H52   S    
C71   H39   S    
C112  H112  S    
C109  C110  S    
C82   N30   A    
C44   H16   S    
C48   H32   S    
N22   Ni1   S    
N5    N25   A    
O5    C97   S    
C98   H77   S    
C97   H73   S    
C103  C104  S    
C54   H22   S    
C106  H95   S    
C33   C39   A    
C72   H40   S    
C37   C41   S    
C9    C61   A    
C14   C74   A    
C61   H33   S    
C35   C37   A    
C43   H11   S    
C104  H90   S    
C11   C63   A    
C68   O8    S    
C42   H10   S    
C6    C46   A    
O11   C109  S    
C20   C40   A    
N16   Ni7   S    
C11   C71   A    
N12   N20   A    
C6    C78   A    
C84   N32   A    
C73   O9    S    
C19   C39   A    
C45   H29   S    
N6    Ni3   S    
C103  H89   S    
C29   C33   A    
C96   H72   S    
C46   H30   S    
C101  C102  S    
C3    H3    S    
C108  H100  S    
C7    C36   S    
N29   Ni5   S    
N8    N28   A    
C2    H2    S    
C50   O2    S    
C89   H53   S    
C41   H9    S    
C107  H99   S    
C51   O3    S    
C91   C92   S    
C112  H111  S    
C57   H25   S    
C105  H93   S    
C20   C24   A    
C91   H59   S    
C95   H68   S    
C83   N31   A    
C73   N21   A    
N24   Ni2   S    
C93   H63   S    
C16   C68   A    
C81   N29   A    
C62   N10   A    
C110  H105  S    
O10   C107  S    
C83   H47   S    
C53   C59   D    
N10   Ni6   S    
N23   Ni2   S    
C12   C58   S    
C70   H38   S    
C47   H31   S    
N27   Ni8   S    
N6    N26   A    
C69   H37   S    
C16   C24   S    
C18   C22   A    
O12   C111  S    
C5    C34   S    
N1    Ni1   S    
N25   Ni6   S    
N20   Ni4   S    
C111  C112  S    
N31   Ni7   S    
C10   C62   A    
C66   O6    S    
C42   H14   S    
C64   N12   A    
C41   C49   S    
C29   H5    S    
C100  H80   S    
N2    Ni1   S    
C43   H15   S    
C1    C85   A    
C105  H94   S    
C106  H96   S    
C78   N26   A    
C30   C34   A    
C3    C87   A    
C52   O4    S    
N5    Ni3   S    
C80   N28   A    
C28   C32   A    
C3    N3    A    
C103  H88   S    
C17   C49   S    
C74   N22   A    
O9    C105  S    
C21   C27   A    
N7    Ni4   S    
C90   H57   S    
C13   C65   A    
C107  C108  S    
C92   H61   S    
C98   H75   S    
O1    C89   S    
C27   C31   A    
C89   C90   S    
C27   H51   S    
C25   H49   S    
N13   N21   A    
C9    C59   S    
C8    C35   S    
C7    C47   A    
N12   Ni8   S    
C10   C60   S    
C17   C21   A    
C8    C48   A    
C76   N24   A    
C65   O5    S    
O7    C101  S    
C45   N5    A    
C4    H4    S    
O6    C99   S    
N21   Ni1   S    
C102  H87   S    
N11   Ni7   S    
O3    C93   S    
C95   C96   S    
C101  H84   S    
C92   H62   S    
C79   H43   S    
C76   O12   S    
C93   C94   S    
N9    Ni5   S    
C96   H70   S    
C14   C66   A    
C99   C100  S    
C13   C21   S    
N26   Ni5   S    
C77   H41   S    
C99   H79   S    
C102  H86   S    
C63   N11   A    
N7    N27   A    
C69   N17   A    
C42   C50   S    
C49   O1    S    
C10   C70   A    
C75   N23   A    
C59   H27   S    
C32   H8    S    
N9    N17   A    
N17   Ni3   S    
N4    Ni2   S    
C26   C30   A    
N19   Ni4   S    
C55   C57   D    
C8    C80   A    
C14   C22   S    
C2    N2    A    
C94   H67   S    
C111  H109  S    
C60   H28   S    
C104  H91   S    
C90   H56   S    
C66   N14   A    
C9    C69   A    
C5    C77   A    
C100  H82   S    
N8    Ni4   S    
C32   C36   A    
C62   H34   S    
N15   Ni8   S    
C18   C50   S    
C7    C79   A    
C15   C75   A    
C102  H85   S    
N14   Ni5   S    
C53   H21   S    
C41   H13   S    
C12   C64   A    
O4    C95   S    
N13   Ni6   S    
C84   H48   S    
C106  H97   S    
C1    H1    S    
C46   N6    A    
N10   N18   A    
C89   H54   S    
C55   H23   S    
N1    N29   A    
C16   C76   A    
N14   N22   A    
C49   H17   S    
C84   C88   A    
C67   O7    S    
C13   C73   A    
C93   H64   S    
C26   H50   S    
C97   C98   S    
C44   C52   S    
C4    N4    A    
C109  H104  S    
C81   H45   S    
C109  H103  S    
C15   C67   A    
C67   N15   A    
C17   C37   A    
C98   H76   S    
N28   Ni7   S    
C71   N19   A    
N4    N32   A    
C77   N25   A    
C90   H55   S    
C72   N20   A    
C6    C33   S    
N2    N30   A    
C54   C60   D    
C108  H102  S    
N15   N23   A    
C104  H92   S    
C107  H98   S    
C36   C38   A    
N16   N24   A    
C18   C38   A    
N3    N31   A    
C101  H83   S    
C30   H6    S    
C110  H106  S    
C64   H36   S    
C25   C29   A    
C82   C86   A    
C44   H12   S    
C24   C26   A    
N32   Ni8   S    
C56   C85   S    
C54   C87   S    
C5    C45   A    
C61   N9    A    
C55   C86   S    
C31   H7    S    
C43   C51   S    
C48   N8    A    
C31   C35   A    
C15   C23   S    
C100  H81   S    
C56   C58   D    
C2    C86   A    
C53   C88   S    
C97   H74   S    
C23   C25   A    
C65   N13   A    
C78   H42   S    
O2    C91   S    
C12   C72   A    
C110  H107  S    
O8    C103  S    
C74   O10   S    
C1    N1    A    
C58   H26   S    
C20   C52   S    
C38   C42   S    
C19   C51   S    
N18   Ni3   S    
C40   C44   S    
C52   H20   S    
C51   H19   S    
C92   H60   S    
C47   N7    A    
C39   C43   S    
C108  H101  S    
C50   H18   S    
C79   N27   A    
C96   H71   S    
C111  H108  S    
C34   C40   A    
C22   C28   A    
N3    Ni2   S    
C70   N18   A    
C11   C57   S    
C95   H69   S    
C68   N16   A    
C99   H78   S    
C56   H24   S    
C4    C88   A    
C81   C85   A    
N11   N19   A    
N30   Ni6   S    
C105  C106  S    
C112  H110  S    
