data_mof_unit_44381.cif
_audit_creation_date              2013-03-05T16:11:51-0500
_audit_creation_method            fapswitch 2.2
_symmetry_space_group_name_H-M    P1
_symmetry_Int_Tables_number       1
_space_group_crystal_system       triclinic
_cell_length_a                    10.728331
_cell_length_b                    9.412909
_cell_length_c                    23.511582
_cell_angle_alpha                 90.283655
_cell_angle_beta                  90.160444
_cell_angle_gamma                 90.010095
_cell_volume                      2374.27403795

loop_
_atom_site_label
_atom_site_type_symbol
_atom_site_description
_atom_site_fract_x
_atom_site_fract_y
_atom_site_fract_z
_atom_type_partial_charge
O1    O     O_R   0.317570 0.620260 0.500030 -0.595309
O2    O     O_R   0.317570 0.379740 0.500030 -0.594110
C1    C     C_R   0.259648 0.500196 0.500211 0.760139
O3    O     O_R   0.499840 0.620290 0.417900 -0.590615
O4    O     O_R   0.499840 0.379710 0.417900 -0.590204
C2    C     C_R   0.500004 0.499604 0.390909 0.805182
Cu1   Cu    Cu3+1 0.499860 0.642410 0.500030 0.895153
Cu2   Cu    Cu3+1 0.499860 0.357590 0.500030 0.893858
O5    O     O_R   0.682190 0.620260 0.500010 -0.596403
O6    O     O_R   0.682190 0.379740 0.500010 -0.597432
O7    O     O_R   0.499920 0.620230 0.582140 -0.578893
O8    O     O_R   0.499920 0.379770 0.582140 -0.591175
C3    C     C_R   0.740113 0.500217 0.500152 0.764376
C4    C     C_R   0.498199 0.500196 0.608959 0.816013
C5    C     C_R   0.605576 0.530427 0.880054 0.538331
N1    N     N_R   0.502360 0.481549 0.851613 -0.464173
C6    C     C_R   0.400157 0.432041 0.880181 0.535476
C7    C     C_R   0.398397 0.432176 0.939842 -0.015178
C8    C     C_R   0.503406 0.483014 0.969730 -0.017919
C9    C     C_R   0.608338 0.531898 0.939728 -0.015836
C10   C     C_R   0.294244 0.383600 0.970180 -0.162737
C11   C     C_R   0.294070 0.386185 0.029513 -0.162212
C12   C     C_R   0.398115 0.437212 0.059749 -0.014053
C13   C     C_R   0.503256 0.485563 0.029764 -0.017404
C14   C     C_R   0.608080 0.536885 0.059664 -0.014140
C15   C     C_R   0.712517 0.584674 0.029321 -0.161808
C16   C     C_R   0.712623 0.582265 0.969976 -0.162639
C17   C     C_R   0.399741 0.441682 0.119397 0.532081
N2    N     N_R   0.502456 0.491827 0.147858 -0.469729
C18   C     C_R   0.605621 0.538808 0.119335 0.532496
O9    O     O_2   0.704467 0.579215 0.850660 -0.538988
O10   O     O_2   0.300736 0.382574 0.850890 -0.539174
H1    H     H_    0.212373 0.343945 0.948207 0.189833
H2    H     H_    0.212115 0.348320 0.051563 0.190256
O11   O     O_2   0.299192 0.397362 0.148764 -0.537847
O12   O     O_2   0.705785 0.586119 0.148661 -0.537758
H3    H     H_    0.794353 0.624413 0.051296 0.190276
H4    H     H_    0.794497 0.620341 0.947922 0.189690
C19   C     C_R   0.502033 0.623923 0.238322 -0.100974
H5    H     H_    0.501996 0.723067 0.215157 0.140762
C20   C     C_R   0.501261 0.626044 0.297655 -0.228492
H6    H     H_    0.501052 0.727639 0.319459 0.144243
C21   C     C_R   0.500690 0.498125 0.328265 -0.044030
C22   C     C_R   0.501069 0.368284 0.298432 -0.226926
H7    H     H_    0.500876 0.268003 0.320794 0.144493
C23   C     C_R   0.501823 0.366483 0.239165 -0.101966
H8    H     H_    0.502373 0.265803 0.216678 0.140353
C24   C     C_R   0.502225 0.494165 0.208880 0.357629
C25   C     C_R   0.417541 0.578303 0.762886 -0.096658
H9    H     H_    0.356031 0.644584 0.788082 0.146275
C26   C     C_R   0.414735 0.585640 0.703368 0.137798
C27   C     C_R   0.497099 0.499158 0.671419 -0.047201
C28   C     C_R   0.577622 0.405230 0.699646 -0.281831
H10   H     H_    0.640244 0.337301 0.675750 0.149279
C29   C     C_R   0.579409 0.399252 0.758813 -0.098489
H11   H     H_    0.642618 0.327003 0.780018 0.153675
C30   C     C_R   0.499798 0.486130 0.790619 0.308008
C31   C     C_3   0.071293 0.655683 0.501862 -0.374196
C32   C     C_3   0.072061 0.421339 0.553242 -0.374996
H12   H     H_    0.105137 0.715625 0.464215 0.161558
H13   H     H_    0.106315 0.309714 0.553277 0.164021
H14   H     H_    0.105769 0.711820 0.540645 0.162867
H15   H     H_    0.107053 0.473223 0.592794 0.153515
C33   C     C_3   0.928605 0.655705 0.501835 -0.376642
C34   C     C_3   0.928168 0.421432 0.553236 -0.377693
H16   H     H_    0.894695 0.711807 0.540626 0.161301
H17   H     H_    0.893548 0.473516 0.592757 0.156327
H18   H     H_    0.894339 0.715716 0.464199 0.161460
H19   H     H_    0.893809 0.309838 0.553300 0.159550
H20   H     H_    0.106107 0.482348 0.407430 0.158239
H21   H     H_    0.105839 0.315057 0.443710 0.161401
H22   H     H_    0.892558 0.482226 0.407400 0.158626
H23   H     H_    0.893253 0.314999 0.443737 0.161158
C35   C     C_3   0.071498 0.426537 0.445915 -0.374257
C36   C     C_3   0.121700 0.500913 0.500324 0.156730
C37   C     C_3   0.878057 0.500951 0.500285 0.159226
C38   C     C_3   0.927622 0.426501 0.445906 -0.375994
C39   C     C_3   0.627171 0.083591 0.492608 -0.188002
C40   C     C_3   0.627190 0.916269 0.492681 -0.187191
H24   H     H_    0.690707 0.122030 0.526848 0.137185
H25   H     H_    0.690551 0.878933 0.527020 0.138657
H26   H     H_    0.666150 0.122390 0.451716 0.139006
H27   H     H_    0.666387 0.876282 0.451865 0.138886
H28   H     H_    0.512258 0.121605 0.591681 0.148838
H29   H     H_    0.512133 0.880380 0.591496 0.148760
C41   C     C_3   0.453043 0.084397 0.555701 -0.179866
C42   C     C_3   0.452873 0.916955 0.555607 -0.193739
C43   C     C_3   0.419915 0.083201 0.455374 -0.186809
C44   C     C_3   0.420099 0.915761 0.455301 -0.184087
N3    N     N_3   0.500250 0.143650 0.501250 -0.114946
N4    N     N_3   0.500250 0.856350 0.501250 -0.112468
H30   H     H_    0.322689 0.122188 0.460250 0.137972
H31   H     H_    0.322931 0.876545 0.459969 0.137292
H32   H     H_    0.452336 0.120696 0.413207 0.140144
H33   H     H_    0.452917 0.877770 0.413123 0.140330
H34   H     H_    0.357248 0.124560 0.564027 0.140169
H35   H     H_    0.356782 0.877499 0.563551 0.139361
C45   C     C_3   0.321545 0.682369 0.675297 -0.866089
H36   H     H_    0.270392 0.624632 0.641154 0.217896
H37   H     H_    0.251700 0.722991 0.706187 0.233675
H38   H     H_    0.370712 0.774977 0.657180 0.229455

loop_
_geom_bond_atom_site_label_1
_geom_bond_atom_site_label_2
_geom_bond_distance
_ccdc_geom_bond_type
C31   H14   1.113900 S    
C29   H11   1.082845 S    
C42   N4    1.487827 S    
C7    C10   1.404966 A    
C20   H6    1.082809 S    
C8    C9    1.408580 A    
Cu1   Cu2   2.680984 S    
C19   C20   1.395104 A    
C28   H10   1.083772 S    
C39   N3    1.488508 S    
Cu1   O7    1.942816 S    
C15   C16   1.395382 A    
H22   C38   1.113159 S    
C34   C37   1.550741 S    
C33   H18   1.113743 S    
C17   N2    1.370204 A    
H28   C41   1.111684 S    
O4    C2    1.297474 A    
O7    C4    1.296782 A    
C39   H24   1.112472 S    
C10   H1    1.083118 S    
C16   H4    1.083111 S    
C31   H12   1.113710 S    
C5    N1    1.370267 A    
C25   C30   1.399755 A    
C7    C8    1.408554 A    
O5    C3    1.289666 A    
C4    C27   1.468707 S    
C43   H30   1.111840 S    
C17   O11   1.349555 S    
N1    C6    1.370255 A    
C25   C26   1.401658 A    
C35   C38   1.543552 S    
H20   C35   1.113164 S    
C12   C13   1.408541 A    
C44   N4    1.490042 S    
C1    C36   1.479973 S    
C40   N4    1.488537 S    
C26   C45   1.505566 S    
H29   C42   1.111166 S    
C10   C11   1.395116 A    
C20   C21   1.405856 A    
O3    Cu1   1.941176 S    
C22   C23   1.393529 A    
C31   C36   1.554351 S    
C43   H32   1.110770 S    
C28   C29   1.392605 A    
C31   C33   1.530808 S    
C5    C9    1.403271 A    
C11   H2    1.083114 S    
C23   C24   1.399991 A    
C32   H13   1.113190 S    
C35   C36   1.550416 S    
N2    C24   1.434793 S    
C26   C27   1.416208 A    
C37   C38   1.550347 S    
O3    C2    1.298491 A    
C41   N3    1.489018 S    
C19   H5    1.082864 S    
C40   H25   1.112313 S    
C39   C40   1.574996 S    
C34   H17   1.113194 S    
C14   C15   1.405044 A    
O1    C1    1.289663 A    
C33   H16   1.113633 S    
C44   H33   1.110720 S    
C21   C22   1.406156 A    
N2    C18   1.370115 A    
O4    Cu2   1.943225 S    
C39   H26   1.112787 S    
C3    C37   1.479926 S    
Cu2   O8    1.940760 S    
Cu1   N4    2.013863 S    
C6    C7    1.402899 A    
C33   C37   1.554486 S    
C12   C17   1.402899 A    
C13   C14   1.408648 A    
C41   H34   1.112645 S    
C43   N3    1.489471 S    
C45   H36   1.110876 S    
C45   H37   1.111556 S    
C2    C21   1.472893 S    
C29   C30   1.398302 A    
Cu2   N3    2.014149 S    
C32   C36   1.550946 S    
C22   H7    1.082760 S    
C41   C42   1.576113 S    
C14   C18   1.403302 A    
Cu1   O5    1.967215 S    
C23   H8    1.082923 S    
O1    Cu1   1.966712 S    
O2    Cu2   1.966785 S    
O8    C4    1.294566 A    
O6    C3    1.293025 A    
H21   C35   1.113219 S    
C15   H3    1.083111 S    
C5    O9    1.349504 S    
C9    C16   1.405090 A    
C45   H38   1.106492 S    
C32   H15   1.112523 S    
C18   O12   1.349488 S    
O2    C1    1.293049 A    
C32   C34   1.543733 S    
C40   H27   1.112732 S    
C34   H19   1.113173 S    
C8    C13   1.411576 A    
N1    C30   1.435123 S    
C44   H31   1.111720 S    
C43   C44   1.576087 S    
Cu2   O6    1.967143 S    
C25   H9    1.083654 S    
C6    O10   1.349560 S    
H23   C38   1.113261 S    
C11   C12   1.404993 A    
C27   C28   1.404013 A    
C19   C24   1.400947 A    
C42   H35   1.112299 S    
