data_mof_unit_18883.cif
_audit_creation_date              2013-03-05T15:41:32-0500
_audit_creation_method            fapswitch 2.2
_symmetry_space_group_name_H-M    P1
_symmetry_Int_Tables_number       1
_space_group_crystal_system       triclinic
_cell_length_a                    15.89568
_cell_length_b                    8.691814
_cell_length_c                    7.462849
_cell_angle_alpha                 103.00321
_cell_angle_beta                  94.565455
_cell_angle_gamma                 92.468969
_cell_volume                      999.48075377

loop_
_atom_site_label
_atom_site_type_symbol
_atom_site_description
_atom_site_fract_x
_atom_site_fract_y
_atom_site_fract_z
_atom_type_partial_charge
O1    O     O_R   0.506070 0.286130 0.619780 -0.585884
O2    O     O_R   0.493930 0.713870 0.380220 -0.586468
O3    O     O_R   0.490300 0.256770 0.308360 -0.582680
O4    O     O_R   0.509700 0.743230 0.691640 -0.581466
C1    C     C_R   0.497432 0.199730 0.453241 0.884665
C2    C     C_R   0.502519 0.800267 0.546760 0.886395
O5    O     O_R   0.386960 0.514660 0.655680 -0.590399
O6    O     O_R   0.613040 0.485340 0.344320 -0.584968
O7    O     O_R   0.371190 0.485310 0.344260 -0.574166
O8    O     O_R   0.628810 0.514690 0.655740 -0.565508
C3    C     C_R   0.340181 0.498895 0.501522 0.815449
C4    C     C_R   0.659834 0.501038 0.498518 0.819060
Cu1   Cu    Cu3+1 0.509330 0.517380 0.684380 0.973449
Cu2   Cu    Cu3+1 0.490670 0.482620 0.315620 0.968762
C5    C     C_2   0.496188 0.031794 0.427021 -0.354714
C6    C     C_2   0.503699 0.968198 0.572981 -0.353089
C7    C     C_3   0.967109 0.363564 0.536330 0.306022
C8    C     C_3   0.032465 0.630745 0.470478 0.350928
C9    C     C_3   0.019352 0.375052 0.372572 0.129675
C10   C     C_3   0.980295 0.618241 0.632421 0.228435
C11   C     C_1   0.251106 0.496324 0.504354 -0.167409
C12   C     C_1   0.748949 0.502395 0.496240 -0.134675
C13   C     C_3   0.031578 0.481430 0.671029 0.306985
C14   C     C_3   0.967290 0.512992 0.336464 0.290665
C15   C     C_3   0.084692 0.493130 0.507854 -0.250661
C16   C     C_3   0.915482 0.502151 0.500059 -0.215366
N1    N     N_2   0.476600 0.456420 0.038510 -0.217731
N2    N     N_2   0.523400 0.543580 0.961490 -0.213910
H1    H     H_    0.489110 0.960130 0.286390 0.180906
H2    H     H_    0.510770 0.039862 0.713613 0.181452
C17   C     C_1   0.175921 0.494092 0.505436 0.078084
C18   C     C_1   0.824213 0.503257 0.497835 0.148411
H3    H     H_    0.434251 0.377126 0.948485 0.226449
H4    H     H_    0.565731 0.622903 0.051522 0.233650
N3    N     N_R   0.039017 0.236528 0.234884 0.135535
O9    O     O_R   0.979302 0.129475 0.158520 -0.307822
O10   O     O_R   0.117216 0.207000 0.209546 -0.390215
N4    N     N_R   0.962039 0.754150 0.774716 0.164947
O11   O     O_R   0.023827 0.849196 0.867329 -0.320121
O12   O     O_R   0.884517 0.782398 0.808586 -0.334648
O13   O     O_3   0.926649 0.224177 0.564058 -0.573042
C19   C     C_3   0.987211 0.125198 0.616414 -0.033105
H5    H     H_    0.010107 0.167445 0.764456 0.195489
H6    H     H_    0.041589 0.113524 0.530379 0.174560
H7    H     H_    0.956195 0.005405 0.598110 0.235398
O14   O     O_3   0.065544 0.780057 0.454717 -0.584050
C20   C     C_3   0.099596 0.767098 0.283972 -0.093755
H8    H     H_    0.048596 0.747638 0.169677 0.271366
H9    H     H_    0.145022 0.672793 0.257842 0.124178
H10   H     H_    0.134696 0.880625 0.285785 0.194821
O15   O     O_3   0.934239 0.544555 0.167918 -0.542205
C21   C     C_3   0.884421 0.413055 0.060786 -0.052973
H11   H     H_    0.844155 0.353200 0.143189 0.135959
H12   H     H_    0.925135 0.327618 0.981649 0.219646
H13   H     H_    0.841671 0.454323 0.958836 0.180045
O16   O     O_3   0.053036 0.470920 0.855263 -0.553229
C22   C     C_3   0.138661 0.441075 0.882640 -0.244107
H14   H     H_    0.151011 0.420444 0.023189 0.217267
H15   H     H_    0.179812 0.546016 0.876420 0.169493
H16   H     H_    0.154732 0.332787 0.783244 0.160220

loop_
_geom_bond_atom_site_label_1
_geom_bond_atom_site_label_2
_geom_bond_distance
_ccdc_geom_bond_type
C10   N4    1.456517 S    
C15   C17   1.451373 S    
O5    C3    1.295894 A    
O7    Cu2   1.928586 S    
C19   H6    1.111879 S    
Cu1   N2    2.022048 S    
C16   C18   1.450035 S    
C4    C12   1.417571 S    
Cu2   N1    2.022047 S    
O7    C3    1.291918 A    
O13   C19   1.407938 S    
N3    O9    1.300272 A    
C7    C13   1.546720 S    
C21   H13   1.109425 S    
O6    C4    1.296326 A    
O3    C1    1.286182 A    
C14   O15   1.412774 S    
C9    C14   1.546073 S    
N2    H4    1.029149 S    
C13   O16   1.414082 S    
C20   H9    1.110303 S    
C9    N3    1.459467 S    
Cu1   Cu2   2.690899 S    
N1    H3    1.029167 S    
N4    O12   1.300139 A    
C11   C17   1.195149 T    
C22   H14   1.107148 S    
O2    C2    1.292836 A    
O3    Cu2   1.951310 S    
C12   C18   1.195172 T    
C8    C14   1.550529 S    
C7    C16   1.547332 S    
O8    C4    1.291688 A    
C7    C9    1.549993 S    
C21   H12   1.106337 S    
O8    Cu1   1.928586 S    
C5    H1    1.087705 S    
C20   H10   1.109287 S    
C8    C10   1.539808 S    
C13   C15   1.555012 S    
N4    O11   1.299967 A    
O2    Cu2   1.956047 S    
C8    C15   1.548082 S    
O1    C1    1.292841 A    
C1    C5    1.427471 S    
C7    O13   1.411070 S    
C22   H15   1.111070 S    
C19   H5    1.108965 S    
C9    C15   1.557651 S    
C2    C6    1.427472 S    
C5    C6    1.327501 D    
C20   H8    1.107503 S    
C8    O14   1.412202 S    
O5    Cu1   1.938427 S    
O1    Cu1   1.956047 S    
C21   H11   1.111959 S    
O4    C2    1.286185 A    
N1    N2    1.293520 D    
O16   C22   1.404122 S    
O14   C20   1.407067 S    
C22   H16   1.112690 S    
O6    Cu2   1.938427 S    
N3    O10   1.299934 A    
C10   C13   1.536837 S    
C6    H2    1.087704 S    
C3    C11   1.417025 S    
O15   C21   1.408080 S    
O4    Cu1   1.951310 S    
C14   C16   1.543616 S    
C10   C16   1.534661 S    
C19   H7    1.107657 S    
