data_mof_unit_43300.cif
_audit_creation_date              2012-12-10T18:10:49-0500
_audit_creation_method            fapswitch 2.2
_symmetry_space_group_name_H-M    P1
_symmetry_Int_Tables_number       1
_space_group_crystal_system       triclinic
_cell_length_a                    12.612621
_cell_length_b                    13.219244
_cell_length_c                    15.733449
_cell_angle_alpha                 90.649414
_cell_angle_beta                  102.722161
_cell_angle_gamma                 82.530601
_cell_volume                      2536.70674471

loop_
_atom_site_label
_atom_site_type_symbol
_atom_type_description
_atom_site_fract_x
_atom_site_fract_y
_atom_site_fract_z
_atom_type_partial_charge
C1    C     C_R   0.439075 0.691069 0.488427 0.855361
C2    C     C_3   0.382964 0.525674 0.026921 -0.403103
C3    C     C_3   0.500211 0.496322 0.082750 0.325036
C4    C     C_3   0.546109 0.388545 0.057525 -0.386005
C5    C     C_3   0.548307 0.387272 0.959353 -0.041499
C6    C     C_1   0.497835 0.497180 0.173861 -0.115013
C7    C     C_1   0.504937 0.498160 0.826581 -0.130104
C8    C     C_1   0.503744 0.499475 0.750996 -0.189181
C9    C     C_R   0.714260 0.059591 0.467801 -0.206068
C10   C     C_R   0.597777 0.200713 0.510716 -0.041971
C11   C     C_R   0.313573 0.831364 0.528406 -0.248387
C12   C     C_R   0.501033 0.500224 0.661532 0.909363
C13   C     C_R   0.306437 0.924550 0.569235 -0.136882
C14   C     C_R   0.387427 0.988022 0.572896 0.103048
C15   C     C_R   0.468292 0.965214 0.521338 0.034322
C16   C     C_R   0.474571 0.869772 0.479903 0.065122
C17   C     C_R   0.544441 0.031428 0.510176 0.075947
C18   C     C_R   0.635414 0.995704 0.473380 0.180629
C19   C     C_R   0.640282 0.900973 0.434542 -0.251238
C20   C     C_R   0.556288 0.842598 0.431886 -0.186797
C21   C     C_R   0.524667 0.135354 0.523443 -0.286102
C22   C     C_R   0.696222 0.162237 0.487944 -0.203715
C23   C     C_R   0.560953 0.309167 0.509515 0.857400
C24   C     C_R   0.403069 0.800117 0.491210 -0.109633
C25   C     C_R   0.088511 0.344617 0.382209 -0.309489
C26   C     C_R   0.799290 0.631306 0.600575 0.026431
C27   C     C_R   0.903512 0.660752 0.620990 -0.255601
C28   C     C_R   0.985079 0.611171 0.582830 -0.199086
C29   C     C_R   0.962453 0.531280 0.523760 0.017202
C30   C     C_R   0.854700 0.504177 0.505201 0.235147
C31   C     C_R   0.041814 0.477599 0.482386 -0.015501
C32   C     C_R   0.011775 0.398406 0.423601 0.195418
C33   C     C_R   0.905539 0.373427 0.406708 -0.297443
C34   C     C_R   0.499034 0.499672 0.338481 0.889281
C35   C     C_R   0.828336 0.425611 0.446975 -0.211738
C36   C     C_R   0.150561 0.498774 0.496861 -0.050783
C37   C     C_R   0.194457 0.369288 0.399429 0.010575
C38   C     C_3   0.385478 0.524744 0.929253 -0.435041
C39   C     C_3   0.574158 0.576861 0.966225 -0.397373
C40   C     C_3   0.574852 0.573892 0.064344 -0.398749
C41   C     C_1   0.497368 0.498246 0.249179 -0.183383
C42   C     C_3   0.504867 0.496262 0.918173 0.321796
H1    H     H_    0.348650 0.603029 0.044404 0.175514
H2    H     H_    0.332529 0.468882 0.895208 0.169026
H3    H     H_    0.327998 0.471010 0.039821 0.170565
H4    H     H_    0.629749 0.365944 0.098516 0.177187
H5    H     H_    0.705119 0.874965 0.401137 0.148052
H6    H     H_    0.785655 0.031921 0.442358 0.135314
H7    H     H_    0.446645 0.168146 0.534907 0.166233
H8    H     H_    0.257079 0.778759 0.536071 0.159702
H9    H     H_    0.243876 0.942546 0.606462 0.149772
H10   H     H_    0.350716 0.601264 0.899440 0.179384
H11   H     H_    0.557460 0.774149 0.393473 0.162779
H12   H     H_    0.255187 0.328272 0.368371 0.136115
H13   H     H_    0.881848 0.313072 0.362069 0.150875
H14   H     H_    0.066818 0.284050 0.337267 0.142772
H15   H     H_    0.181188 0.556936 0.540405 0.124295
H16   H     H_    0.921007 0.721971 0.666110 0.148536
H17   H     H_    0.748369 0.402737 0.431174 0.210634
H18   H     H_    0.659427 0.564222 0.956390 0.162527
H19   H     H_    0.538490 0.654370 0.939075 0.173260
H20   H     H_    0.545842 0.651423 0.085205 0.170627
H21   H     H_    0.660275 0.552105 0.102245 0.170223
H22   H     H_    0.491694 0.333369 0.926849 0.146548
H23   H     H_    0.493899 0.331595 0.071069 0.149721
N1    N     N_R   0.222200 0.444690 0.455710 -0.102393
N2    N     N_R   0.776960 0.554780 0.543830 -0.131546
O1    O     O_R   0.366740 0.627160 0.478850 -0.616635
O2    O     O_R   0.544830 0.662520 0.507140 -0.616985
O3    O     O_R   0.410920 0.482310 0.608710 -0.614263
O4    O     O_R   0.589010 0.517670 0.637000 -0.613356
O5    O     O_R   0.455170 0.337480 0.492860 -0.621097
O6    O     O_R   0.633260 0.372840 0.521150 -0.637923
O7    O     O_R   0.410990 0.482330 0.363000 -0.609224
O8    O     O_R   0.589080 0.517690 0.391290 -0.635050
Zn1   Zn    Zn3+2 0.381090 0.476390 0.481110 0.937418
Zn2   Zn    Zn3+2 0.618910 0.523610 0.518890 0.928324
H24   H     H_    0.753812 0.212556 0.478012 0.152202
N3    N     N_3   0.395238 0.061839 0.640941 -0.481197
H25   H     H_    0.476167 0.075098 0.665152 0.194880
H26   H     H_    0.343339 0.128914 0.618767 0.181361
H27   H     H_    0.735424 0.669805 0.629771 0.142134
H28   H     H_    0.064400 0.637106 0.600715 0.133488
N4    N     N_3   0.658597 0.347967 0.947801 -0.469131
H29   H     H_    0.658313 0.343162 0.881404 0.192394
H30   H     H_    0.715070 0.396523 0.976111 0.194742

loop_
_geom_bond_atom_site_label_1
_geom_bond_atom_site_label_2
_ccdc_geom_bond_type
C33   H13   S    
C5    C42   S    
O2    Zn2   S    
C19   C20   A    
N2    Zn2   S    
C25   H14   S    
O5    Zn1   S    
C3    C6    S    
C21   H7    S    
C7    C8    T    
C4    H4    S    
C10   C22   A    
C26   C27   A    
C40   H21   S    
O7    Zn1   S    
C30   C35   A    
C26   N2    A    
C28   C29   A    
N4    H30   S    
C38   C42   S    
C4    H23   S    
C36   N1    A    
C9    C22   A    
C38   H10   S    
C15   C16   A    
C11   C24   A    
C1    O1    A    
C40   H20   S    
C35   H17   S    
C18   C19   A    
C7    C42   S    
C25   C37   A    
C13   H9    S    
C6    C41   T    
C30   N2    A    
C16   C20   A    
C34   O8    A    
C25   C32   A    
C26   H27   S    
C13   C14   A    
C28   H28   S    
C34   C41   S    
C23   O6    A    
C39   C42   S    
C10   C21   A    
C39   H19   S    
N4    H29   S    
C22   H24   S    
C36   H15   S    
C39   C40   S    
N3    H26   S    
C5    N4    S    
C4    C5    S    
C1    O2    A    
C5    H22   S    
C38   H2    S    
C29   C30   A    
C2    C38   S    
C31   C32   A    
C2    H1    S    
C8    C12   S    
N1    Zn1   S    
C37   N1    A    
C17   C18   A    
C14   N3    S    
O8    Zn2   S    
C34   O7    A    
C37   H12   S    
C12   O4    A    
C3    C40   S    
O3    Zn1   S    
C3    C4    S    
O4    Zn2   S    
C15   C17   A    
C12   O3    A    
C14   C15   A    
C23   O5    A    
C20   H11   S    
C27   H16   S    
C10   C23   S    
O1    Zn1   S    
C32   C33   A    
C2    C3    S    
C29   C31   A    
C11   H8    S    
C1    C24   S    
C11   C13   A    
C39   H18   S    
C33   C35   A    
C19   H5    S    
C17   C21   A    
C2    H3    S    
N3    H25   S    
C9    C18   A    
C9    H6    S    
C16   C24   A    
C27   C28   A    
O6    Zn2   S    
C31   C36   A    
