data_mof_unit_44263.cif
_audit_creation_date              2012-12-10T18:47:00-0500
_audit_creation_method            fapswitch 2.2
_symmetry_space_group_name_H-M    P1
_symmetry_Int_Tables_number       1
_space_group_crystal_system       triclinic
_cell_length_a                    10.668986
_cell_length_b                    9.843887
_cell_length_c                    15.025207
_cell_angle_alpha                 90.312103
_cell_angle_beta                  89.336818
_cell_angle_gamma                 90.178267
_cell_volume                      1577.87528907

loop_
_atom_site_label
_atom_site_type_symbol
_atom_type_description
_atom_site_fract_x
_atom_site_fract_y
_atom_site_fract_z
_atom_type_partial_charge
C1    C     C_R   0.260521 0.499741 0.500465 0.894053
C2    C     C_R   0.739479 0.500259 0.499535 0.894048
C3    C     C_R   0.388352 0.277951 0.040090 -0.017335
C4    C     C_R   0.611611 0.722079 0.959909 -0.017330
C5    C     C_R   0.063036 0.436674 0.570744 -0.057971
C6    C     C_R   0.936964 0.563325 0.429256 -0.057970
C7    C     C_R   0.933254 0.437991 0.570878 -0.055808
C8    C     C_R   0.066746 0.562009 0.429122 -0.055808
C9    C     C_R   0.871996 0.500834 0.499948 -0.130487
C10   C     C_R   0.128003 0.499166 0.500052 -0.130488
C11   C     C_R   0.596930 0.072554 0.536296 -0.056115
C12   C     C_R   0.403070 0.927446 0.463704 -0.056117
C13   C     C_R   0.402974 0.071243 0.463877 -0.056581
C14   C     C_R   0.597026 0.928756 0.536123 -0.056580
C15   C     C_R   0.495356 0.499632 0.326921 0.898186
C16   C     C_R   0.504647 0.500369 0.673079 0.898187
C17   C     C_R   0.575720 0.604500 0.814857 -0.064732
C18   C     C_R   0.424269 0.395516 0.185143 -0.064739
C19   C     C_R   0.511760 0.501047 0.768816 -0.112289
C20   C     C_R   0.488241 0.498959 0.231183 -0.112286
C21   C     C_R   0.453187 0.395229 0.813620 -0.226172
C22   C     C_R   0.546815 0.604779 0.186380 -0.226177
C23   C     C_R   0.450818 0.393077 0.905105 0.106585
C24   C     C_R   0.549176 0.606937 0.094894 0.106582
C25   C     C_R   0.503925 0.501295 0.953433 0.046333
C26   C     C_R   0.496065 0.498723 0.046566 0.046337
C27   C     C_R   0.565060 0.611204 0.908640 0.021351
C28   C     C_R   0.434921 0.388817 0.091359 0.021357
C29   C     C_R   0.395138 0.282989 0.947985 -0.227814
C30   C     C_R   0.604843 0.717033 0.052014 -0.227818
H1    H     H_    0.408824 0.313494 0.776785 0.181018
H2    H     H_    0.591181 0.686509 0.223215 0.181019
H3    H     H_    0.358191 0.198848 0.909106 0.159635
H4    H     H_    0.641782 0.801178 0.090894 0.159634
H5    H     H_    0.674408 0.127350 0.565498 0.148042
H6    H     H_    0.325592 0.872650 0.434502 0.148042
H7    H     H_    0.325149 0.124984 0.435265 0.153819
H8    H     H_    0.674851 0.875016 0.564735 0.153818
N1    N     N_R   0.500000 0.857200 0.500000 -0.090312
N2    N     N_R   0.500000 0.142800 0.500000 -0.090312
O1    O     O_R   0.316770 0.614620 0.499990 -0.624054
O2    O     O_R   0.683230 0.385380 0.500010 -0.624055
O3    O     O_R   0.683230 0.614620 0.500010 -0.622427
O4    O     O_R   0.316770 0.385380 0.499990 -0.622425
O5    O     O_R   0.499980 0.614680 0.367850 -0.614992
O6    O     O_R   0.500020 0.385320 0.632150 -0.614990
O7    O     O_R   0.500020 0.614680 0.632150 -0.614627
O8    O     O_R   0.499980 0.385320 0.367850 -0.614626
Zn1   Zn    Zn3+2 0.500000 0.653120 0.500000 0.977135
Zn2   Zn    Zn3+2 0.500000 0.346880 0.500000 0.977137
C31   C     C_1   0.662671 0.690354 0.765582 0.206547
N3    N     N_1   0.732517 0.757517 0.725835 -0.202206
C32   C     C_1   0.337323 0.309661 0.234422 0.206544
N4    N     N_1   0.267481 0.242498 0.274173 -0.202200
C33   C     C_1   0.341181 0.152461 0.077524 0.185730
N5    N     N_1   0.303720 0.051335 0.106643 -0.176022
C34   C     C_1   0.658727 0.847591 0.922474 0.185732
N6    N     N_1   0.696142 0.948737 0.893357 -0.176032
C35   C     C_1   0.129098 0.374100 0.643865 0.196281
N7    N     N_1   0.181128 0.323908 0.702196 -0.210631
C36   C     C_1   0.870902 0.625898 0.356134 0.196280
N8    N     N_1   0.818872 0.676088 0.297803 -0.210631
C37   C     C_1   0.863029 0.378926 0.644803 0.175574
N9    N     N_1   0.807117 0.332058 0.703600 -0.189713
C38   C     C_1   0.136971 0.621074 0.355197 0.175577
N10   N     N_1   0.192883 0.667942 0.296400 -0.189714

loop_
_geom_bond_atom_site_label_1
_geom_bond_atom_site_label_2
_ccdc_geom_bond_type
C4    C34   S    
C35   N7    T    
C33   N5    T    
N1    Zn1   S    
C6    C8    A    
C14   H8    S    
C20   C22   A    
O6    Zn2   S    
C1    O4    A    
C26   C28   A    
O5    Zn1   S    
C2    O3    A    
C25   C27   A    
C7    C9    A    
C17   C31   S    
C12   N1    A    
O8    Zn2   S    
C25   C26   A    
C5    C10   A    
O7    Zn1   S    
C32   N4    T    
C21   H1    S    
C7    C37   S    
C34   N6    T    
C11   N2    A    
C22   H2    S    
C15   O8    A    
O2    Zn2   S    
C16   C19   S    
N2    Zn2   S    
C23   C29   A    
C16   O7    A    
C1    O1    A    
C3    C28   A    
C19   C21   A    
C2    O2    A    
C18   C20   A    
C23   C25   A    
C21   C23   A    
C36   N8    T    
C11   C14   A    
C24   C30   A    
C12   H6    S    
C5    C35   S    
C16   O6    A    
C31   N3    T    
C17   C27   A    
C29   H3    S    
C8    C38   S    
C6    C9    A    
C18   C28   A    
C12   C13   A    
C6    C36   S    
C3    C29   A    
C38   N10   T    
C22   C24   A    
O1    Zn1   S    
C5    C7    A    
C30   H4    S    
O3    Zn1   S    
C13   N2    A    
O4    Zn2   S    
C4    C27   A    
C18   C32   S    
C17   C19   A    
C14   N1    A    
C2    C9    S    
C13   H7    S    
C11   H5    S    
C8    C10   A    
C4    C30   A    
C1    C10   S    
C37   N9    T    
C24   C26   A    
C15   C20   S    
C3    C33   S    
C15   O5    A    
