data_mof_unit_57947.cif
_audit_creation_date              2012-12-10T19:21:58-0500
_audit_creation_method            fapswitch 2.2
_symmetry_space_group_name_H-M    P1
_symmetry_Int_Tables_number       1
_space_group_crystal_system       triclinic
_cell_length_a                    8.721955
_cell_length_b                    17.73899
_cell_length_c                    16.462654
_cell_angle_alpha                 90.223228
_cell_angle_beta                  97.679622
_cell_angle_gamma                 90.52284
_cell_volume                      2524.09595436

loop_
_atom_site_label
_atom_site_type_symbol
_atom_type_description
_atom_site_fract_x
_atom_site_fract_y
_atom_site_fract_z
_atom_type_partial_charge
C1    C     C_R   0.501017 0.355715 0.500003 0.853914
C2    C     C_R   0.498363 0.645023 0.500091 0.841472
C3    C     C_1   0.517825 0.967831 0.502079 -0.029811
C4    C     C_1   0.520090 0.035354 0.503865 -0.039149
C5    C     C_R   0.618454 0.539160 0.836866 0.355798
C6    C     C_R   0.385699 0.459334 0.162939 0.358693
C7    C     C_R   0.611207 0.539777 0.750341 -0.134718
C8    C     C_R   0.389422 0.460228 0.249171 -0.130777
C9    C     C_R   0.393043 0.457630 0.735580 0.645543
C10   C     C_R   0.606835 0.542862 0.264818 0.659723
C11   C     C_R   0.390308 0.460374 0.821962 -0.480417
C12   C     C_R   0.608602 0.541614 0.178308 -0.460361
C13   C     C_R   0.503214 0.500927 0.873297 -0.001493
C14   C     C_R   0.496945 0.500747 0.126587 -0.009082
C15   C     C_1   0.501141 0.501480 0.962765 0.041185
C16   C     C_1   0.498676 0.501306 0.037066 0.031882
C17   C     C_R   0.203413 0.499908 0.479222 0.888187
C18   C     C_R   0.796589 0.500000 0.520778 0.868921
C19   C     C_2   0.038011 0.500012 0.467524 -0.365268
C20   C     C_2   0.961995 0.499677 0.532478 -0.374841
C21   C     C_R   0.551060 0.848240 0.572369 -0.277300
C22   C     C_R   0.393397 0.152153 0.461071 -0.267497
C23   C     C_R   0.543165 0.769686 0.573965 0.203230
C24   C     C_R   0.388885 0.230637 0.457324 0.202375
C25   C     C_R   0.496708 0.728770 0.500395 -0.182482
C26   C     C_R   0.509792 0.273470 0.500711 -0.194764
C27   C     C_R   0.453632 0.768923 0.426308 0.163925
C28   C     C_R   0.635827 0.237245 0.547509 0.164525
C29   C     C_R   0.464358 0.848257 0.425932 0.225008
C30   C     C_R   0.642299 0.157944 0.547946 0.268023
C31   C     C_R   0.511777 0.887235 0.499614 0.004948
C32   C     C_R   0.519100 0.115950 0.505124 -0.022781
Cu1   Cu    Cu3+1 0.499990 0.499980 0.580420 0.974929
Cu2   Cu    Cu3+1 0.500010 0.500020 0.419580 0.987850
H1    H     H_    0.978587 0.500486 0.405105 0.201647
H2    H     H_    0.021420 0.499170 0.594899 0.198597
H3    H     H_    0.587120 0.879093 0.628816 0.154874
H4    H     H_    0.298949 0.119282 0.428518 0.156401
H5    H     H_    0.696231 0.571960 0.722561 0.173663
H6    H     H_    0.302004 0.429306 0.276315 0.169658
H7    H     H_    0.300875 0.431129 0.849443 0.156554
H8    H     H_    0.696660 0.572034 0.150968 0.163445
N1    N     N_R   0.499960 0.499970 0.701210 -0.218428
N2    N     N_R   0.500040 0.500030 0.298790 -0.218960
O1    O     O_R   0.499990 0.391240 0.567930 -0.557240
O2    O     O_R   0.500010 0.608760 0.432070 -0.522153
O3    O     O_R   0.500000 0.391270 0.432120 -0.580151
O4    O     O_R   0.500000 0.608730 0.567880 -0.561776
O5    O     O_R   0.274830 0.499990 0.552240 -0.529750
O6    O     O_R   0.725170 0.500010 0.447760 -0.528740
O7    O     O_R   0.274840 0.500020 0.416420 -0.596826
O8    O     O_R   0.725160 0.499980 0.583580 -0.608758
N3    N     N_2   0.585024 0.732539 0.650034 -0.407559
H9    H     H_    0.685383 0.753783 0.682745 0.244990
C33   C     C_3   0.460866 0.727612 0.700031 -0.631003
H10   H     H_    0.499880 0.695005 0.756297 0.229885
H11   H     H_    0.358496 0.698410 0.666004 0.237499
H12   H     H_    0.427243 0.784875 0.718366 0.205227
N4    N     N_2   0.258700 0.266525 0.413056 -0.422113
H13   H     H_    0.154746 0.245305 0.426835 0.245213
C34   C     C_3   0.262660 0.269225 0.325613 -0.684560
H14   H     H_    0.164821 0.303532 0.296339 0.223312
H15   H     H_    0.251842 0.211469 0.298910 0.213231
H16   H     H_    0.372681 0.295380 0.312238 0.237015
N5    N     N_2   0.396584 0.729653 0.352477 -0.394539
H17   H     H_    0.426252 0.753229 0.299584 0.269946
C35   C     C_3   0.234270 0.709715 0.345168 -0.644839
H18   H     H_    0.201924 0.675214 0.288959 0.223307
H19   H     H_    0.162973 0.761497 0.340939 0.218168
H20   H     H_    0.209900 0.675947 0.398734 0.215939
N6    N     N_2   0.758920 0.279809 0.592337 -0.414149
H21   H     H_    0.783054 0.330821 0.566832 0.235048
C36   C     C_3   0.752831 0.284783 0.679610 -0.641785
H22   H     H_    0.646524 0.314406 0.691822 0.225707
H23   H     H_    0.855170 0.316821 0.709468 0.209759
H24   H     H_    0.754497 0.227713 0.707129 0.239252
N7    N     N_2   0.422936 0.888216 0.351434 -0.432078
H25   H     H_    0.354801 0.934634 0.357252 0.254877
C37   C     C_3   0.552012 0.905137 0.307516 -0.721148
H26   H     H_    0.508599 0.930889 0.247581 0.229425
H27   H     H_    0.615067 0.852874 0.295891 0.226927
H28   H     H_    0.633149 0.945509 0.343203 0.232377
N8    N     N_2   0.773384 0.121385 0.591207 -0.414937
H29   H     H_    0.749892 0.070157 0.616477 0.245262
C38   C     C_3   0.906687 0.118863 0.547580 -0.675153
H30   H     H_    0.005475 0.093449 0.587347 0.220843
H31   H     H_    0.941590 0.176545 0.530884 0.244573
H32   H     H_    0.880226 0.084020 0.491096 0.214873
O9    O     O_3   0.734212 0.578484 0.885381 -0.576357
C39   C     C_3   0.872154 0.536622 0.890002 0.048294
H33   H     H_    0.915578 0.535031 0.829405 0.136552
H34   H     H_    0.854280 0.477812 0.910902 0.141314
C40   C     C_3   0.995620 0.573815 0.951631 -0.734988
H35   H     H_    0.956476 0.575392 0.013113 0.248443
H36   H     H_    0.104553 0.541243 0.955599 0.214991
H37   H     H_    0.018522 0.632264 0.932167 0.240417
O10   O     O_3   0.266558 0.422262 0.114639 -0.577577
C41   C     C_3   0.313177 0.347845 0.101023 0.063458
H38   H     H_    0.332411 0.316143 0.159653 0.133315
H39   H     H_    0.421047 0.347123 0.071567 0.139537
C42   C     C_3   0.186369 0.307866 0.043931 -0.799180
H40   H     H_    0.165955 0.337882 0.984408 0.239374
H41   H     H_    0.221456 0.249109 0.032777 0.195130
H42   H     H_    0.077405 0.306547 0.071971 0.248673
O11   O     O_3   0.283366 0.417229 0.683289 -0.553167
C43   C     C_3   0.246736 0.346671 0.715741 0.018585
H43   H     H_    0.157684 0.353945 0.757473 0.136178
H44   H     H_    0.350742 0.318673 0.748832 0.131030
C44   C     C_3   0.178967 0.295105 0.645735 -0.756117
H45   H     H_    0.268451 0.282055 0.606027 0.243229
H46   H     H_    0.137836 0.241569 0.670535 0.210824
H47   H     H_    0.080246 0.322941 0.608349 0.257167
O12   O     O_3   0.717272 0.582307 0.317615 -0.553098
C45   C     C_3   0.755982 0.652975 0.286266 0.046921
H48   H     H_    0.652637 0.682229 0.254275 0.136321
H49   H     H_    0.843949 0.645669 0.243913 0.141030
C46   C     C_3   0.827173 0.702770 0.357030 -0.787572
H50   H     H_    0.928546 0.674451 0.391396 0.243975
H51   H     H_    0.864398 0.757530 0.333313 0.191354
H52   H     H_    0.741668 0.713470 0.399627 0.251701

loop_
_geom_bond_atom_site_label_1
_geom_bond_atom_site_label_2
_ccdc_geom_bond_type
C33   H10   S    
C40   H35   S    
C27   C29   A    
Cu1   O1    S    
C36   H22   S    
C19   C20   D    
C17   O7    A    
C45   H48   S    
C18   O8    A    
N3    H9    S    
C2    O2    A    
Cu1   O8    S    
C21   C31   A    
Cu2   O7    S    
C42   H40   S    
C22   C32   A    
C24   C26   A    
C44   H46   S    
C43   H43   S    
C9    O11   S    
C15   C16   T    
C22   H4    S    
O10   C41   S    
C18   C20   S    
C30   N8    S    
C34   H15   S    
C12   H8    S    
N5    C35   S    
Cu2   O2    S    
C7    N1    A    
C5    C13   A    
N7    H25   S    
N7    C37   S    
C9    N1    A    
N4    H13   S    
C40   H36   S    
C36   H23   S    
C23   N3    S    
C5    C7    A    
N3    C33   S    
C21   C23   A    
Cu2   O6    S    
N4    C34   S    
C38   H31   S    
C10   N2    A    
C35   H18   S    
Cu1   N1    S    
C6    O10   S    
Cu2   N2    S    
C44   H47   S    
C17   O5    A    
C37   H27   S    
C1    O3    A    
C6    C8    A    
C2    O4    A    
C38   H30   S    
C35   H19   S    
C34   H16   S    
C27   N5    S    
C6    C14   A    
C39   H34   S    
N8    H29   S    
Cu1   Cu2   S    
C29   N7    S    
C33   H11   S    
C3    C31   S    
C9    C11   A    
C4    C32   S    
C10   O12   S    
C10   C12   A    
N8    C38   S    
C12   C14   A    
C41   H38   S    
C40   H37   S    
C41   H39   S    
C13   C15   S    
C1    C26   S    
C36   H24   S    
C14   C16   S    
C46   H52   S    
C28   N6    S    
C25   C27   A    
C3    C4    T    
C18   O6    A    
C39   C40   S    
N6    C36   S    
O12   C45   S    
C38   H32   S    
C8    N2    A    
C37   H28   S    
C45   H49   S    
C42   H42   S    
C41   C42   S    
O11   C43   S    
C26   C28   A    
C35   H20   S    
C46   H51   S    
N6    H21   S    
C29   C31   A    
C19   H1    S    
C46   H50   S    
C30   C32   A    
C11   C13   A    
C1    O1    A    
C39   H33   S    
C43   H44   S    
C24   N4    S    
C28   C30   A    
C17   C19   S    
C11   H7    S    
C2    C25   S    
C22   C24   A    
C23   C25   A    
C34   H14   S    
C45   C46   S    
C37   H26   S    
C20   H2    S    
C21   H3    S    
C42   H41   S    
N5    H17   S    
C33   H12   S    
Cu1   O4    S    
C7    H5    S    
Cu2   O3    S    
C8    H6    S    
O9    C39   S    
C44   H45   S    
Cu1   O5    S    
C5    O9    S    
C43   C44   S    
