data_mof_unit_33137.cif
_audit_creation_date              2012-12-11T16:28:29-0500
_audit_creation_method            fapswitch 2.2
_symmetry_space_group_name_H-M    P1
_symmetry_Int_Tables_number       1
_space_group_crystal_system       triclinic
_cell_length_a                    16.600379
_cell_length_b                    7.250988
_cell_length_c                    15.199825
_cell_angle_alpha                 91.685392
_cell_angle_beta                  94.37468
_cell_angle_gamma                 91.301618
_cell_volume                      1822.89852851

loop_
_atom_site_label
_atom_site_type_symbol
_atom_type_description
_atom_site_fract_x
_atom_site_fract_y
_atom_site_fract_z
_atom_type_partial_charge
O1    O     O_R   0.663460 0.361760 0.165970 -0.521146
O2    O     O_R   0.336540 0.638240 0.834030 -0.521146
O3    O     O_R   0.836540 0.861760 0.334030 -0.530200
O4    O     O_R   0.163460 0.138240 0.665970 -0.530200
O5    O     O_R   0.827100 0.689870 0.163730 -0.527891
O6    O     O_R   0.172900 0.310130 0.836270 -0.527891
O7    O     O_R   0.672900 0.189870 0.336270 -0.515942
O8    O     O_R   0.327100 0.810130 0.663730 -0.515941
C1    C     C_R   0.853510 0.523011 0.143972 0.741126
C2    C     C_R   0.146490 0.476989 0.856028 0.741126
C3    C     C_R   0.646668 0.023097 0.356407 0.740301
C4    C     C_R   0.353332 0.976903 0.643593 0.740300
O9    O     O_R   0.663490 0.691370 0.155500 -0.530441
O10   O     O_R   0.336510 0.308630 0.844500 -0.530441
O11   O     O_R   0.836510 0.191370 0.344500 -0.521547
O12   O     O_R   0.163490 0.808630 0.655500 -0.521547
O13   O     O_R   0.671770 0.863320 0.325740 -0.527824
O14   O     O_R   0.328230 0.136680 0.674260 -0.527824
O15   O     O_R   0.828230 0.363320 0.174260 -0.514215
O16   O     O_R   0.171770 0.636680 0.825740 -0.514215
C5    C     C_R   0.636626 0.518815 0.132945 0.736553
C6    C     C_R   0.363374 0.481185 0.867055 0.736553
C7    C     C_R   0.863526 0.026590 0.367672 0.735379
C8    C     C_R   0.136473 0.973410 0.632328 0.735379
O17   O     O_3   0.752910 0.528800 0.305860 -0.358857
O18   O     O_3   0.247090 0.471200 0.694140 -0.358857
O19   O     O_3   0.747090 0.028800 0.194140 -0.356178
O20   O     O_3   0.252910 0.971200 0.805860 -0.356178
V1    V     V_3+5 0.749460 0.803010 0.239640 1.569496
V2    V     V_3+5 0.250540 0.196990 0.760360 1.569496
V3    V     V_3+5 0.750540 0.303010 0.260360 1.596067
V4    V     V_3+5 0.249460 0.696990 0.739640 1.596067
C9    C     C_1   0.468852 0.994543 0.530115 0.098450
C10   C     C_1   0.531148 0.005457 0.469885 0.098450
C11   C     C_1   0.031072 0.494710 0.969760 0.101087
C12   C     C_1   0.968928 0.505290 0.030240 0.101087
C13   C     C_R   0.036557 0.034548 0.319401 0.076209
C14   C     C_R   0.963443 0.965452 0.680599 0.076209
C15   C     C_R   0.464435 0.484581 0.181916 0.075130
C16   C     C_R   0.535565 0.515419 0.818084 0.075130
C17   C     C_R   0.117581 0.040186 0.301049 -0.117825
C18   C     C_R   0.882419 0.959814 0.698951 -0.117825
C19   C     C_R   0.383694 0.463920 0.200189 -0.119315
C20   C     C_R   0.616306 0.536080 0.799811 -0.119315
C21   C     C_R   0.177367 0.986900 0.362389 0.207534
C22   C     C_R   0.822633 0.013100 0.637610 0.207534
C23   C     C_R   0.322075 0.495564 0.136694 0.210011
C24   C     C_R   0.677925 0.504436 0.863306 0.210011
C25   C     C_R   0.155990 0.925127 0.443696 0.062763
C26   C     C_R   0.844010 0.074873 0.556304 0.062764
C27   C     C_R   0.341353 0.548155 0.053197 0.058820
C28   C     C_R   0.658647 0.451845 0.946803 0.058820
C29   C     C_R   0.078926 0.968524 0.473417 -0.021983
C30   C     C_R   0.921074 0.031476 0.526583 -0.021983
C31   C     C_R   0.419960 0.515690 0.025433 -0.021018
C32   C     C_R   0.580040 0.484310 0.974567 -0.021018
C33   C     C_R   0.015048 0.010031 0.408339 0.016296
C34   C     C_R   0.984952 0.989969 0.591661 0.016296
C35   C     C_R   0.485136 0.499701 0.092072 0.014746
C36   C     C_R   0.514863 0.500299 0.907928 0.014747
C37   C     C_R   0.065395 0.971261 0.565196 -0.107994
C38   C     C_R   0.934605 0.028739 0.434804 -0.107994
C39   C     C_R   0.433901 0.502903 0.933912 -0.108034
C40   C     C_R   0.566099 0.497097 0.066088 -0.108034
C41   C     C_1   0.416016 0.985753 0.581483 -0.088492
C42   C     C_1   0.583983 0.014247 0.418517 -0.088493
C43   C     C_1   0.083808 0.486098 0.918219 -0.084448
C44   C     C_1   0.916192 0.513902 0.081781 -0.084448
I1    I     I_    0.215980 0.679562 0.482520 -0.282375
I2    I     I_    0.784019 0.320437 0.517480 -0.282375
I3    I     I_    0.275092 0.778202 0.006136 -0.282370
I4    I     I_    0.724908 0.221798 0.993864 -0.282370
H1    H     H_    0.134184 0.072518 0.235608 0.195467
H2    H     H_    0.865816 0.927481 0.764392 0.195467
H3    H     H_    0.368198 0.438613 0.266780 0.194441
H4    H     H_    0.631802 0.561387 0.733220 0.194441
I5    I     I_    0.702553 0.020511 0.677272 -0.326636
I6    I     I_    0.297447 0.979489 0.322728 -0.326635
I7    I     I_    0.798203 0.510549 0.824306 -0.327621
I8    I     I_    0.201797 0.489451 0.175694 -0.327621
I9    I     I_    0.961790 0.061778 0.200657 -0.318172
I10   I     I_    0.038210 0.938222 0.799343 -0.318171
I11   I     I_    0.539569 0.497370 0.302045 -0.319355
I12   I     I_    0.460431 0.502630 0.697955 -0.319355

loop_
_geom_bond_atom_site_label_1
_geom_bond_atom_site_label_2
_ccdc_geom_bond_type
O17   V3    S    
O1    C5    A    
C8    C37   S    
C16   C36   A    
C31   C35   A    
O19   V1    S    
O13   V1    S    
C16   I12   S    
O3    C7    A    
C11   C12   S    
O15   V3    S    
C10   C42   T    
C9    C41   T    
C33   C38   A    
C2    C43   S    
O7    C3    A    
C35   C40   A    
C26   C30   A    
C36   C39   A    
C24   I7    S    
O9    V1    S    
C14   C18   A    
O16   V4    S    
O4    C8    A    
O1    V3    S    
O2    V4    S    
C18   C22   A    
O3    V1    S    
C5    C40   S    
C6    C39   S    
C14   C34   A    
C29   C37   A    
C1    O15   A    
C7    C38   S    
C2    O16   A    
C31   C39   A    
O2    C6    A    
C32   C40   A    
C21   I6    S    
O14   V2    S    
C11   C43   T    
C16   C20   A    
C3    C42   S    
C34   C37   A    
O11   C7    A    
O12   C8    A    
C25   I1    S    
C14   I10   S    
C13   I9    S    
C27   I3    S    
C23   I8    S    
O10   V2    S    
O5    V1    S    
C19   H3    S    
C18   H2    S    
O7    V3    S    
O8    V4    S    
C29   C33   A    
O18   V4    S    
C15   C19   A    
C30   C38   A    
C32   C36   A    
O5    C1    A    
C28   I4    S    
C21   C25   A    
O8    C4    A    
C15   C35   A    
C9    C10   S    
O9    C5    A    
O6    V2    S    
C30   C34   A    
C3    O13   A    
O6    C2    A    
C22   I5    S    
C23   C27   A    
C12   C44   T    
O11   V3    S    
O12   V4    S    
C4    C41   S    
C22   C26   A    
O10   C6    A    
O20   V2    S    
C26   I2    S    
C1    C44   S    
C15   I11   S    
C25   C29   A    
C27   C31   A    
C13   C17   A    
O4    V2    S    
C17   H1    S    
C28   C32   A    
C24   C28   A    
C4    O14   A    
C17   C21   A    
C20   H4    S    
C19   C23   A    
C13   C33   A    
C20   C24   A    
