data_mof_unit_16954.cif
_audit_creation_date              2012-12-10T19:09:32-0500
_audit_creation_method            fapswitch 2.2
_symmetry_space_group_name_H-M    P1
_symmetry_Int_Tables_number       1
_space_group_crystal_system       triclinic
_cell_length_a                    14.844958
_cell_length_b                    15.60981
_cell_length_c                    9.673824
_cell_angle_alpha                 89.789223
_cell_angle_beta                  91.627643
_cell_angle_gamma                 89.764561
_cell_volume                      2240.74643125

loop_
_atom_site_label
_atom_site_type_symbol
_atom_type_description
_atom_site_fract_x
_atom_site_fract_y
_atom_site_fract_z
_atom_type_partial_charge
C1    C     C_R   0.120176 0.378130 0.501422 0.874201
C2    C     C_R   0.875165 0.618290 0.497989 0.869392
C3    C     C_R   0.379214 0.878159 0.498950 0.867651
C4    C     C_R   0.375165 0.118290 0.497989 0.869392
C5    C     C_3   0.814049 0.266068 0.643511 -0.446301
C6    C     C_3   0.842402 0.238029 0.395915 -0.444751
C7    C     C_3   0.853688 0.773236 0.500089 -0.448875
C8    C     C_3   0.749359 0.678387 0.628606 -0.458244
C9    C     C_3   0.314050 0.766067 0.643511 -0.446302
C10   C     C_3   0.342402 0.738029 0.395914 -0.444751
C11   C     C_3   0.353688 0.273236 0.500087 -0.448876
C12   C     C_R   0.128444 0.614010 0.501646 0.860083
C13   C     C_3   0.249360 0.178388 0.628607 -0.458243
C14   C     C_3   0.249647 0.689689 0.648551 0.003726
C15   C     C_3   0.274475 0.663124 0.395350 -0.004927
C16   C     C_3   0.284026 0.346913 0.502634 -0.016883
C17   C     C_3   0.178856 0.250786 0.634422 0.009514
C18   C     C_3   0.749646 0.189690 0.648552 0.003727
C19   C     C_3   0.774475 0.163124 0.395351 -0.004928
C20   C     C_3   0.784026 0.846913 0.502637 -0.016885
C21   C     C_3   0.678855 0.750785 0.634421 0.009515
C22   C     C_3   0.714596 0.342103 0.456666 0.449608
C23   C     C_R   0.620176 0.878130 0.501422 0.874204
C24   C     C_3   0.738297 0.680397 0.361250 0.453365
C25   C     C_3   0.214596 0.842103 0.456667 0.449607
C26   C     C_3   0.238296 0.180396 0.361251 0.453365
C27   C     C_3   0.812705 0.308304 0.497603 0.092877
C28   C     C_3   0.805023 0.685493 0.494113 0.087231
C29   C     C_3   0.312705 0.808304 0.497603 0.092877
C30   C     C_3   0.305023 0.185493 0.494113 0.087231
C31   C     C_3   0.198096 0.681521 0.503461 0.061039
C32   C     C_3   0.186364 0.308647 0.502221 0.083265
C33   C     C_3   0.698095 0.181521 0.503461 0.061039
C34   C     C_R   0.628444 0.114010 0.501646 0.860082
C35   C     C_3   0.686365 0.808647 0.502221 0.083264
C36   C     C_3   0.147981 0.766279 0.467740 -0.350227
C37   C     C_3   0.169155 0.253994 0.370524 -0.344686
C38   C     C_3   0.647981 0.266279 0.467738 -0.350227
C39   C     C_3   0.669157 0.753995 0.370523 -0.344686
C40   C     C_3   0.076941 0.451803 0.084700 -0.222947
C41   C     C_3   0.081189 0.458836 0.922809 -0.240939
C42   C     C_3   0.991094 0.587920 0.918672 -0.236194
C43   C     C_3   0.003884 0.588006 0.080087 -0.239628
C44   C     C_3   0.576942 0.951804 0.084700 -0.222947
C45   C     C_3   0.916746 0.458352 0.077634 -0.241335
C46   C     C_3   0.581189 0.958837 0.922809 -0.240939
C47   C     C_3   0.491093 0.087920 0.918672 -0.236196
C48   C     C_3   0.503884 0.088006 0.080087 -0.239627
C49   C     C_3   0.194185 0.696019 0.780644 -0.906221
C50   C     C_3   0.244151 0.642496 0.245340 -0.914353
C51   C     C_3   0.301262 0.412263 0.386730 -0.957090
C52   C     C_3   0.084134 0.214852 0.661338 -0.972183
C53   C     C_3   0.694183 0.196021 0.780644 -0.906220
C54   C     C_3   0.744152 0.142495 0.245341 -0.914352
C55   C     C_3   0.801264 0.912264 0.386734 -0.957091
C56   C     C_3   0.920627 0.452004 0.915204 -0.225411
C57   C     C_3   0.584133 0.714851 0.661335 -0.972180
C58   C     C_3   0.684328 0.414101 0.555979 -0.958589
C59   C     C_3   0.707805 0.376796 0.305331 -0.944557
C60   C     C_3   0.785254 0.688260 0.219643 -0.911239
C61   C     C_3   0.686508 0.595090 0.356678 -0.975734
C62   C     C_3   0.184328 0.914100 0.555982 -0.958587
C63   C     C_3   0.207805 0.876796 0.305332 -0.944556
C64   C     C_3   0.285252 0.188259 0.219643 -0.911239
C65   C     C_3   0.186508 0.095088 0.356680 -0.975736
C66   C     C_3   0.416747 0.958351 0.077634 -0.241336
C67   C     C_3   0.420628 0.952003 0.915204 -0.225411
C68   C     C_R   0.879214 0.378159 0.498950 0.867649
H1    H     H_    0.798158 0.314879 0.722639 0.201835
H2    H     H_    0.910535 0.213480 0.427516 0.138533
H3    H     H_    0.235467 0.203484 0.134930 0.211897
H4    H     H_    0.337611 0.238379 0.218652 0.223575
H5    H     H_    0.235766 0.042859 0.364223 0.257265
H6    H     H_    0.138986 0.088385 0.441856 0.239408
H7    H     H_    0.146705 0.088361 0.258209 0.247032
H8    H     H_    0.897179 0.776671 0.595725 0.145633
H9    H     H_    0.794574 0.684161 0.722000 0.163382
H10   H     H_    0.383075 0.742845 0.671593 0.155063
H11   H     H_    0.410535 0.713480 0.427513 0.138532
H12   H     H_    0.397179 0.276671 0.595723 0.145632
H13   H     H_    0.294575 0.184163 0.722001 0.163382
H14   H     H_    0.291799 0.630866 0.663193 0.136357
H15   H     H_    0.312542 0.605430 0.432030 0.137157
H16   H     H_    0.294838 0.382414 0.601478 0.137813
H17   H     H_    0.850262 0.265645 0.290856 0.200969
H18   H     H_    0.196598 0.290783 0.726437 0.150573
H19   H     H_    0.791798 0.130867 0.663195 0.136357
H20   H     H_    0.812542 0.105430 0.432032 0.137158
H21   H     H_    0.794838 0.882413 0.601481 0.137814
H22   H     H_    0.696597 0.790782 0.726437 0.150572
H23   H     H_    0.096393 0.778638 0.546510 0.146401
H24   H     H_    0.106924 0.758618 0.370445 0.159963
H25   H     H_    0.171735 0.295647 0.277371 0.170168
H26   H     H_    0.098507 0.230310 0.367675 0.148693
H27   H     H_    0.596392 0.278638 0.546507 0.146401
H28   H     H_    0.900933 0.780105 0.413752 0.184443
H29   H     H_    0.606925 0.258618 0.370443 0.159963
H30   H     H_    0.671738 0.795649 0.277371 0.170168
H31   H     H_    0.598508 0.730312 0.367669 0.148692
H32   H     H_    0.072294 0.383098 0.114670 0.138802
H33   H     H_    0.089446 0.393581 0.879242 0.150142
H34   H     H_    0.923891 0.615791 0.890363 0.141986
H35   H     H_    0.953685 0.630429 0.126649 0.152599
H36   H     H_    0.572294 0.883099 0.114670 0.138802
H37   H     H_    0.589447 0.893582 0.879242 0.150141
H38   H     H_    0.423890 0.115791 0.890363 0.141986
H39   H     H_    0.718267 0.614088 0.637099 0.193076
H40   H     H_    0.453684 0.130428 0.126649 0.152599
H41   H     H_    0.140614 0.475333 0.132698 0.141635
H42   H     H_    0.141735 0.495610 0.894093 0.131622
H43   H     H_    0.039805 0.631023 0.871648 0.157407
H44   H     H_    0.070173 0.616606 0.107415 0.152055
H45   H     H_    0.640614 0.975334 0.132698 0.141634
H46   H     H_    0.641735 0.995611 0.894093 0.131622
H47   H     H_    0.539803 0.131023 0.871647 0.157407
H48   H     H_    0.570172 0.116607 0.107415 0.152054
H49   H     H_    0.909507 0.392887 0.121416 0.148966
H50   H     H_    0.298159 0.814878 0.722639 0.201835
H51   H     H_    0.925241 0.383438 0.884937 0.140926
H52   H     H_    0.856795 0.477070 0.867072 0.145576
H53   H     H_    0.855692 0.494663 0.106272 0.134189
H54   H     H_    0.409508 0.892886 0.121416 0.148966
H55   H     H_    0.425242 0.883437 0.884937 0.140925
H56   H     H_    0.356795 0.977069 0.867072 0.145576
H57   H     H_    0.355692 0.994662 0.106272 0.134189
H58   H     H_    0.233533 0.725340 0.867620 0.223725
H59   H     H_    0.131563 0.733927 0.763709 0.246391
H60   H     H_    0.179968 0.630744 0.818302 0.243583
H61   H     H_    0.350261 0.765645 0.290855 0.200969
H62   H     H_    0.219832 0.576069 0.238174 0.246540
H63   H     H_    0.190890 0.686598 0.206356 0.246502
H64   H     H_    0.301882 0.645806 0.174906 0.230505
H65   H     H_    0.370833 0.437740 0.398337 0.240379
H66   H     H_    0.293503 0.383382 0.282638 0.255436
H67   H     H_    0.254421 0.467122 0.394421 0.238505
H68   H     H_    0.087073 0.172475 0.753883 0.242122
H69   H     H_    0.036337 0.267142 0.683942 0.257127
H70   H     H_    0.056548 0.177431 0.573194 0.240982
H71   H     H_    0.733530 0.225343 0.867619 0.223724
H72   H     H_    0.400932 0.280104 0.413749 0.184444
H73   H     H_    0.631560 0.233928 0.763707 0.246390
H74   H     H_    0.679967 0.130746 0.818303 0.243583
H75   H     H_    0.719833 0.076068 0.238176 0.246539
H76   H     H_    0.690891 0.186597 0.206356 0.246502
H77   H     H_    0.801884 0.145805 0.174908 0.230505
H78   H     H_    0.870834 0.937742 0.398344 0.240379
H79   H     H_    0.793507 0.883383 0.282641 0.255436
H80   H     H_    0.754422 0.967122 0.394424 0.238505
H81   H     H_    0.587072 0.672469 0.753873 0.242122
H82   H     H_    0.536338 0.767141 0.683951 0.257126
H83   H     H_    0.218268 0.114089 0.637102 0.193077
H84   H     H_    0.556544 0.677437 0.573186 0.240981
H85   H     H_    0.674708 0.389464 0.662208 0.230540
H86   H     H_    0.734468 0.466251 0.563374 0.234439
H87   H     H_    0.618487 0.441606 0.520475 0.243771
H88   H     H_    0.642187 0.409674 0.285092 0.242969
H89   H     H_    0.762216 0.421281 0.280661 0.248173
H90   H     H_    0.712161 0.325125 0.228190 0.228596
H91   H     H_    0.814232 0.626429 0.188435 0.253467
H92   H     H_    0.735470 0.703486 0.134929 0.211896
H93   H     H_    0.837614 0.738379 0.218653 0.223575
H94   H     H_    0.883074 0.242846 0.671594 0.155062
H95   H     H_    0.735765 0.542860 0.364222 0.257264
H96   H     H_    0.638984 0.588387 0.441853 0.239409
H97   H     H_    0.646706 0.588363 0.258206 0.247031
H98   H     H_    0.174709 0.889463 0.662210 0.230540
H99   H     H_    0.234469 0.966251 0.563375 0.234440
H100  H     H_    0.118487 0.941605 0.520478 0.243770
H101  H     H_    0.142186 0.909675 0.285095 0.242970
H102  H     H_    0.262216 0.921281 0.280662 0.248172
H103  H     H_    0.212159 0.825125 0.228191 0.228595
H104  H     H_    0.314231 0.126429 0.188436 0.253466
N1    N     N_3   0.998760 0.500000 0.138610 -0.030589
N2    N     N_3   0.998760 0.500000 0.861390 -0.030284
N3    N     N_3   0.498760 1.000000 0.138610 -0.030590
N4    N     N_3   0.498760 0.000000 0.861390 -0.030284
O1    O     O_R   0.092530 0.407440 0.616040 -0.646347
O2    O     O_R   0.907330 0.407420 0.383960 -0.640391
O3    O     O_R   0.907330 0.592580 0.383960 -0.619627
O4    O     O_R   0.907330 0.592580 0.616040 -0.633291
O5    O     O_R   0.407330 0.907420 0.616040 -0.641724
O6    O     O_R   0.407330 0.907420 0.383960 -0.640391
O7    O     O_R   0.407330 0.092580 0.383960 -0.619628
O8    O     O_R   0.407330 0.092580 0.616040 -0.633291
O9    O     O_R   0.092530 0.407440 0.383960 -0.638633
O10   O     O_R   0.092530 0.592560 0.383960 -0.620647
O11   O     O_R   0.092530 0.592560 0.616040 -0.615681
O12   O     O_R   0.592530 0.907440 0.616040 -0.646347
O13   O     O_R   0.592530 0.907440 0.383960 -0.638634
O14   O     O_R   0.592530 0.092560 0.383960 -0.620647
O15   O     O_R   0.592530 0.092560 0.616040 -0.615681
O16   O     O_R   0.907330 0.407420 0.616040 -0.641724
Zn1   Zn    Zn3+2 0.999890 0.500000 0.654960 0.893488
Zn2   Zn    Zn3+2 0.999890 0.500000 0.345040 0.894203
Zn3   Zn    Zn3+2 0.499890 0.000000 0.654960 0.893488
Zn4   Zn    Zn3+2 0.499890 1.000000 0.345040 0.894203

loop_
_geom_bond_atom_site_label_1
_geom_bond_atom_site_label_2
_ccdc_geom_bond_type
C62   H100  S    
C41   N2    S    
C46   H37   S    
C24   C61   S    
C61   H96   S    
C7    H28   S    
C54   H76   S    
C10   C29   S    
C16   C51   S    
C14   C31   S    
C9    C14   S    
C67   H56   S    
C2    O3    A    
C44   H36   S    
C48   H40   S    
C10   H11   S    
C47   H47   S    
C6    C19   S    
O2    Zn2   S    
C40   H32   S    
C51   H65   S    
C6    H17   S    
O1    Zn1   S    
C34   O15   A    
C10   C15   S    
C20   C55   S    
C40   N1    S    
C59   H90   S    
C63   H101  S    
C14   C49   S    
C68   O16   A    
C22   C38   S    
C57   H84   S    
C13   H13   S    
C4    O7    A    
C16   H16   S    
C24   C39   S    
C65   H5    S    
C53   H74   S    
C25   C63   S    
C15   C50   S    
C3    C29   S    
C26   C64   S    
C5    H1    S    
C27   C68   S    
C50   H62   S    
C18   C53   S    
C5    C27   S    
C20   C35   S    
C1    O1    A    
C47   C48   S    
C11   C30   S    
C41   H33   S    
C57   H81   S    
C38   H27   S    
C52   H70   S    
C66   H54   S    
C11   H72   S    
C58   H86   S    
O9    Zn2   S    
C61   H97   S    
C47   N4    S    
O14   Zn4   S    
C48   H48   S    
C48   N3    S    
C36   H24   S    
C54   H75   S    
C64   H3    S    
C61   H95   S    
O11   Zn1   S    
C9    H50   S    
C56   H52   S    
C2    O4    A    
C38   H29   S    
O5    Zn3   S    
C42   H34   S    
C17   C52   S    
C3    O6    A    
C44   C46   S    
O7    Zn4   S    
C43   H35   S    
C21   H22   S    
C25   C29   S    
C49   H59   S    
C46   H46   S    
C17   H18   S    
C60   H92   S    
C13   C30   S    
C34   O14   A    
C66   C67   S    
C45   C56   S    
C19   H20   S    
C19   C33   S    
C22   C59   S    
C63   H103  S    
C63   H102  S    
C15   H15   S    
C5    C18   S    
C45   H53   S    
C12   O11   A    
O12   Zn3   S    
C1    C32   S    
C7    C28   S    
C56   N2    S    
C64   H104  S    
C60   H91   S    
C35   C39   S    
C42   H43   S    
C21   C57   S    
C49   H58   S    
C58   H85   S    
C45   N1    S    
C39   H30   S    
C11   C16   S    
C55   H79   S    
C6    C27   S    
C67   N4    S    
C43   N1    S    
C47   H38   S    
C12   O10   A    
C57   H82   S    
C60   H93   S    
C37   H25   S    
C32   C37   S    
C4    O8    A    
C3    O5    A    
C13   H83   S    
C40   H41   S    
C50   H64   S    
C54   H77   S    
C19   C54   S    
C40   C41   S    
C62   H98   S    
C44   H45   S    
C26   C30   S    
C23   C35   S    
C22   C27   S    
C12   C31   S    
C42   N2    S    
C8    H9    S    
C52   H68   S    
C56   H51   S    
C46   N4    S    
C52   H69   S    
O6    Zn4   S    
C43   H44   S    
C14   H14   S    
C8    H39   S    
N3    Zn4   S    
C23   O13   A    
C36   H23   S    
C45   H49   S    
C6    H2    S    
C49   H60   S    
C53   H71   S    
C26   C65   S    
C67   H55   S    
C9    H10   S    
O10   Zn2   S    
C24   C28   S    
C55   H78   S    
C8    C21   S    
C22   C58   S    
C59   H88   S    
C26   C37   S    
C15   C31   S    
C7    H8    S    
C21   C35   S    
C11   H12   S    
C1    O9    A    
C16   C32   S    
O8    Zn3   S    
C20   H21   S    
C18   H19   S    
C65   H7    S    
C66   H57   S    
C13   C17   S    
C41   H42   S    
C5    H94   S    
C10   H61   S    
O16   Zn1   S    
C9    C29   S    
C59   H89   S    
O13   Zn4   S    
C55   H80   S    
C23   O12   A    
C51   H67   S    
C50   H63   S    
C8    C28   S    
C68   O2    A    
C51   H66   S    
C33   C34   S    
C37   H26   S    
C62   H99   S    
C53   H73   S    
C25   C62   S    
C64   H4    S    
N4    Zn3   S    
C66   N3    S    
C18   C33   S    
O15   Zn3   S    
C58   H87   S    
C65   H6    S    
C25   C36   S    
C44   N3    S    
C39   H31   S    
N2    Zn1   S    
C7    C20   S    
C42   C43   S    
N1    Zn2   S    
C17   C32   S    
C31   C36   S    
C33   C38   S    
C2    C28   S    
C24   C60   S    
C4    C30   S    
O4    Zn1   S    
O3    Zn2   S    
