data_mof_unit_7334.cif
_audit_creation_date              2012-12-10T16:57:10-0500
_audit_creation_method            fapswitch 2.2
_symmetry_space_group_name_H-M    P1
_symmetry_Int_Tables_number       1
_space_group_crystal_system       triclinic
_cell_length_a                    7.748635
_cell_length_b                    8.566141
_cell_length_c                    16.881111
_cell_angle_alpha                 91.544014
_cell_angle_beta                  81.86803
_cell_angle_gamma                 93.757488
_cell_volume                      1106.67054946

loop_
_atom_site_label
_atom_site_type_symbol
_atom_type_description
_atom_site_fract_x
_atom_site_fract_y
_atom_site_fract_z
_atom_type_partial_charge
C1    C     C_R   0.546265 0.794816 0.497738 0.953966
C2    C     C_R   0.400844 0.572632 0.228730 -0.341084
C3    C     C_R   0.665976 0.585965 0.843455 0.572384
C4    C     C_R   0.401571 0.576346 0.147330 0.605785
C5    C     C_R   0.530420 0.656145 0.891886 -0.066657
C6    C     C_R   0.528289 0.499471 0.096131 -0.078771
C7    C     C_R   0.377355 0.691066 0.861749 0.138527
C8    C     C_R   0.651248 0.411909 0.126883 0.099941
C9    C     C_R   0.356784 0.643236 0.782726 0.139317
C10   C     C_R   0.646915 0.404759 0.210136 0.190096
C11   C     C_2   0.531448 0.653498 0.977565 -0.026322
C12   C     C_R   0.453749 0.205178 0.502088 0.962879
C13   C     C_2   0.533142 0.513737 0.010568 -0.111348
C14   C     C_3   0.682146 0.157335 0.269257 -0.734082
C15   C     C_3   0.226605 0.836658 0.712497 -0.730991
C16   C     C_3   0.278680 0.926902 0.935206 -0.752262
C17   C     C_3   0.939641 0.425853 0.050716 -0.647796
C18   C     C_2   0.570676 0.958293 0.496222 -0.384620
C19   C     C_2   0.429351 0.041684 0.503314 -0.391212
C20   C     C_R   0.481760 0.512591 0.653549 0.930144
C21   C     C_R   0.519774 0.494767 0.346419 0.931852
C22   C     C_R   0.488982 0.559013 0.736956 -0.197793
C23   C     C_R   0.524020 0.490105 0.260430 -0.202889
C24   C     C_R   0.643852 0.535123 0.767557 -0.340667
F1    F     F_    0.278520 0.655920 0.118467 -0.691576
F2    F     F_    0.813817 0.553488 0.872747 -0.723064
H1    H     H_    0.748917 0.474881 0.732969 0.205333
H2    H     H_    0.648751 0.086091 0.216899 0.238599
H3    H     H_    0.562167 0.170668 0.312811 0.229960
H4    H     H_    0.775540 0.094761 0.299088 0.236120
H5    H     H_    0.089697 0.659933 0.782166 0.267212
H6    H     H_    0.229668 0.929531 0.759512 0.234067
H7    H     H_    0.113824 0.851640 0.680106 0.228755
H8    H     H_    0.348229 0.849128 0.668991 0.243416
H9    H     H_    0.114804 0.736736 0.904359 0.264137
H10   H     H_    0.197336 0.003492 0.905848 0.225175
H11   H     H_    0.418426 0.965728 0.917848 0.227972
H12   H     H_    0.304520 0.636551 0.267150 0.202669
H13   H     H_    0.245753 0.941014 0.001040 0.269973
H14   H     H_    0.733578 0.271194 0.028253 0.233691
H15   H     H_    0.035742 0.352728 0.014457 0.232236
H16   H     H_    0.997254 0.472103 0.103849 0.266622
H17   H     H_    0.913979 0.525416 0.014166 0.285108
H18   H     H_    0.541405 0.408137 0.973373 0.149418
H19   H     H_    0.521494 0.760846 0.013194 0.180577
H20   H     H_    0.704069 0.009472 0.489296 0.182775
H21   H     H_    0.295955 0.990498 0.510239 0.182335
H22   H     H_    0.022843 0.381880 0.439865 0.196039
H23   H     H_    0.977167 0.618074 0.560174 0.193483
H24   H     H_    0.882620 0.300579 0.210418 0.249765
N1    N     N_2   0.953500 0.457650 0.478520 -0.171884
N2    N     N_2   0.046500 0.542350 0.521480 -0.171813
N3    N     N_2   0.761012 0.308622 0.243445 -0.279338
N4    N     N_2   0.208903 0.683686 0.748034 -0.278803
N5    N     N_2   0.242218 0.764943 0.912680 -0.270508
N6    N     N_2   0.779762 0.332039 0.075203 -0.325962
O1    O     O_R   0.388470 0.738640 0.505270 -0.614761
O2    O     O_R   0.611530 0.261360 0.494730 -0.609660
O3    O     O_R   0.679650 0.711510 0.491500 -0.632139
O4    O     O_R   0.320350 0.288490 0.508500 -0.631821
O5    O     O_R   0.337210 0.515200 0.623500 -0.581670
O6    O     O_R   0.662790 0.484800 0.376500 -0.585181
O7    O     O_R   0.628380 0.488060 0.609730 -0.638933
O8    O     O_R   0.371620 0.511940 0.390270 -0.636384
Zn1   Zn    Zn3+2 0.305580 0.518120 0.509190 0.948710
Zn2   Zn    Zn3+2 0.694420 0.481880 0.490810 0.950954

loop_
_geom_bond_atom_site_label_1
_geom_bond_atom_site_label_2
_ccdc_geom_bond_type
C2    C4    A    
C17   H17   S    
C1    O1    A    
C10   C23   A    
C3    F2    S    
C5    C7    A    
C2    H12   S    
C15   H8    S    
C24   H1    S    
C7    N5    S    
C16   H11   S    
C3    C5    A    
H23   N2    S    
C12   O2    A    
O8    Zn1   S    
C8    N6    S    
C20   O7    A    
C1    O3    A    
C4    F1    S    
C21   O6    A    
C16   N5    S    
C15   H6    S    
H5    N4    S    
O7    Zn2   S    
C16   H10   S    
C6    C13   S    
C11   C13   D    
C17   N6    S    
C1    C18   S    
C14   H4    S    
C18   H20   S    
C12   C19   S    
C4    C6    A    
C20   C22   S    
O4    Zn1   S    
C5    C11   S    
C15   H7    S    
C19   H21   S    
C21   C23   S    
O3    Zn2   S    
C22   C24   A    
C9    C22   A    
H22   N1    S    
H24   N3    S    
C11   H19   S    
O6    Zn2   S    
C16   H13   S    
H9    N5    S    
N1    N2    D    
C12   O4    A    
C15   N4    S    
O5    Zn1   S    
C2    C23   A    
C14   N3    S    
C8    C10   A    
C18   C19   D    
O1    Zn1   S    
C20   O5    A    
C7    C9    A    
C10   N3    S    
C17   H16   S    
C21   O8    A    
C6    C8    A    
C9    N4    S    
C14   H3    S    
C17   H15   S    
C14   H2    S    
O2    Zn2   S    
C13   H18   S    
N2    Zn1   S    
C3    C24   A    
H14   N6    S    
N1    Zn2   S    
