data_mof_unit_44432.cif
_audit_creation_date              2013-03-05T16:15:04-0500
_audit_creation_method            fapswitch 2.2
_symmetry_space_group_name_H-M    P1
_symmetry_Int_Tables_number       1
_space_group_crystal_system       triclinic
_cell_length_a                    23.743636
_cell_length_b                    10.747613
_cell_length_c                    9.596582
_cell_angle_alpha                 91.117806
_cell_angle_beta                  91.336449
_cell_angle_gamma                 90.359163
_cell_volume                      2447.73945497

loop_
_atom_site_label
_atom_site_type_symbol
_atom_site_description
_atom_site_fract_x
_atom_site_fract_y
_atom_site_fract_z
_atom_type_partial_charge
O1    O     O_R   0.500030 0.316850 0.620870 -0.534448
O2    O     O_R   0.499970 0.683150 0.379130 -0.530688
O3    O     O_R   0.500000 0.316860 0.379090 -0.549581
O4    O     O_R   0.500000 0.683140 0.620910 -0.553030
C1    C     C_R   0.500177 0.260259 0.499369 0.918433
C2    C     C_R   0.502362 0.739549 0.500878 0.882278
O5    O     O_R   0.417890 0.499960 0.620920 -0.509171
O6    O     O_R   0.582110 0.500040 0.379080 -0.487814
O7    O     O_R   0.417870 0.499970 0.379140 -0.552568
O8    O     O_R   0.582130 0.500030 0.620860 -0.569743
C3    C     C_R   0.390966 0.500078 0.498469 0.997553
C4    C     C_R   0.609098 0.500349 0.501373 0.840800
Cu1   Cu    Cu3+1 0.500010 0.499990 0.643150 1.093835
Cu2   Cu    Cu3+1 0.499990 0.500010 0.356850 1.107474
C5    C     C_R   0.884642 0.586066 0.561464 0.605901
C6    C     C_R   0.116986 0.382263 0.453521 0.608515
N1    N     N_R   0.853835 0.482424 0.519919 -0.444373
N2    N     N_R   0.147544 0.468043 0.533074 -0.439839
C7    C     C_R   0.880692 0.372555 0.490441 0.635984
C8    C     C_R   0.120301 0.547140 0.622738 0.647411
C9    C     C_R   0.939588 0.368959 0.485169 -0.064757
C10   C     C_R   0.061543 0.556989 0.615547 -0.082409
C11   C     C_R   0.970983 0.470434 0.539575 -0.048916
C12   C     C_R   0.030289 0.464877 0.542401 -0.047308
C13   C     C_R   0.943168 0.577347 0.590747 -0.139237
C14   C     C_R   0.058346 0.367534 0.471988 -0.119538
C15   C     C_R   0.967445 0.265110 0.429911 -0.196878
C16   C     C_R   0.033802 0.656532 0.679982 -0.172972
C17   C     C_R   0.026252 0.263498 0.420035 0.362211
C18   C     C_R   0.975281 0.670136 0.666047 0.408466
O9    O     O_2   0.859123 0.697478 0.568029 -0.407026
O10   O     O_2   0.142401 0.317461 0.351574 -0.421731
O11   O     O_2   0.850742 0.266784 0.467264 -0.480065
O12   O     O_2   0.149874 0.617086 0.717444 -0.488131
H1    H     H_    0.943105 0.185915 0.390599 0.232957
H2    H     H_    0.058194 0.726639 0.737527 0.240499
C19   C     C_R   0.234751 0.595324 0.509305 0.122711
C20   C     C_R   0.761854 0.436547 0.397825 0.149097
C21   C     C_R   0.294342 0.604901 0.519035 0.311064
C22   C     C_R   0.702735 0.422274 0.406376 0.288805
C23   C     C_R   0.327674 0.496290 0.495824 -0.306741
C24   C     C_R   0.672497 0.497452 0.504128 -0.301885
C25   C     C_R   0.298321 0.381408 0.474542 0.347587
C26   C     C_R   0.705386 0.569287 0.603463 0.291576
C27   C     C_R   0.241540 0.372362 0.508254 -0.166543
C28   C     C_R   0.763212 0.548540 0.616939 -0.168167
H3    H     H_    0.221664 0.281563 0.509532 0.237698
H4    H     H_    0.786484 0.591767 0.703599 0.230362
C29   C     C_R   0.208338 0.478590 0.519803 0.196448
C30   C     C_R   0.792687 0.488283 0.511543 0.204297
C31   C     C_3   0.544278 0.045729 0.580260 0.103028
C32   C     C_3   0.461564 0.954143 0.420417 0.125938
C33   C     C_3   0.551589 0.961529 0.451737 0.170690
C34   C     C_3   0.454178 0.037853 0.549076 0.176287
C35   C     C_3   0.504359 0.875993 0.502199 -0.057570
C36   C     C_3   0.501199 0.123717 0.498566 -0.051004
C37   C     C_3   0.497099 0.960462 0.633610 -0.245691
C38   C     C_3   0.508678 0.039198 0.367146 -0.223577
H5    H     H_    0.492835 0.935000 0.743727 0.185137
H6    H     H_    0.513447 0.064859 0.257229 0.191708
C39   C     C_3   0.529751 0.591613 0.052782 0.431950
C40   C     C_3   0.469983 0.408655 0.947193 0.426127
C41   C     C_3   0.479378 0.600542 0.951648 0.112184
C42   C     C_3   0.520371 0.399411 0.048388 0.108132
N3    N     N_3   0.500040 0.499970 0.858290 -0.235501
N4    N     N_3   0.499960 0.500030 0.141710 -0.241025
C43   C     C_3   0.549838 0.489430 0.953748 0.065136
C44   C     C_3   0.449904 0.510361 0.046664 0.058234
N5    N     N_3   0.454952 0.713671 0.897186 -0.517346
H7    H     H_    0.434280 0.758356 0.978837 0.230635
H8    H     H_    0.488760 0.771024 0.873576 0.256923
N6    N     N_3   0.543953 0.285446 0.102852 -0.409735
H9    H     H_    0.563995 0.239631 0.020968 0.250917
H10   H     H_    0.509724 0.229668 0.127536 0.237115
S1    S     S_3+6 0.570454 0.724258 0.109556 0.016266
O13   O     O_2   0.531897 0.821951 0.165642 -0.354833
O14   O     O_2   0.613572 0.689502 0.218579 -0.251995
O15   O     O_3   0.603257 0.783400 0.972559 -0.476529
H11   H     H_    0.620664 0.862196 0.007959 0.397089
S2    S     S_3+6 0.430417 0.275117 0.889507 -0.011444
O16   O     O_2   0.390477 0.306399 0.772133 -0.243910
O17   O     O_2   0.470854 0.176547 0.843958 -0.371634
O18   O     O_3   0.393341 0.220781 0.022380 -0.552500
H12   H     H_    0.377773 0.139777 0.988226 0.387863
N7    N     N_3   0.606444 0.474292 0.903012 -0.493715
H13   H     H_    0.633620 0.476332 0.989753 0.283731
H14   H     H_    0.615362 0.555845 0.852083 0.323124
N8    N     N_3   0.393182 0.526624 0.097980 -0.495531
H15   H     H_    0.366785 0.543145 0.011755 0.256443
H16   H     H_    0.380407 0.441480 0.137326 0.308364
S3    S     S_3+6 0.056868 0.123743 0.356443 0.098501
O19   O     O_2   0.074700 0.141483 0.208892 -0.155967
O20   O     O_2   0.107519 0.090520 0.444757 -0.231155
O21   O     O_3   0.010177 0.005382 0.358036 -0.479937
H17   H     H_    0.006058 0.986242 0.457861 0.373399
S4    S     S_3+6 0.944968 0.797654 0.757203 0.078325
O22   O     O_2   0.926884 0.894460 0.654729 -0.219784
O23   O     O_2   0.894742 0.753902 0.835800 -0.216713
O24   O     O_3   0.992102 0.861960 0.871241 -0.501875
H18   H     H_    0.972171 0.932832 0.914934 0.404411
N9    N     N_3   0.200421 0.701682 0.479205 -0.499819
H19   H     H_    0.213535 0.740127 0.386097 0.278675
H20   H     H_    0.204339 0.768420 0.559213 0.320105
N10   N     N_3   0.790689 0.405828 0.271810 -0.511261
H21   H     H_    0.771212 0.452908 0.189655 0.258852
H22   H     H_    0.788072 0.310567 0.250112 0.311549
S5    S     S_3+6 0.322929 0.754082 0.559683 -0.005285
O25   O     O_2   0.312451 0.836840 0.437686 -0.253227
O26   O     O_2   0.293201 0.807531 0.683765 -0.276905
O27   O     O_3   0.391724 0.750729 0.598471 -0.554682
H23   H     H_    0.397118 0.808649 0.679393 0.366952
S6    S     S_3+6 0.671895 0.295377 0.310234 0.025352
O28   O     O_2   0.665062 0.329556 0.160270 -0.269579
O29   O     O_2   0.709737 0.184031 0.318937 -0.251084
O30   O     O_3   0.609720 0.253444 0.372041 -0.523929
H24   H     H_    0.618130 0.236328 0.471118 0.336625
S7    S     S_3+6 0.322596 0.258122 0.368388 0.041791
O31   O     O_2   0.297456 0.137157 0.413374 -0.229779
O32   O     O_2   0.302547 0.281834 0.221668 -0.229300
O33   O     O_3   0.392596 0.248124 0.371434 -0.565269
H25   H     H_    0.401763 0.197283 0.288144 0.374478
S8    S     S_3+6 0.683243 0.704374 0.694857 0.036551
O34   O     O_2   0.699745 0.692611 0.846139 -0.223222
O35   O     O_2   0.714660 0.813973 0.639351 -0.218726
O36   O     O_3   0.614290 0.732660 0.679756 -0.514169
H26   H     H_    0.608520 0.746571 0.579239 0.323672
N11   N     N_3   0.605657 0.921723 0.397915 -0.476681
H27   H     H_    0.617052 0.984038 0.321079 0.295253
H28   H     H_    0.636008 0.932205 0.477762 0.267799
N12   N     N_3   0.399860 0.077379 0.601269 -0.419230
H29   H     H_    0.368945 0.022707 0.551103 0.309182
H30   H     H_    0.398036 0.052606 0.705673 0.259476
N13   N     N_3   0.590612 0.094563 0.667802 -0.576819
H31   H     H_    0.609651 0.018960 0.716458 0.279428
H32   H     H_    0.573371 0.149542 0.746692 0.267148
N14   N     N_3   0.415583 0.903774 0.332973 -0.462327
H33   H     H_    0.395069 0.978470 0.286500 0.249989
H34   H     H_    0.432866 0.851182 0.252306 0.261326

loop_
_geom_bond_atom_site_label_1
_geom_bond_atom_site_label_2
_geom_bond_distance
_ccdc_geom_bond_type
N4    C44   1.487229 S    
C41   N3    1.483607 S    
N9    H19   1.044908 S    
C15   C17   1.401908 A    
S5    O26   1.504580 D    
C1    C36   1.467724 S    
C19   N9    1.438084 S    
C2    C35   1.466712 S    
O7    Cu2   1.966477 S    
C42   N6    1.451514 S    
N10   H22   1.041978 S    
C21   C23   1.431152 A    
Cu1   N3    2.064595 S    
N7    H13   1.041051 S    
C39   S1    1.786349 S    
C21   S5    1.770084 S    
C31   N13   1.457377 S    
O1    C1    1.304618 A    
C40   S2    1.782335 S    
C7    C9    1.401237 A    
C12   C14   1.413184 A    
N5    H7    1.044863 S    
S7    O32   1.502770 D    
C37   H5    1.103522 S    
C38   H6    1.103663 S    
O30   H24   0.988011 S    
S4    O24   1.682683 S    
C39   C41   1.527291 S    
C31   C36   1.537008 S    
C26   S8    1.770575 S    
O4    Cu1   1.984097 S    
N5    H8    1.040856 S    
O27   H23   0.991202 S    
S6    O28   1.497621 D    
C40   C42   1.528187 S    
C33   N11   1.458457 S    
C39   N4    1.499903 S    
O18   H12   0.990553 S    
C26   C28   1.395807 A    
N3    C43   1.485005 S    
S4    O23   1.503653 D    
C18   S4    1.776658 S    
C11   C12   1.409446 A    
C31   C37   1.545646 S    
C32   C35   1.533996 S    
C8    O12   1.349505 S    
C27   H3    1.081742 S    
C9    C15   1.402483 A    
N9    H20   1.042596 S    
C10   C16   1.401008 A    
Cu1   Cu2   2.747496 S    
C23   C25   1.422912 A    
O2    C2    1.305592 A    
C24   C26   1.429552 A    
S2    O18   1.678362 S    
S6    O29   1.503424 D    
N10   H21   1.045459 S    
C32   C34   1.527537 S    
O5    C3    1.324612 A    
C34   C36   1.537139 S    
N7    H14   1.034975 S    
C6    C14   1.415928 A    
C34   N12   1.457190 S    
C28   H4    1.083078 S    
C43   N7    1.449197 S    
C4    C24   1.505469 S    
C42   C43   1.518498 S    
C41   N5    1.451673 S    
N6    H10   1.041350 S    
C7    O11   1.349102 S    
S7    O33   1.665822 S    
S3    O19   1.502703 D    
O15   H11   0.990578 S    
N6    H9    1.044844 S    
C15   H1    1.082551 S    
C31   C33   1.529286 S    
C42   N4    1.481693 S    
N12   H30   1.043504 S    
S1    O13   1.497740 D    
N11   H28   1.043557 S    
S3    O20   1.503920 D    
C19   C29   1.405524 A    
C39   C43   1.524391 S    
O24   H18   0.990598 S    
C27   C29   1.395581 A    
O6    C4    1.323890 A    
S4    O22   1.503257 D    
Cu2   N4    2.064595 S    
C32   C38   1.542887 S    
C25   C27   1.397012 A    
O7    C3    1.324205 A    
O3    Cu2   1.984097 S    
O8    C4    1.326367 A    
C25   S7    1.763519 S    
S2    O17   1.499827 D    
C8    C10   1.399999 A    
C35   C37   1.552961 S    
N13   H31   1.045073 S    
C32   N14   1.456465 S    
S5    O27   1.667604 S    
C10   C12   1.401013 A    
O4    C2    1.314303 A    
O1    Cu1   1.975751 S    
S5    O25   1.501170 D    
S8    O35   1.503226 D    
N11   H27   1.044870 S    
C17   S3    1.776390 S    
O33   H25   0.988627 S    
N14   H34   1.042993 S    
C13   C18   1.426441 A    
C5    N1    1.376101 A    
C41   C44   1.521939 S    
O6    Cu2   1.956506 S    
C40   N3    1.500888 S    
C33   C35   1.538507 S    
N8    H16   1.042753 S    
S2    O16   1.500015 D    
O3    C1    1.315151 A    
O8    Cu1   1.966475 S    
N1    C30   1.454048 S    
C20   N10   1.437382 S    
C33   C38   1.546743 S    
C5    O9    1.346418 S    
C20   C30   1.403575 A    
C6    O10   1.346328 S    
C28   C30   1.394755 A    
C40   C44   1.523286 S    
S8    O36   1.670550 S    
C9    C11   1.402548 A    
N12   H29   1.040635 S    
C16   C18   1.401635 A    
C19   C21   1.418788 A    
S7    O31   1.502361 D    
S3    O21   1.682664 S    
C20   C22   1.415565 A    
C22   S6    1.776059 S    
O36   H26   0.985558 S    
C44   N8    1.455151 S    
C22   C24   1.434374 A    
N1    C7    1.373273 A    
C36   C38   1.554040 S    
C3    C23   1.502687 S    
N2    C8    1.373257 A    
C11   C13   1.414313 A    
O21   H17   0.990654 S    
O2    Cu2   1.975751 S    
S1    O15   1.677282 S    
C5    C13   1.415348 A    
O5    Cu1   1.956510 S    
N8    H15   1.044985 S    
C16   H2    1.082368 S    
C14   C17   1.424547 A    
C6    N2    1.377526 A    
S1    O14   1.500790 D    
N13   H32   1.043997 S    
N14   H33   1.043736 S    
S8    O34   1.502805 D    
S6    O30   1.666505 S    
N2    C29   1.455934 S    
C34   C37   1.544955 S    
