data_mof_unit_13872.cif
_audit_creation_date              2012-12-11T15:57:31-0500
_audit_creation_method            fapswitch 2.2
_symmetry_space_group_name_H-M    P1
_symmetry_Int_Tables_number       1
_space_group_crystal_system       triclinic
_cell_length_a                    10.709483
_cell_length_b                    10.782462
_cell_length_c                    16.978139
_cell_angle_alpha                 99.579138
_cell_angle_beta                  99.719817
_cell_angle_gamma                 61.250322
_cell_volume                      1685.93667994

loop_
_atom_site_label
_atom_site_type_symbol
_atom_type_description
_atom_site_fract_x
_atom_site_fract_y
_atom_site_fract_z
_atom_type_partial_charge
C1    C     C_R   0.353570 0.777768 0.402549 0.558295
C2    C     C_2   0.319985 0.313574 0.813565 0.125320
C3    C     C_2   0.330027 0.207752 0.755310 -0.084915
C4    C     C_R   0.367400 0.344060 0.357886 0.535041
C5    C     C_2   0.369774 0.198256 0.675625 0.111748
C6    C     C_1   0.817411 0.342153 0.708696 -0.038745
C7    C     C_1   0.844130 0.313655 0.776419 -0.048049
C8    C     C_1   0.358849 0.763576 0.713651 -0.052154
C9    C     C_1   0.326035 0.811050 0.780534 -0.056226
C10   C     C_R   0.893239 0.307638 0.085994 0.537527
C11   C     C_R   0.290713 0.261160 0.121865 0.559525
C12   C     C_2   0.830918 0.324476 0.158319 -0.092003
C13   C     C_R   0.294407 0.891775 0.084369 0.539616
C14   C     C_R   0.885388 0.297132 0.858714 0.538707
C15   C     C_R   0.306653 0.291383 0.892540 0.555324
C16   C     C_R   0.776750 0.376996 0.405080 0.571391
C17   C     C_R   0.280588 0.880892 0.857238 0.546077
C18   C     C_R   0.381699 0.713783 0.631471 0.563329
C19   C     C_R   0.364131 0.344567 0.578401 0.542462
C20   C     C_R   0.773249 0.381060 0.629602 0.536632
C21   C     C_1   0.326336 0.317434 0.276228 -0.058743
C22   C     C_1   0.305516 0.292580 0.205727 -0.050107
C23   C     C_2   0.882996 0.209971 0.199403 -0.112596
C24   C     C_2   0.854150 0.330578 0.334520 0.148912
C25   C     C_3   0.582907 0.965814 0.696917 -0.261481
C26   C     C_3   0.488714 0.398358 0.806214 -0.298883
C27   C     C_3   0.032344 0.411397 0.362353 -0.287563
C28   C     C_3   0.669116 0.852207 0.314254 -0.300538
C29   C     C_3   0.442444 0.582480 0.184131 -0.287245
C30   C     C_2   0.854080 0.221555 0.281877 0.087552
C31   C     C_2   0.324568 0.859762 0.335528 -0.083728
C32   C     C_2   0.346058 0.828978 0.160519 0.109522
C33   C     C_2   0.404041 0.892866 0.219591 -0.101503
C34   C     C_2   0.428851 0.866414 0.304444 0.114831
C35   C     C_2   0.299922 0.314903 0.636641 -0.071519
Cr1   Cr    Cr6+3 0.608020 0.610770 0.522990 1.006626
Cr2   Cr    Cr6+3 0.289390 0.599570 0.488050 1.006822
Cr3   Cr    Cr6+3 0.602610 0.289690 0.489020 1.031940
Cr4   Cr    Cr6+3 0.053780 0.052210 0.965970 1.015455
Cr5   Cr    Cr6+3 0.060060 0.372530 0.992430 1.024935
Cr6   Cr    Cr6+3 0.372600 0.061970 0.991430 1.008706
H1    H     H_    0.953435 0.103959 0.173662 0.144125
H2    H     H_    0.626224 0.014913 0.749623 0.157285
H3    H     H_    0.283596 0.520952 0.839032 0.256494
H4    H     H_    0.494901 0.492990 0.793816 0.136917
H5    H     H_    0.544903 0.309597 0.760682 0.180305
H6    H     H_    0.543793 0.369283 0.867007 0.142622
H7    H     H_    0.821711 0.045900 0.254884 0.219048
H8    H     H_    0.915777 0.053308 0.343579 0.220408
H9    H     H_    0.825846 0.524799 0.311496 0.262821
H10   H     H_    0.062199 0.484313 0.341138 0.169219
H11   H     H_    0.120408 0.300727 0.355930 0.141126
H12   H     H_    0.203218 0.403470 0.658736 0.114217
H13   H     H_    0.013728 0.444726 0.426647 0.154622
H14   H     H_    0.546294 0.901055 0.409104 0.259915
H15   H     H_    0.767699 0.822428 0.356794 0.141689
H16   H     H_    0.632547 0.960956 0.297985 0.167499
H17   H     H_    0.695959 0.774669 0.259914 0.149132
H18   H     H_    0.237398 0.708788 0.134270 0.268306
H19   H     H_    0.410110 0.505622 0.198060 0.165667
H20   H     H_    0.495727 0.540740 0.127852 0.137309
H21   H     H_    0.519182 0.591934 0.234547 0.167249
H22   H     H_    0.758862 0.430386 0.182756 0.101975
H23   H     H_    0.427162 0.974513 0.206457 0.116508
H24   H     H_    0.220150 0.891813 0.301236 0.106914
H25   H     H_    0.321192 0.117398 0.769051 0.115480
H26   H     H_    0.463070 0.033263 0.586360 0.258198
H27   H     H_    0.674001 0.882524 0.664629 0.149943
H28   H     H_    0.526887 0.915073 0.717419 0.154724
N1    N     N_2   0.486264 0.072213 0.643564 -0.488984
N2    N     N_2   0.340180 0.430597 0.802231 -0.540054
N3    N     N_3   0.827298 0.114577 0.305097 -0.600292
N4    N     N_2   0.904452 0.420773 0.314253 -0.549489
N5    N     N_2   0.559469 0.848733 0.352032 -0.486813
N6    N     N_2   0.317031 0.718429 0.174161 -0.534281
O1    O     O_R   0.749250 0.499990 0.439200 -0.516455
O2    O     O_R   0.411120 0.181190 0.091480 -0.511862
O3    O     O_R   0.364220 0.944920 0.062310 -0.527604
O4    O     O_R   0.477870 0.725740 0.440280 -0.475130
O5    O     O_R   0.158740 0.906940 0.874970 -0.499375
O6    O     O_R   0.930920 0.176940 0.885610 -0.492729
O7    O     O_R   0.910730 0.394510 0.895320 -0.508931
O8    O     O_R   0.185840 0.361180 0.920280 -0.495638
O9    O     O_R   0.399210 0.173040 0.915160 -0.521330
O10   O     O_R   0.353170 0.937370 0.898860 -0.503084
O11   O     O_3   0.162150 0.162240 0.983280 -0.273223
O12   O     O_R   0.299400 0.468710 0.556310 -0.522423
O13   O     O_R   0.260770 0.742210 0.412610 -0.513593
O14   O     O_R   0.297990 0.466320 0.394220 -0.511231
O15   O     O_R   0.487720 0.253870 0.385870 -0.500043
O16   O     O_R   0.721940 0.304340 0.422320 -0.468925
O17   O     O_R   0.750770 0.502570 0.614050 -0.521229
O18   O     O_R   0.479280 0.728140 0.602370 -0.509082
O19   O     O_R   0.262290 0.744790 0.587460 -0.499785
O20   O     O_R   0.489240 0.256450 0.560730 -0.486621
O21   O     O_R   0.723350 0.306730 0.584410 -0.496260
O22   O     O_3   0.500010 0.500010 0.500020 -0.266886
O23   O     O_R   0.170650 0.915100 0.051290 -0.521116
O24   O     O_R   0.941960 0.184500 0.049060 -0.505235
O25   O     O_R   0.922640 0.402670 0.071640 -0.511335
O26   O     O_R   0.196880 0.368740 0.083740 -0.490974

loop_
_geom_bond_atom_site_label_1
_geom_bond_atom_site_label_2
_ccdc_geom_bond_type
C35   H12   S    
Cr2   O13   S    
C28   N5    S    
C25   H2    S    
C32   N6    S    
Cr2   O22   S    
C28   H15   S    
C27   H13   S    
C28   H16   S    
Cr6   O11   S    
C20   O17   A    
C12   C23   D    
C23   H1    S    
C17   O10   A    
C19   O12   A    
Cr6   O2    S    
C24   N4    S    
C1    C31   S    
H3    N2    S    
Cr5   O11   S    
C13   O23   A    
Cr1   O1    S    
C26   H4    S    
Cr5   O26   S    
C29   H21   S    
H14   N5    S    
Cr1   O18   S    
C7    C14   S    
C8    C9    T    
H8    N3    S    
Cr3   O20   S    
Cr1   O22   S    
C11   O2    A    
Cr1   O17   S    
C1    O13   A    
C13   C32   S    
C16   C24   S    
C21   C22   T    
C26   N2    S    
Cr5   O8    S    
C25   H27   S    
H7    N3    S    
Cr3   O22   S    
C27   H10   S    
C4    O15   A    
C29   H20   S    
C23   C30   S    
Cr5   O7    S    
Cr4   O6    S    
H9    N4    S    
Cr6   O3    S    
C12   H22   S    
Cr4   O23   S    
C15   O8    A    
Cr6   O9    S    
Cr3   O16   S    
C17   O5    A    
C8    C18   S    
C5    N1    S    
Cr4   O24   S    
C29   H19   S    
C33   C34   S    
C31   C34   D    
C11   O26   A    
C10   O25   A    
C2    C15   S    
C15   O9    A    
C10   C12   S    
C26   H6    S    
C34   N5    S    
C9    C17   S    
C18   O19   A    
C3    H25   S    
C25   H28   S    
C14   O7    A    
C2    N2    S    
H18   N6    S    
C19   O20   A    
C27   H11   S    
C4    O14   A    
C31   H24   S    
C13   O3    A    
C16   O1    A    
Cr2   O12   S    
C3    C5    S    
Cr1   O4    S    
Cr5   O25   S    
C30   N3    S    
C6    C7    T    
C29   N6    S    
C28   H17   S    
Cr6   O10   S    
Cr3   O15   S    
C11   C22   S    
C14   O6    A    
Cr2   O14   S    
H26   N1    S    
C32   C33   D    
C2    C3    D    
C19   C35   S    
Cr4   O5    S    
C4    C21   S    
C6    C20   S    
C33   H23   S    
C1    O4    A    
C5    C35   D    
Cr2   O19   S    
C20   O21   A    
C10   O24   A    
C24   C30   D    
C26   H5    S    
C16   O16   A    
Cr3   O21   S    
C18   O18   A    
C25   N1    S    
Cr4   O11   S    
C27   N4    S    
