data_mof_unit_38441.cif
_audit_creation_date              2012-12-11T15:08:42-0500
_audit_creation_method            fapswitch 2.2
_symmetry_space_group_name_H-M    P1
_symmetry_Int_Tables_number       1
_space_group_crystal_system       triclinic
_cell_length_a                    26.785616
_cell_length_b                    7.133459
_cell_length_c                    11.990702
_cell_angle_alpha                 90.000605
_cell_angle_beta                  103.537689
_cell_angle_gamma                 90.003466
_cell_volume                      2227.45658492

loop_
_atom_site_label
_atom_site_type_symbol
_atom_type_description
_atom_site_fract_x
_atom_site_fract_y
_atom_site_fract_z
_atom_type_partial_charge
O1    O     O_R   0.437360 0.505910 0.042120 -0.537837
O2    O     O_R   0.562640 0.005910 0.957880 -0.537826
O3    O     O_R   0.542480 0.176660 0.157100 -0.540636
O4    O     O_R   0.457520 0.676660 0.842900 -0.540627
C1    C     C_R   0.556456 0.344666 0.197659 0.688519
C2    C     C_R   0.443542 0.844656 0.802343 0.688521
O5    O     O_R   0.436520 0.176250 0.054800 -0.541223
O6    O     O_R   0.563480 0.676250 0.945200 -0.541223
O7    O     O_R   0.455920 0.005040 0.854840 -0.537194
O8    O     O_R   0.544080 0.505040 0.145160 -0.537182
C3    C     C_R   0.417513 0.344452 0.062845 0.685967
C4    C     C_R   0.582486 0.844464 0.937152 0.685975
O9    O     O_3   0.506490 0.338900 0.934520 -0.375050
O10   O     O_3   0.493510 0.838900 0.065480 -0.375063
V1    V     V_3+5 0.498800 0.064400 0.012150 1.425919
V2    V     V_3+5 0.501200 0.564400 0.987850 1.425921
C5    C     C_R   0.680750 0.843848 0.759714 -0.115114
C6    C     C_R   0.319245 0.343482 0.240270 -0.115043
H1    H     H_    0.598474 0.848326 0.723146 0.107305
H2    H     H_    0.401522 0.347975 0.276846 0.107326
H3    H     H_    0.680966 0.841927 0.669470 0.184936
H4    H     H_    0.319028 0.341400 0.330511 0.184922
C7    C     C_R   0.631919 0.850481 0.905143 -0.030980
C8    C     C_R   0.368079 0.350426 0.094853 -0.031018
C9    C     C_R   0.868429 0.852779 0.212613 0.570988
C10   C     C_R   0.131571 0.353025 0.787383 0.570960
C11   C     C_R   0.822650 0.838094 0.247816 0.664153
C12   C     C_R   0.177350 0.338409 0.752176 0.664135
C13   C     C_R   0.775744 0.834097 0.167281 -0.297136
C14   C     C_R   0.224255 0.334297 0.832706 -0.297128
C15   C     C_R   0.773453 0.839372 0.048047 0.005394
C16   C     C_R   0.226546 0.339386 0.951938 0.005352
C17   C     C_R   0.820696 0.842097 0.012572 -0.098507
C18   C     C_R   0.179302 0.342016 0.987409 -0.098531
C19   C     C_R   0.725972 0.841677 0.963014 0.047857
C20   C     C_R   0.274026 0.341605 0.036972 0.047845
C21   C     C_R   0.726869 0.839463 0.844752 -0.023524
C22   C     C_R   0.273127 0.339204 0.155229 -0.023454
C23   C     C_R   0.773797 0.830978 0.812428 0.562783
C24   C     C_R   0.226198 0.330642 0.187543 0.562828
C25   C     C_R   0.819881 0.831405 0.895038 -0.233946
C26   C     C_R   0.180115 0.331142 0.104933 -0.233957
C27   C     C_R   0.677468 0.848277 0.990960 -0.173577
C28   C     C_R   0.322530 0.348313 0.009034 -0.173589
C29   C     C_R   0.633645 0.848165 0.789821 -0.212596
C30   C     C_R   0.366351 0.347900 0.210169 -0.212577
C31   C     C_R   0.867965 0.856057 0.095661 -0.242790
C32   C     C_R   0.132034 0.356099 0.904332 -0.242840
H5    H     H_    0.673545 0.851341 0.078347 0.098166
H6    H     H_    0.326455 0.351521 0.921651 0.098175
H7    H     H_    0.742046 0.824828 0.201380 0.154268
H8    H     H_    0.257954 0.325091 0.798607 0.154270
H9    H     H_    0.855060 0.828331 0.865380 0.141225
H10   H     H_    0.144935 0.328008 0.134588 0.141231
C33   C     C_R   0.090422 0.859965 0.312306 -0.084312
C34   C     C_R   0.909589 0.359904 0.687683 -0.084268
C35   C     C_R   0.408982 0.854274 0.688321 -0.036385
C36   C     C_R   0.591020 0.354352 0.311676 -0.036416
C37   C     C_R   0.106781 0.768635 0.510652 -0.015686
C38   C     C_R   0.893224 0.268205 0.489392 -0.015756
C39   C     C_R   0.073356 0.781557 0.403104 -0.144959
C40   C     C_R   0.926646 0.281253 0.596938 -0.144925
C41   C     C_R   0.141226 0.921645 0.329165 -0.129074
C42   C     C_R   0.858793 0.421673 0.670776 -0.129133
C43   C     C_R   0.178307 0.874361 0.430051 0.050514
C44   C     C_R   0.821708 0.374225 0.569923 0.050471
C45   C     C_R   0.159034 0.813773 0.524965 0.034286
C46   C     C_R   0.840976 0.313421 0.475046 0.034359
C47   C     C_R   0.233132 0.881199 0.440560 0.069068
C48   C     C_R   0.766884 0.381156 0.559408 0.068929
C49   C     C_R   0.266377 0.857550 0.553022 -0.066830
C50   C     C_R   0.733635 0.357317 0.446958 -0.066762
C51   C     C_R   0.244185 0.822225 0.647001 -0.224251
C52   C     C_R   0.755831 0.321893 0.352989 -0.224206
C53   C     C_R   0.191923 0.797432 0.632908 0.644063
C54   C     C_R   0.808091 0.297014 0.367102 0.644032
C55   C     C_R   0.256705 0.898267 0.344653 0.374350
C56   C     C_R   0.743313 0.398595 0.655302 0.374448
C57   C     C_R   0.310169 0.898332 0.362761 -0.258278
C58   C     C_R   0.689848 0.399147 0.637174 -0.258124
C59   C     C_R   0.342121 0.882942 0.471510 0.091330
C60   C     C_R   0.657894 0.383639 0.528436 0.091330
C61   C     C_R   0.321006 0.864761 0.568554 0.117729
C62   C     C_R   0.679004 0.364665 0.431422 0.117679
C63   C     C_R   0.395593 0.884850 0.483370 -0.146835
C64   C     C_R   0.604421 0.386210 0.516563 -0.146823
C65   C     C_R   0.428808 0.869823 0.591167 -0.177486
C66   C     C_R   0.571199 0.371003 0.408786 -0.177477
C67   C     C_R   0.355843 0.853084 0.677633 -0.189981
C68   C     C_R   0.644159 0.352427 0.322373 -0.189916
H11   H     H_    0.343465 0.845797 0.756683 0.094537
H12   H     H_    0.656524 0.344144 0.243341 0.094506
H13   H     H_    0.469931 0.871990 0.598963 0.100321
H14   H     H_    0.530076 0.373808 0.400969 0.100336
H15   H     H_    0.327212 0.910635 0.289394 0.130019
H16   H     H_    0.672806 0.411896 0.710518 0.129961
H17   H     H_    0.092099 0.716198 0.581558 0.205812
H18   H     H_    0.907902 0.215608 0.418515 0.205837
H19   H     H_    0.033890 0.735876 0.391473 0.166336
H20   H     H_    0.966105 0.235484 0.608609 0.166267
H21   H     H_    0.150471 0.003654 0.261575 0.183851
H22   H     H_    0.849552 0.503837 0.738312 0.183864
H23   H     H_    0.266338 0.803648 0.733399 0.143339
H24   H     H_    0.733690 0.303473 0.266568 0.143319
H25   H     H_    0.411768 0.898192 0.408895 0.115922
H26   H     H_    0.588253 0.400272 0.591010 0.115894
O11   O     O_R   0.955980 0.206520 0.854760 -0.541074
O12   O     O_R   0.044020 0.706520 0.145240 -0.541044
O13   O     O_R   0.063490 0.536770 0.945200 -0.533974
O14   O     O_R   0.936510 0.036770 0.054800 -0.533976
C69   C     C_R   0.082661 0.367933 0.937729 0.787565
C70   C     C_R   0.917339 0.867923 0.062270 0.787566
O15   O     O_R   0.957530 0.536190 0.842880 -0.539087
O16   O     O_R   0.042470 0.036190 0.157120 -0.539095
O17   O     O_R   0.937350 0.707210 0.042130 -0.542176
O18   O     O_R   0.062650 0.207210 0.957870 -0.542186
C71   C     C_R   0.943666 0.368073 0.802307 0.711297
C72   C     C_R   0.056336 0.868084 0.197690 0.711283
O19   O     O_3   0.993540 0.373870 0.065440 -0.377913
O20   O     O_3   0.006460 0.873870 0.934560 -0.377930
V3    V     V_3+5 0.001200 0.648440 0.987860 1.505679
V4    V     V_3+5 0.998800 0.148440 0.012140 1.505636
N1    N     N_2   0.228588 0.919483 0.228605 -0.530840
H27   H     H_    0.248675 0.984613 0.176157 0.261939
C73   C     C_3   0.203500 0.755677 0.171669 -0.557322
H28   H     H_    0.229950 0.683767 0.127239 0.206814
H29   H     H_    0.169105 0.799204 0.105481 0.204606
H30   H     H_    0.190841 0.661203 0.233094 0.240073
N2    N     N_2   0.771435 0.419801 0.771350 -0.530879
H31   H     H_    0.751361 0.484999 0.823797 0.261931
C74   C     C_3   0.796489 0.255977 0.828316 -0.557357
H32   H     H_    0.770000 0.184039 0.872635 0.206826
H33   H     H_    0.830855 0.299487 0.894596 0.204635
H34   H     H_    0.809188 0.161538 0.766935 0.240086
F1    F     F_    0.775264 0.826240 0.699902 -0.687131
F2    F     F_    0.224729 0.325783 0.300065 -0.687156
F3    F     F_    0.913551 0.861024 0.292832 -0.676742
F4    F     F_    0.086451 0.361395 0.707167 -0.676705
F5    F     F_    0.823553 0.830844 0.361354 -0.648018
F6    F     F_    0.176449 0.331337 0.638637 -0.648011
F7    F     F_    0.173399 0.758281 0.726562 -0.708441
F8    F     F_    0.826618 0.257809 0.273458 -0.708478

loop_
_geom_bond_atom_site_label_1
_geom_bond_atom_site_label_2
_ccdc_geom_bond_type
C44   C46   A    
C41   C43   A    
C7    C29   A    
C11   C13   A    
C34   C71   S    
C47   C55   A    
O1    C3    A    
O12   V3    S    
C41   H21   S    
C74   H34   S    
O2    C4    A    
C2    O7    A    
C35   C67   A    
N1    H27   S    
C23   C25   A    
C23   F1    S    
O5    C3    A    
C24   F2    S    
C4    C7    S    
C52   C54   A    
C1    C36   S    
O17   V3    S    
C16   C20   A    
C19   C21   A    
C56   N2    S    
C5    C29   A    
C26   H10   S    
C38   H18   S    
O13   C69   A    
C64   C66   A    
N1    C73   S    
C48   C56   A    
C17   C31   A    
C31   C70   S    
C33   C39   A    
C3    C8    S    
C7    C27   A    
C38   C40   A    
C47   C49   A    
C54   F8    S    
C12   F6    S    
C53   F7    S    
C37   C45   A    
C18   C26   A    
C43   C45   A    
C33   C41   A    
C73   H30   S    
C34   C42   A    
C69   O18   A    
C58   H16   S    
C19   C27   A    
C9    C31   A    
C10   C32   A    
C34   C40   A    
C24   C26   A    
O6    V2    S    
C22   C24   A    
C51   C53   A    
C2    C35   S    
C39   H19   S    
C62   C68   A    
C63   H25   S    
C6    C30   A    
C59   C61   A    
O20   V4    S    
C59   C63   A    
C49   C61   A    
C63   C65   A    
C61   C67   A    
C66   H14   S    
C37   C39   A    
O12   C72   A    
C58   C60   A    
C49   C51   A    
C27   H5    S    
C10   F4    S    
C60   C64   A    
C11   F5    S    
C9    F3    S    
C35   C65   A    
C42   C44   A    
O4    V2    S    
C42   H22   S    
C57   C59   A    
C57   H15   S    
C55   N1    S    
C68   H12   S    
O16   C72   A    
O6    C4    A    
C15   C17   A    
C55   C57   A    
O1    V2    S    
C5    C21   A    
O2    V1    S    
C36   C68   A    
C25   H9    S    
C50   C62   A    
O19   V3    S    
O18   V4    S    
C40   H20   S    
C50   C52   A    
C60   C62   A    
C73   H28   S    
C37   H17   S    
O15   C71   A    
C20   C28   A    
O4    C2    A    
C45   C53   A    
C74   H32   S    
O3    C1    A    
O3    V1    S    
O20   V3    S    
C52   H24   S    
N2    H31   S    
C13   H7    S    
O19   V4    S    
C28   H6    S    
C43   C47   A    
C14   H8    S    
C6    H4    S    
C33   C72   S    
C74   H33   S    
C36   C66   A    
H1    C29   S    
C46   C54   A    
C18   C32   A    
C10   C12   A    
C8    C30   A    
C12   C14   A    
C64   H26   S    
O7    V1    S    
C17   C25   A    
C1    O8    A    
C13   C15   A    
O8    V2    S    
O14   V4    S    
C20   C22   A    
C14   C16   A    
O13   V3    S    
C44   C48   A    
C8    C28   A    
C65   H13   S    
C15   C19   A    
O5    V1    S    
C56   C58   A    
C6    C22   A    
O14   C70   A    
O16   V4    S    
C51   H23   S    
C32   C69   S    
O15   V3    S    
C38   C46   A    
C21   C23   A    
C67   H11   S    
O9    V2    S    
C73   H29   S    
O10   V1    S    
C48   C50   A    
O11   V4    S    
O11   C71   A    
C70   O17   A    
H2    C30   S    
C16   C18   A    
N2    C74   S    
C9    C11   A    
C5    H3    S    
