data_mof_unit_44897.cif
_audit_creation_date              2012-12-10T18:10:45-0500
_audit_creation_method            fapswitch 2.2
_symmetry_space_group_name_H-M    P1
_symmetry_Int_Tables_number       1
_space_group_crystal_system       triclinic
_cell_length_a                    12.627695
_cell_length_b                    13.230218
_cell_length_c                    15.739845
_cell_angle_alpha                 91.437408
_cell_angle_beta                  101.914936
_cell_angle_gamma                 84.129694
_cell_volume                      2559.44274007

loop_
_atom_site_label
_atom_site_type_symbol
_atom_type_description
_atom_site_fract_x
_atom_site_fract_y
_atom_site_fract_z
_atom_type_partial_charge
C1    C     C_R   0.440219 0.691021 0.482036 0.899375
C2    C     C_3   0.443825 0.406115 0.041423 -0.475255
C3    C     C_3   0.497745 0.501537 0.082747 0.005414
C4    C     C_3   0.617764 0.487851 0.070199 -0.479299
C5    C     C_3   0.618507 0.504838 0.973661 0.225975
C6    C     C_1   0.497791 0.501764 0.174364 0.112285
C7    C     C_1   0.503513 0.491846 0.825873 0.077482
C8    C     C_1   0.503201 0.495444 0.750603 -0.071634
C9    C     C_R   0.729169 0.071174 0.516673 -0.101545
C10   C     C_R   0.593655 0.203984 0.537878 -0.255279
C11   C     C_R   0.291682 0.837038 0.434355 -0.101968
C12   C     C_R   0.500803 0.499388 0.661473 0.910784
C13   C     C_R   0.262279 0.942938 0.426376 -0.081777
C14   C     C_R   0.343795 0.008996 0.444776 0.006565
C15   C     C_R   0.453990 0.972916 0.470403 0.052894
C16   C     C_R   0.483487 0.869174 0.459738 -0.080860
C17   C     C_R   0.536456 0.038820 0.497619 -0.104965
C18   C     C_R   0.646865 0.003533 0.497444 -0.126069
C19   C     C_R   0.673394 0.899360 0.487214 0.394579
C20   C     C_R   0.590977 0.839475 0.450375 0.311693
C21   C     C_R   0.513921 0.136896 0.529845 0.326383
C22   C     C_R   0.703497 0.167182 0.549762 0.344208
C23   C     C_R   0.559123 0.310623 0.518628 0.924294
C24   C     C_R   0.404172 0.799410 0.456377 -0.057247
C25   C     C_R   0.077744 0.433305 0.333187 0.349907
C26   C     C_R   0.811271 0.582718 0.627989 0.162387
C27   C     C_R   0.920082 0.592589 0.661973 -0.149067
C28   C     C_R   0.996303 0.568843 0.610802 -0.134766
C29   C     C_R   0.964570 0.530516 0.525903 0.035002
C30   C     C_R   0.851950 0.520371 0.493796 0.266968
C31   C     C_R   0.041104 0.495955 0.473877 -0.054072
C32   C     C_R   0.003227 0.470209 0.385241 0.017947
C33   C     C_R   0.891747 0.472445 0.352986 -0.158169
C34   C     C_R   0.499385 0.499920 0.338613 0.897609
C35   C     C_R   0.822048 0.474412 0.410567 -0.016824
C36   C     C_R   0.154138 0.484411 0.506555 0.007004
C37   C     C_R   0.187070 0.417501 0.372067 0.015543
C38   C     C_3   0.450690 0.393337 0.943858 0.645208
C39   C     C_3   0.430054 0.589046 0.936889 -0.633743
C40   C     C_3   0.436868 0.603282 0.037036 0.305337
C41   C     C_1   0.498026 0.500772 0.249624 -0.039114
C42   C     C_3   0.501884 0.490776 0.917200 -0.074077
H1    H     H_    0.359050 0.408604 0.050137 0.260250
H2    H     H_    0.484652 0.337755 0.079072 0.208588
H3    H     H_    0.668882 0.541562 0.111105 0.234102
H4    H     H_    0.321530 0.089090 0.433733 0.203104
H5    H     H_    0.246190 0.390516 0.333933 0.177928
H6    H     H_    0.861649 0.447075 0.287338 0.204339
H7    H     H_    0.190612 0.508085 0.570913 0.125868
H8    H     H_    0.753920 0.597786 0.669899 0.153871
H9    H     H_    0.079246 0.580614 0.639651 0.146053
H10   H     H_    0.945277 0.618444 0.728199 0.189708
H11   H     H_    0.457534 0.655998 0.908947 0.158487
H12   H     H_    0.345475 0.590269 0.900927 0.291099
H13   H     H_    0.630772 0.586572 0.969296 0.116680
H14   H     H_    0.655720 0.411180 0.092170 0.263437
N1    N     N_R   0.222200 0.444690 0.455710 -0.118387
N2    N     N_R   0.776960 0.554780 0.543830 -0.108219
O1    O     O_R   0.366740 0.627160 0.478850 -0.603287
O2    O     O_R   0.544830 0.662520 0.507140 -0.570713
O3    O     O_R   0.410920 0.482310 0.608710 -0.610806
O4    O     O_R   0.589010 0.517670 0.637000 -0.628636
O5    O     O_R   0.455170 0.337480 0.492860 -0.585085
O6    O     O_R   0.633260 0.372840 0.521150 -0.575351
O7    O     O_R   0.410990 0.482330 0.363000 -0.609544
O8    O     O_R   0.589080 0.517690 0.391290 -0.620025
Zn1   Zn    Zn3+2 0.381090 0.476390 0.481110 1.041800
Zn2   Zn    Zn3+2 0.618910 0.523610 0.518890 1.065883
S1    S     S_3+6 0.530875 0.273075 0.930786 0.120956
O9    O     O_2   0.470934 0.186237 0.949053 -0.220326
O10   O     O_2   0.547814 0.262290 0.839274 -0.162330
O11   O     O_3   0.651844 0.261528 0.999918 -0.531965
H15   H     H_    0.689219 0.196508 0.983928 0.420641
S2    S     S_3+6 0.800115 0.220171 0.633624 0.105649
O12   O     O_2   0.743596 0.299834 0.683114 -0.232440
O13   O     O_2   0.854947 0.136592 0.695098 -0.206590
O14   O     O_3   0.896404 0.271740 0.594397 -0.522991
H16   H     H_    0.933150 0.313400 0.642629 0.390365
S3    S     S_3+6 0.778583 0.837076 0.565778 0.054871
O15   O     O_2   0.845070 0.759972 0.521974 -0.262358
O16   O     O_2   0.852696 0.907640 0.618783 -0.275463
O17   O     O_3   0.715645 0.780507 0.633101 -0.600753
H17   H     H_    0.750146 0.800957 0.692502 0.385337
C43   C     C_2   0.836647 0.050149 0.491056 0.621303
H18   H     H_    0.902545 0.095778 0.516987 0.150825
O18   O     O_2   0.851546 0.984321 0.437820 -0.568706
S4    S     S_3+6 0.412567 0.164329 0.593935 0.088740
O19   O     O_2   0.455749 0.232425 0.667993 -0.185173
O20   O     O_2   0.310375 0.218031 0.541095 -0.287838
O21   O     O_3   0.383376 0.056485 0.634528 -0.524821
H19   H     H_    0.326433 0.078337 0.667839 0.411473
C44   C     C_2   0.204126 0.768138 0.414487 0.438358
H20   H     H_    0.137170 0.777091 0.448465 0.064858
O22   O     O_2   0.203588 0.704400 0.356948 -0.471190
C45   C     C_2   0.146845 0.986290 0.398426 0.484879
H21   H     H_    0.082323 0.937404 0.378006 0.095427
O23   O     O_2   0.122016 0.078013 0.397768 -0.504147
S5    S     S_3+6 0.314595 0.377844 0.878682 0.101340
O24   O     O_2   0.273486 0.284808 0.908161 -0.153509
O25   O     O_2   0.231829 0.465425 0.886950 -0.286199
O26   O     O_3   0.320229 0.361563 0.773238 -0.468689
H22   H     H_    0.283646 0.424912 0.743892 0.351824
S6    S     S_3+6 0.610975 0.771158 0.356066 0.102578
O27   O     O_2   0.699039 0.685484 0.378810 -0.269283
O28   O     O_2   0.507837 0.729873 0.310042 -0.239893
O29   O     O_3   0.648728 0.850453 0.288432 -0.472094
H23   H     H_    0.726276 0.857989 0.313172 0.388265
S7    S     S_3+6 0.039038 0.408749 0.220163 0.089699
O30   O     O_2   0.137815 0.387767 0.180561 -0.245829
O31   O     O_2   0.974657 0.318136 0.206133 -0.232856
O32   O     O_3   0.961518 0.510776 0.171890 -0.506536
H24   H     H_    0.966648 0.505148 0.109993 0.438084
C46   C     C_2   0.758477 0.386078 0.394007 0.517370
H25   H     H_    0.697710 0.381775 0.334611 0.022862
O33   O     O_2   0.786303 0.309785 0.437703 -0.544683
S8    S     S_3+6 0.302149 0.637304 0.059883 0.092611
O34   O     O_2   0.231881 0.551146 0.045333 -0.169519
O35   O     O_2   0.311904 0.671969 0.152689 -0.223439
O36   O     O_3   0.239356 0.733485 0.994430 -0.496110
H26   H     H_    0.271962 0.794981 0.020392 0.368599
C47   C     C_2   0.498122 0.695852 0.067035 0.426536
H27   H     H_    0.484230 0.762838 0.026228 0.080428
O37   O     O_2   0.558503 0.699499 0.138169 -0.461914
S9    S     S_3+6 0.739665 0.446462 0.939660 0.112294
O38   O     O_2   0.815238 0.390915 0.014002 -0.164643
O39   O     O_2   0.715075 0.374157 0.864873 -0.177793
O40   O     O_3   0.804937 0.539267 0.908600 -0.503695
H28   H     H_    0.757086 0.566514 0.854358 0.337344

loop_
_geom_bond_atom_site_label_1
_geom_bond_atom_site_label_2
_ccdc_geom_bond_type
O8    Zn2   S    
S4    O19   D    
C21   S4    S    
O26   H22   S    
C19   C20   A    
C38   S5    S    
C3    C6    S    
C34   O8    A    
C7    C8    T    
C14   H4    S    
C20   S6    S    
C40   S8    S    
O14   H16   S    
C10   C22   A    
C40   C47   S    
C5    S9    S    
C26   C27   A    
S2    O13   D    
C30   C35   A    
C13   C45   S    
O6    Zn2   S    
C28   C29   A    
C43   O18   D    
C38   C42   S    
C1    O1    A    
C28   H9    S    
C9    C22   A    
C39   H12   S    
O29   H23   S    
C15   C16   A    
C11   C24   A    
S7    O30   D    
C18   C19   A    
C7    C42   S    
S1    O10   D    
C2    C38   S    
O1    Zn1   S    
C11   C44   S    
C45   H21   S    
C2    H2    S    
O7    Zn1   S    
C6    C41   T    
C37   H5    S    
C16   C20   A    
C25   C37   A    
C25   C32   A    
C23   O5    A    
C38   S1    S    
C16   C24   A    
C13   C14   A    
C4    H14   S    
C34   C41   S    
N1    Zn1   S    
C34   O7    A    
C39   C42   S    
C4    H3    S    
C10   C21   A    
O5    Zn1   S    
S2    O12   D    
S8    O36   S    
C43   H18   S    
C36   N1    A    
C1    O2    A    
C39   C40   S    
S3    O16   D    
C4    C5    S    
S2    O14   S    
C17   C21   A    
S1    O11   S    
C29   C30   A    
C12   O4    A    
O3    Zn1   S    
C31   C32   A    
C2    H1    S    
C8    C12   S    
C44   O22   D    
C17   C18   A    
S6    O28   D    
C19   S3    S    
C26   N2    A    
C47   H27   S    
S8    O35   D    
S9    O40   S    
N2    Zn2   S    
C23   O6    A    
C3    C40   S    
S5    O24   D    
S5    O25   D    
S4    O20   D    
C22   S2    S    
C3    C4    S    
S6    O27   D    
C27   H10   S    
C5    C42   S    
S9    O39   D    
C46   H25   S    
C15   C17   A    
O32   H24   S    
C31   C36   A    
C5    H13   S    
O11   H15   S    
S3    O17   S    
O36   H26   S    
C45   O23   D    
C10   C23   S    
S5    O26   S    
S7    O32   S    
O4    Zn2   S    
C32   C33   A    
C26   H8    S    
C2    C3    S    
C29   C31   A    
C12   O3    A    
C11   C13   A    
O21   H19   S    
C39   H11   S    
C30   N2    A    
C44   H20   S    
C33   C35   A    
S7    O31   D    
S8    O34   D    
C35   C46   S    
S6    O29   S    
S1    O9    D    
C47   O37   D    
C9    C43   S    
S3    O15   D    
C9    C18   A    
O2    Zn2   S    
C1    C24   S    
O17   H17   S    
S4    O21   S    
C27   C28   A    
C33   H6    S    
C14   C15   A    
C37   N1    A    
C36   H7    S    
O40   H28   S    
C25   S7    S    
S9    O38   D    
C46   O33   D    
