data_mof_unit_18740.cif
_audit_creation_date              2012-10-26T18:27:31-0400
_audit_creation_method            fapswitch 2.2
_symmetry_space_group_name_H-M    P1
_symmetry_Int_Tables_number       1
_space_group_crystal_system       triclinic
_cell_length_a                    10.797164
_cell_length_b                    11.062373
_cell_length_c                    9.861983
_cell_angle_alpha                 111.121662
_cell_angle_beta                  98.424176
_cell_angle_gamma                 91.13251
_cell_volume                      1083.57982371

loop_
_atom_site_label
_atom_site_type_symbol
_atom_type_description
_atom_site_fract_x
_atom_site_fract_y
_atom_site_fract_z
_atom_type_partial_charge
C1    C     C_R   0.490557 0.254196 0.440691 0.557117
C2    C     C_2   0.495669 0.930400 0.483514 -0.159835
C3    C     C_2   0.507685 0.515516 0.083139 0.000960
C4    C     C_R   0.262878 0.504373 0.502005 0.535578
C5    C     C_2   0.474747 0.516053 0.927138 -0.042477
C6    C     C_R   0.508794 0.745803 0.559312 0.546228
C7    C     C_R   0.737517 0.506143 0.500641 0.542082
C8    C     C_R   0.163636 0.718491 0.724728 -0.108967
C9    C     C_R   0.115462 0.817247 0.832005 -0.129691
C10   C     C_R   0.986517 0.820119 0.829115 -0.125123
C11   C     C_R   0.905049 0.722815 0.719818 -0.104829
C12   C     C_R   0.083321 0.616118 0.615594 0.024594
C13   C     C_R   0.952013 0.617932 0.613465 0.025427
C14   C     C_3   0.329589 0.369613 0.044432 -0.092647
C15   C     C_3   0.289880 0.251560 0.079385 -0.255615
C16   C     C_3   0.169396 0.180219 0.976962 -0.501752
C17   C     C_R   0.129731 0.513927 0.505516 0.000860
C18   C     C_R   0.047607 0.419530 0.392789 -0.156654
C19   C     C_R   0.919751 0.420902 0.391068 -0.154088
C20   C     C_R   0.871583 0.516788 0.501980 -0.001259
C21   C     C_2   0.484770 0.114873 0.407380 -0.135293
C22   C     C_2   0.500296 0.069509 0.516480 -0.159484
C23   C     C_2   0.512998 0.885092 0.592606 -0.135814
Cu1   Cu    Cu3+1 0.521920 0.521810 0.644910 0.915241
Cu2   Cu    Cu3+1 0.478080 0.478190 0.355090 0.919617
H1    H     H_    0.082793 0.342158 0.307380 0.115064
H2    H     H_    0.858173 0.344231 0.305000 0.128809
H3    H     H_    0.478325 0.864655 0.368781 0.157052
H4    H     H_    0.517074 0.135231 0.631228 0.158498
H5    H     H_    0.530344 0.951119 0.707153 0.097962
H6    H     H_    0.095573 0.248950 0.977876 0.154032
H7    H     H_    0.187689 0.131624 0.862510 0.157962
H8    H     H_    0.133359 0.106148 0.015934 0.134550
H9    H     H_    0.365351 0.183268 0.064966 0.165018
H10   H     H_    0.269341 0.279635 0.192051 0.209002
H11   H     H_    0.251959 0.435213 0.052797 0.132777
H12   H     H_    0.467878 0.048891 0.292803 0.094120
H13   H     H_    0.342867 0.324912 0.927642 0.105208
H14   H     H_    0.381577 0.482438 0.864703 0.151895
H15   H     H_    0.589369 0.576936 0.153300 0.133080
H16   H     H_    0.644211 0.584195 0.921801 0.207301
H17   H     H_    0.263931 0.725496 0.728062 0.146762
H18   H     H_    0.178982 0.892580 0.916370 0.108282
H19   H     H_    0.949350 0.898961 0.910717 0.108451
H20   H     H_    0.805585 0.732499 0.718691 0.138091
N1    N     N_2   0.445130 0.445430 0.137370 -0.230307
N2    N     N_2   0.554930 0.554500 0.862630 -0.359581
O1    O     O_R   0.511700 0.332330 0.577400 -0.482465
O2    O     O_R   0.474680 0.295500 0.332650 -0.512730
O3    O     O_R   0.338160 0.518420 0.622400 -0.512587
O4    O     O_R   0.301140 0.481590 0.377650 -0.509428
O5    O     O_R   0.525320 0.704500 0.667350 -0.503796
O6    O     O_R   0.488300 0.667670 0.422600 -0.497083
O7    O     O_R   0.698860 0.518410 0.622350 -0.499677
O8    O     O_R   0.661840 0.481580 0.377600 -0.500439

loop_
_geom_bond_atom_site_label_1
_geom_bond_atom_site_label_2
_ccdc_geom_bond_type
C12   C17   A    
Cu1   O5    S    
C3    N1    D    
Cu2   O4    S    
C1    O1    A    
C2    C22   S    
C22   H4    S    
C16   H8    S    
C14   H13   S    
C11   C13   A    
C9    C10   A    
C15   H9    S    
C19   C20   A    
C18   H1    S    
C7    O8    A    
C8    C12   A    
C17   C18   A    
H16   N2    S    
C21   H12   S    
C14   N1    S    
C21   C22   D    
C12   C13   A    
C16   H6    S    
C1    C21   S    
C5    N2    D    
Cu1   O3    S    
C1    O2    A    
C6    C23   S    
C15   H10   S    
C8    H17   S    
C3    H15   S    
C7    C20   S    
C5    H14   S    
C14   H11   S    
Cu2   O2    S    
C9    H18   S    
C11   H20   S    
C10   C11   A    
C4    C17   S    
C6    O6    A    
Cu1   O7    S    
C15   C16   S    
Cu1   O1    S    
C23   H5    S    
C19   H2    S    
Cu1   Cu2   S    
C18   C19   A    
C4    O3    A    
C2    C23   D    
C16   H7    S    
C2    H3    S    
C4    O4    A    
C7    O7    A    
C6    O5    A    
C14   C15   S    
Cu1   N2    S    
C10   H19   S    
Cu2   N1    S    
C13   C20   A    
Cu2   O8    S    
Cu2   O6    S    
C8    C9    A    
C3    C5    S    
