data_mof_unit_14043.cif
_audit_creation_date              2012-12-11T15:35:31-0500
_audit_creation_method            fapswitch 2.2
_symmetry_space_group_name_H-M    P1
_symmetry_Int_Tables_number       1
_space_group_crystal_system       triclinic
_cell_length_a                    17.357648
_cell_length_b                    24.272385
_cell_length_c                    14.866613
_cell_angle_alpha                 90.351357
_cell_angle_beta                  124.784176
_cell_angle_gamma                 89.509557
_cell_volume                      5144.04038824

loop_
_atom_site_label
_atom_site_type_symbol
_atom_type_description
_atom_site_fract_x
_atom_site_fract_y
_atom_site_fract_z
_atom_type_partial_charge
C1    C     C_R   0.351611 0.152125 0.908246 -0.141936
C2    C     C_R   0.557440 0.152177 0.909950 -0.129611
C3    C     C_R   0.254111 0.546761 0.302215 -0.137021
C4    C     C_R   0.098362 0.375888 0.907635 -0.130381
C5    C     C_R   0.057439 0.652175 0.909948 -0.129590
C6    C     C_R   0.433698 0.000800 0.632260 0.046280
C7    C     C_R   0.933676 0.500806 0.632242 0.046278
C8    C     C_R   0.800533 0.001157 0.365507 -0.002221
C9    C     C_R   0.300526 0.501154 0.365511 -0.002223
C10   C     C_R   0.617011 0.183620 0.001525 0.096184
C11   C     C_R   0.687670 0.863480 0.998162 0.091082
C12   C     C_R   0.117016 0.683620 0.001520 0.096202
C13   C     C_R   0.317051 0.867035 0.909080 -0.134273
C14   C     C_R   0.187672 0.363495 0.998145 0.091072
C15   C     C_3   0.023831 0.953561 0.634775 -0.390284
C16   C     C_3   0.026416 0.056518 0.621273 -0.401820
C17   C     C_3   0.523852 0.453503 0.634685 -0.390385
C18   C     C_3   0.526384 0.556470 0.621387 -0.401757
C19   C     C_3   0.919920 0.952349 0.538474 -0.406991
C20   C     C_3   0.921631 0.055685 0.528663 -0.403123
C21   C     C_3   0.419945 0.452290 0.538386 -0.407002
C22   C     C_3   0.421589 0.555637 0.528774 -0.403026
C23   C     C_3   0.062006 0.996472 0.509199 -0.398330
C24   C     C_R   0.851620 0.652128 0.908250 -0.141880
C25   C     C_3   0.562001 0.496551 0.509194 -0.398357
C26   C     C_3   0.073574 0.002116 0.620008 0.386636
C27   C     C_3   0.573568 0.502108 0.620012 0.386622
C28   C     C_3   0.897648 0.001670 0.460996 0.390208
C29   C     C_3   0.397641 0.501663 0.461003 0.390212
C30   C     C_R   0.411552 0.864082 0.091978 -0.101051
C31   C     C_R   0.443688 0.153199 0.090655 -0.122721
C32   C     C_R   0.911525 0.364095 0.091985 -0.101077
C33   C     C_R   0.943704 0.653199 0.090658 -0.122735
C34   C     C_3   0.958608 0.997432 0.415587 -0.382833
C35   C     C_R   0.817004 0.367067 0.909090 -0.134258
C36   C     C_3   0.458601 0.497514 0.415583 -0.382823
C37   C     C_R   0.167905 0.806331 0.903484 -0.248788
C38   C     C_R   0.288912 0.267512 0.897779 -0.248351
C39   C     C_R   0.667818 0.306406 0.903528 -0.248757
C40   C     C_R   0.789033 0.767563 0.897795 -0.248162
C41   C     C_R   0.612913 0.265635 0.902954 -0.159214
C42   C     C_R   0.740044 0.813005 0.896809 -0.157478
C43   C     C_R   0.112983 0.765601 0.902924 -0.159275
C44   C     C_R   0.239957 0.312970 0.896776 -0.157471
C45   C     C_R   0.640921 0.240701 0.001874 0.055701
C46   C     C_R   0.648104 0.151047 0.092236 -0.127916
C47   C     C_R   0.760656 0.834391 0.995929 0.056589
C48   C     C_R   0.140934 0.740699 0.001851 0.055626
C49   C     C_R   0.260638 0.334401 0.995881 0.056630
C50   C     C_R   0.707744 0.266282 0.101081 -0.300465
C51   C     C_R   0.844146 0.818718 0.094047 -0.321905
C52   C     C_R   0.207737 0.766289 0.101044 -0.300470
C53   C     C_R   0.344159 0.318747 0.093977 -0.321957
C54   C     C_R   0.262468 0.807491 0.101926 0.730028
C55   C     C_R   0.394247 0.273550 0.095326 0.745258
C56   C     C_R   0.762455 0.307520 0.101972 0.729949
C57   C     C_R   0.689391 0.876406 0.090684 -0.131895
C58   C     C_R   0.894252 0.773533 0.095391 0.745171
C59   C     C_R   0.250036 0.822179 0.003012 -0.053081
C60   C     C_R   0.359563 0.243643 0.997837 -0.059095
C61   C     C_R   0.749987 0.322236 0.003051 -0.053139
C62   C     C_R   0.859617 0.743656 0.997868 -0.059151
C63   C     C_R   0.388055 0.952186 0.462328 -0.170258
C64   C     C_R   0.392776 0.051952 0.467309 -0.169276
C65   C     C_R   0.888011 0.452189 0.462296 -0.170175
C66   C     C_R   0.892691 0.551961 0.467262 -0.169233
C67   C     C_R   0.392827 0.952545 0.372741 -0.151190
C68   C     C_R   0.148109 0.651049 0.092232 -0.127944
C69   C     C_R   0.398129 0.052241 0.378192 -0.160641
C70   C     C_R   0.892737 0.452539 0.372649 -0.151183
C71   C     C_R   0.898037 0.552240 0.378114 -0.160550
C72   C     C_R   0.409606 0.002283 0.339558 0.128020
C73   C     C_R   0.909521 0.502276 0.339471 0.127923
C74   C     C_R   0.481953 0.046858 0.250853 -0.129270
C75   C     C_R   0.488637 0.955442 0.259647 -0.118866
C76   C     C_R   0.981921 0.546856 0.250823 -0.129261
C77   C     C_R   0.988603 0.455440 0.259628 -0.118848
C78   C     C_R   0.398938 0.001701 0.517130 0.132543
C79   C     C_R   0.189397 0.376414 0.090675 -0.131911
C80   C     C_R   0.898899 0.501711 0.517108 0.132476
C81   C     C_R   0.229654 0.954758 0.731760 -0.135224
C82   C     C_R   0.230929 0.047440 0.740972 -0.138710
C83   C     C_R   0.729650 0.454755 0.731734 -0.135270
C84   C     C_R   0.730919 0.547437 0.740966 -0.138722
C85   C     C_R   0.383391 0.185219 0.999429 0.101516
C86   C     C_R   0.323394 0.850020 0.001850 0.096128
C87   C     C_R   0.883419 0.685225 0.999437 0.101472
C88   C     C_R   0.823339 0.350070 0.001869 0.096127
C89   C     C_R   0.454908 0.001582 0.282096 0.046564
C90   C     C_R   0.598362 0.875875 0.907642 -0.130383
C91   C     C_R   0.954844 0.501578 0.282037 0.046555
C92   C     C_R   0.174113 0.001450 0.704650 0.000050
C93   C     C_R   0.674105 0.501443 0.704646 0.000076
C94   C     C_R   0.451771 0.046098 0.697542 -0.122104
C95   C     C_R   0.449580 0.954870 0.695312 -0.143248
C96   C     C_R   0.951764 0.546102 0.697536 -0.122091
C97   C     C_R   0.949561 0.454874 0.695298 -0.143253
C98   C     C_R   0.754439 0.954661 0.304605 -0.153904
C99   C     C_R   0.754105 0.046762 0.302213 -0.137010
C100  C     C_R   0.254432 0.454659 0.304604 -0.153907
F1    F     F_    0.330549 0.829416 0.199747 -0.759102
F2    F     F_    0.471304 0.257515 0.193133 -0.739953
F3    F     F_    0.830559 0.329441 0.199804 -0.759128
F4    F     F_    0.971276 0.757482 0.193226 -0.739941
H1    H     H_    0.314646 0.165439 0.824173 0.085567
H2    H     H_    0.906398 0.092676 0.477341 0.152144
H3    H     H_    0.406392 0.412463 0.494640 0.152403
H4    H     H_    0.406324 0.592665 0.477521 0.152112
H5    H     H_    0.093901 0.957152 0.505954 0.162653
H6    H     H_    0.098448 0.030752 0.498621 0.159717
H7    H     H_    0.593915 0.457259 0.505875 0.162679
H8    H     H_    0.598425 0.530866 0.498684 0.159704
H9    H     H_    0.941588 0.959319 0.365565 0.160964
H10   H     H_    0.944434 0.033139 0.361304 0.162115
H11   H     H_    0.441601 0.459432 0.365481 0.160976
H12   H     H_    0.264371 0.855953 0.825868 0.090868
H13   H     H_    0.444407 0.533260 0.361371 0.162098
H14   H     H_    0.149785 0.821127 0.825270 0.137723
H15   H     H_    0.264086 0.248425 0.820034 0.138854
H16   H     H_    0.649664 0.321236 0.825322 0.137724
H17   H     H_    0.764286 0.748521 0.820012 0.138787
H18   H     H_    0.556072 0.249900 0.824544 0.119871
H19   H     H_    0.680101 0.826853 0.818547 0.121959
H20   H     H_    0.056175 0.749858 0.824517 0.119910
H21   H     H_    0.179974 0.326788 0.818530 0.121967
H22   H     H_    0.446224 0.849043 0.174212 0.158841
H23   H     H_    0.814632 0.665436 0.824170 0.085567
H24   H     H_    0.490221 0.166593 0.174350 0.178097
H25   H     H_    0.946206 0.349024 0.174204 0.158842
H26   H     H_    0.990240 0.666583 0.174357 0.178120
H27   H     H_    0.393552 0.913459 0.338140 0.183518
H28   H     H_    0.403765 0.091561 0.348745 0.116731
H29   H     H_    0.893455 0.413447 0.338030 0.183623
H30   H     H_    0.903661 0.591557 0.348653 0.116738
H31   H     H_    0.470561 0.089837 0.258667 0.101193
H32   H     H_    0.490446 0.914045 0.285627 0.113072
H33   H     H_    0.970521 0.589834 0.258630 0.101222
H34   H     H_    0.764296 0.355987 0.825883 0.090881
H35   H     H_    0.990430 0.414048 0.285647 0.113098
H36   H     H_    0.206940 0.913921 0.698861 0.083787
H37   H     H_    0.211284 0.090395 0.726355 0.092891
H38   H     H_    0.706947 0.413923 0.698796 0.083800
H39   H     H_    0.711264 0.590391 0.726341 0.092882
H40   H     H_    0.435690 0.088722 0.672790 0.083787
H41   H     H_    0.430820 0.912828 0.667283 0.090503
H42   H     H_    0.935690 0.588727 0.672791 0.083785
H43   H     H_    0.930788 0.412833 0.667262 0.090505
H44   H     H_    0.768455 0.912290 0.331466 0.091031
H45   H     H_    0.030112 0.958342 0.713217 0.163785
H46   H     H_    0.766780 0.089727 0.324976 0.092468
H47   H     H_    0.268434 0.412287 0.331460 0.091039
H48   H     H_    0.266802 0.589725 0.324976 0.092467
H49   H     H_    0.686776 0.163925 0.176861 0.097634
H50   H     H_    0.747121 0.871300 0.175231 0.097206
H51   H     H_    0.186792 0.663930 0.176857 0.097636
H52   H     H_    0.247134 0.371308 0.175219 0.097225
H53   H     H_    0.571149 0.871329 0.822241 0.095666
H54   H     H_    0.511890 0.165733 0.825980 0.084347
H55   H     H_    0.071146 0.371353 0.822231 0.095663
H56   H     H_    0.036197 0.061886 0.701587 0.161879
H57   H     H_    0.011881 0.665729 0.825978 0.084339
H58   H     H_    0.055904 0.913215 0.637836 0.146394
H59   H     H_    0.057696 0.092720 0.608236 0.150819
H60   H     H_    0.555938 0.413181 0.637667 0.146401
H61   H     H_    0.557648 0.592706 0.608429 0.150806
H62   H     H_    0.874867 0.954227 0.569538 0.159600
H63   H     H_    0.879196 0.058847 0.563053 0.161510
H64   H     H_    0.374889 0.454102 0.569453 0.159592
H65   H     H_    0.379152 0.558732 0.563176 0.161494
H66   H     H_    0.724711 0.251164 0.178687 0.155958
H67   H     H_    0.530132 0.458222 0.713133 0.163794
H68   H     H_    0.866454 0.837818 0.171172 0.149383
H69   H     H_    0.224659 0.751196 0.178648 0.155975
H70   H     H_    0.366505 0.337873 0.171085 0.149387
H71   H     H_    0.386038 0.912786 0.494360 0.121109
H72   H     H_    0.394467 0.091155 0.503120 0.108731
H73   H     H_    0.886025 0.412789 0.494346 0.121104
H74   H     H_    0.894354 0.591170 0.503070 0.108700
H75   H     H_    0.536168 0.561771 0.701714 0.161877
H76   H     H_    0.906333 0.912494 0.494801 0.152392
N1    N     N_R   0.392140 0.102630 0.941800 -0.039191
N2    N     N_R   0.525160 0.972040 0.206160 -0.041774
N3    N     N_R   0.025160 0.527960 0.206160 -0.040128
N4    N     N_R   0.025160 0.472040 0.206160 -0.041769
N5    N     N_R   0.317870 0.971120 0.792790 -0.032904
N6    N     N_R   0.317870 0.028880 0.792790 -0.035498
N7    N     N_R   0.817870 0.471120 0.792790 -0.032896
N8    N     N_R   0.817870 0.528880 0.792790 -0.035495
N9    N     N_R   0.473480 0.027920 0.793480 -0.039446
N10   N     N_R   0.473480 0.972080 0.793480 -0.039228
N11   N     N_R   0.973480 0.527920 0.793480 -0.039446
N12   N     N_R   0.392140 0.897370 0.941800 -0.041598
N13   N     N_R   0.973480 0.472080 0.793480 -0.039230
N14   N     N_R   0.681610 0.971120 0.207570 -0.034693
N15   N     N_R   0.681610 0.028880 0.207570 -0.034681
N16   N     N_R   0.181610 0.471120 0.207570 -0.034695
N17   N     N_R   0.181610 0.528880 0.207570 -0.034677
N18   N     N_R   0.605410 0.102620 0.056870 -0.042580
N19   N     N_R   0.605410 0.897380 0.056870 -0.043842
N20   N     N_R   0.105410 0.602620 0.056870 -0.042576
N21   N     N_R   0.105410 0.397380 0.056870 -0.043843
N22   N     N_R   0.549680 0.896430 0.944180 -0.043725
N23   N     N_R   0.892140 0.602630 0.941800 -0.039198
N24   N     N_R   0.549680 0.103570 0.944180 -0.041444
N25   N     N_R   0.049680 0.396430 0.944180 -0.043727
N26   N     N_R   0.049680 0.603570 0.944180 -0.041447
N27   N     N_R   0.892140 0.397370 0.941800 -0.041600
N28   N     N_R   0.450890 0.896450 0.057150 -0.053906
N29   N     N_R   0.450890 0.103550 0.057150 -0.052105
N30   N     N_R   0.950890 0.396450 0.057150 -0.053897
N31   N     N_R   0.950890 0.603550 0.057150 -0.052113
N32   N     N_R   0.525160 0.027960 0.206160 -0.040124
Ni1   Ni    Ni4+2 0.433410 0.064680 0.868830 0.207390
Ni2   Ni    Ni4+2 0.433410 0.935320 0.868830 0.215018
Ni3   Ni    Ni4+2 0.933410 0.564680 0.868830 0.207386
Ni4   Ni    Ni4+2 0.933410 0.435320 0.868830 0.215019
Ni5   Ni    Ni4+2 0.565650 0.934380 0.131170 0.212517
Ni6   Ni    Ni4+2 0.565650 0.065620 0.131170 0.216802
Ni7   Ni    Ni4+2 0.065650 0.434380 0.131170 0.212519
Ni8   Ni    Ni4+2 0.065650 0.565620 0.131170 0.216802

loop_
_geom_bond_atom_site_label_1
_geom_bond_atom_site_label_2
_ccdc_geom_bond_type
C33   H26   S    
C58   C62   A    
C81   H36   S    
C30   H22   S    
C24   N23   A    
N3    Ni8   S    
C31   C85   A    
C22   C29   S    
C16   H56   S    
C97   H43   S    
C54   F1    S    
C11   C47   S    
C95   H41   S    
C12   C48   S    
C68   H51   S    
C83   N7    A    
C71   H30   S    
C82   C92   A    
C4    N25   A    
C39   C41   A    
N26   Ni3   S    
C76   H33   S    
C34   H9    S    
C15   C19   S    
C40   H17   S    
C12   C68   A    
C29   C36   S    
C3    H48   S    
C21   H64   S    
C65   H73   S    
C82   N6    A    
C3    C9    A    
N29   Ni6   S    
N32   Ni6   S    
C74   C89   A    
N23   Ni3   S    
C51   H68   S    
C61   C88   S    
C8    C99   A    
C69   H28   S    
C35   H34   S    
C22   H4    S    
C46   N18   A    
C14   C49   S    
C26   C92   S    
C39   H16   S    
C83   C93   A    
N6    Ni1   S    
C99   N15   A    
C77   N4    A    
C40   C62   A    
N5    Ni2   S    
C98   N14   A    
C6    C78   S    
N1    N29   A    
C67   C72   A    
C23   C26   S    
N12   Ni2   S    
N21   N25   A    
C20   H63   S    
C8    C98   A    
C15   H58   S    
C25   H8    S    
N11   Ni3   S    
C5    N26   A    
C81   C92   A    
C18   H61   S    
N4    Ni7   S    
C37   H14   S    
N25   Ni4   S    
C79   N21   A    
N19   Ni5   S    
C13   C86   A    
C53   H70   S    
N19   N22   A    
C76   C91   A    
C19   H62   S    
C30   C86   A    
C76   N3    A    
C43   C48   A    
C95   N10   A    
C9    C29   S    
C42   C47   A    
C40   C42   A    
N14   N15   A    
C79   H52   S    
C28   C34   S    
C16   H59   S    
C65   C80   A    
C55   C60   A    
C57   N19   A    
C16   C26   S    
N12   N28   A    
N23   N31   A    
N18   Ni6   S    
C31   H24   S    
C10   C45   S    
C82   H37   S    
C23   H5    S    
C81   N5    A    
C32   H25   S    
N8    Ni3   S    
C52   C54   A    
C42   H19   S    
N14   Ni5   S    
C20   H2    S    
C54   C59   A    
C100  N16   A    
C100  H47   S    
C1    C85   A    
C39   C61   A    
C99   H46   S    
C63   C67   A    
C44   H21   S    
C17   C27   S    
C2    N24   A    
N21   Ni7   S    
C5    C12   A    
C71   C73   A    
C1    N1    A    
C75   H32   S    
C15   C26   S    
C47   C51   A    
C20   C28   S    
C84   H39   S    
C6    C94   A    
C64   C69   A    
C21   C29   S    
N24   Ni1   S    
C44   C49   A    
C17   C21   S    
N30   Ni7   S    
C74   N32   A    
C5    H57   S    
C41   H18   S    
C37   C43   A    
C69   C72   A    
N3    N4    A    
N11   N13   A    
C38   C44   A    
C7    C96   A    
C17   H60   S    
C24   H23   S    
C32   N30   A    
C35   C88   A    
C66   C71   A    
C55   F2    S    
N31   Ni8   S    
C16   C20   S    
C23   C34   S    
C30   N28   A    
C74   H31   S    
C70   C73   A    
N2    N32   A    
C50   H66   S    
C51   C58   A    
C31   N29   A    
C14   C79   A    
N22   Ni2   S    
C36   H13   S    
N10   Ni2   S    
C73   C91   S    
C37   C59   A    
N9    Ni1   S    
N27   N30   A    
C38   C60   A    
C38   H15   S    
C35   N27   A    
C21   H3    S    
C18   H75   S    
C9    C100  A    
C19   C28   S    
C25   C27   S    
N20   Ni8   S    
C27   C93   S    
C58   F4    S    
C53   C55   A    
C2    C10   A    
C10   C46   A    
C15   H45   S    
N16   Ni7   S    
C96   H42   S    
C96   N11   A    
N13   Ni4   S    
C57   H50   S    
C75   N2    A    
N28   Ni5   S    
C23   H6    S    
C52   H69   S    
N7    Ni4   S    
C77   C91   A    
N20   N26   A    
C7    C97   A    
C18   C22   S    
C64   C78   A    
C67   H27   S    
C18   C27   S    
C77   H35   S    
C56   F3    S    
N16   N17   A    
C83   H38   S    
C60   C85   S    
C17   H67   S    
C63   H71   S    
C34   H10   S    
C66   C80   A    
C62   C87   S    
C22   H65   S    
C68   N20   A    
C94   H40   S    
C90   H53   S    
C64   H72   S    
C33   C87   A    
C59   C86   S    
N7    N8    A    
N2    Ni5   S    
N18   N24   A    
C72   C89   S    
C33   N31   A    
C11   C90   A    
N5    N6    A    
C98   H44   S    
C45   C50   A    
C70   H29   S    
C49   C53   A    
C43   H20   S    
N27   Ni4   S    
C3    N17   A    
C13   N12   A    
C84   C93   A    
C46   H49   S    
C4    C14   A    
N9    N10   A    
C24   C87   A    
C50   C56   A    
C94   N9    A    
C13   H12   S    
C84   N8    A    
C25   H7    S    
C25   C36   S    
C4    H55   S    
C48   C52   A    
C2    H54   S    
C8    C28   S    
C6    C95   A    
C75   C89   A    
C97   N13   A    
C41   C45   A    
C56   C61   A    
N1    Ni1   S    
C90   N22   A    
C11   C57   A    
C36   H11   S    
C19   H76   S    
C63   C78   A    
N15   Ni6   S    
C65   C70   A    
C1    H1    S    
C7    C80   S    
C66   H74   S    
N17   Ni8   S    
C32   C88   A    
