data_mof_unit_8260.cif
_audit_creation_date              2012-12-10T18:40:27-0500
_audit_creation_method            fapswitch 2.2
_symmetry_space_group_name_H-M    P1
_symmetry_Int_Tables_number       1
_space_group_crystal_system       triclinic
_cell_length_a                    10.74117
_cell_length_b                    11.579155
_cell_length_c                    15.751308
_cell_angle_alpha                 89.996746
_cell_angle_beta                  83.634974
_cell_angle_gamma                 89.958052
_cell_volume                      1946.97148632

loop_
_atom_site_label
_atom_site_type_symbol
_atom_type_description
_atom_site_fract_x
_atom_site_fract_y
_atom_site_fract_z
_atom_type_partial_charge
C1    C     C_R   0.499979 0.718967 0.499973 0.894564
C2    C     C_R   0.500043 0.281026 0.499970 0.914780
C3    C     C_1   0.499973 0.839009 0.499880 -0.177127
C4    C     C_1   0.500123 0.160953 0.499895 -0.179798
C5    C     C_1   0.500042 0.940846 0.499833 0.013970
C6    C     C_1   0.500115 0.059107 0.499843 0.013382
C7    C     C_1   0.930343 0.500035 0.499993 0.037918
C8    C     C_1   0.069661 0.500034 0.499978 0.033881
C9    C     C_R   0.480415 0.502717 0.657935 0.944324
C10   C     C_R   0.519132 0.504894 0.342595 0.970596
C11   C     C_R   0.461418 0.531571 0.751389 -0.353486
C12   C     C_R   0.534158 0.541693 0.251328 -0.347927
C13   C     C_R   0.565811 0.551621 0.796880 0.413756
C14   C     C_R   0.439370 0.516457 0.199063 0.424563
C15   C     C_R   0.548918 0.601523 0.879756 0.315853
C16   C     C_R   0.440508 0.569453 0.117727 0.311854
C17   C     C_R   0.431569 0.649784 0.910182 -0.143606
C18   C     C_R   0.523136 0.662629 0.095725 -0.166030
C19   C     C_R   0.325458 0.620006 0.869399 0.522718
C20   C     C_R   0.626023 0.678688 0.143335 0.521044
C21   C     C_R   0.339769 0.557542 0.792344 -0.237382
C22   C     C_R   0.631848 0.618222 0.220312 -0.246995
C23   C     C_2   0.420537 0.748888 0.971704 0.478481
C24   C     C_2   0.489088 0.760309 0.039591 0.478688
N1    N     N_1   0.819370 0.500000 0.500010 -0.067347
N2    N     N_1   0.180630 0.500000 0.499990 -0.070857
O1    O     O_R   0.397470 0.665550 0.500010 -0.609167
O2    O     O_R   0.602530 0.334450 0.499990 -0.603247
O3    O     O_R   0.602530 0.665550 0.499990 -0.611516
O4    O     O_R   0.397470 0.334450 0.500010 -0.598367
O5    O     O_R   0.385350 0.500000 0.615800 -0.606511
O6    O     O_R   0.614650 0.500000 0.384200 -0.612385
O7    O     O_R   0.590410 0.500000 0.615800 -0.554882
O8    O     O_R   0.409590 0.500000 0.384200 -0.573221
Zn1   Zn    Zn3+2 0.363080 0.500000 0.500000 0.986592
Zn2   Zn    Zn3+2 0.636920 0.500000 0.500000 0.988276
O9    O     O_3   0.684928 0.522549 0.760173 -0.589708
C25   C     C_3   0.749961 0.624249 0.732571 -0.205382
H1    H     H_    0.776661 0.675201 0.787462 0.181268
H2    H     H_    0.694944 0.679051 0.692078 0.144725
H3    H     H_    0.837798 0.599277 0.693056 0.183472
O10   O     O_3   0.345742 0.439048 0.228092 -0.599569
C26   C     C_3   0.231460 0.499095 0.247609 -0.221029
H4    H     H_    0.187290 0.518858 0.188836 0.177131
H5    H     H_    0.242746 0.579965 0.284371 0.152088
H6    H     H_    0.165867 0.442636 0.288040 0.176286
C27   C     C_1   0.731679 0.648238 0.271118 0.315065
N3    N     N_1   0.811605 0.672506 0.311412 -0.211558
C28   C     C_1   0.226890 0.529844 0.753923 0.317546
N4    N     N_1   0.136340 0.507870 0.723710 -0.216897
O11   O     O_3   0.506076 0.870278 0.072123 -0.599389
C29   C     C_3   0.584986 0.936378 0.012786 -0.178924
H7    H     H_    0.661166 0.884438 0.977208 0.161190
H8    H     H_    0.630441 0.004255 0.048305 0.181082
H9    H     H_    0.529545 0.980781 0.967121 0.173708
O12   O     O_3   0.355932 0.844140 0.944958 -0.604388
C30   C     C_3   0.257332 0.875483 0.007928 -0.182371
H10   H     H_    0.214913 0.800522 0.044967 0.145724
H11   H     H_    0.181899 0.916382 0.975634 0.180490
H12   H     H_    0.290060 0.940481 0.052188 0.180562
O13   O     O_3   0.209821 0.668776 0.896655 -0.569829
C31   C     C_3   0.134309 0.588942 0.946755 -0.311382
H13   H     H_    0.034659 0.609919 0.941504 0.170585
H14   H     H_    0.149039 0.497399 0.926247 0.143014
H15   H     H_    0.149080 0.598304 0.014911 0.205809
O14   O     O_3   0.709368 0.768572 0.123221 -0.559898
C32   C     C_3   0.820376 0.725278 0.077988 -0.335301
H16   H     H_    0.851726 0.641572 0.103377 0.131905
H17   H     H_    0.808832 0.716960 0.009249 0.212179
H18   H     H_    0.896503 0.788675 0.083273 0.186504
O15   O     O_3   0.352451 0.539106 0.064094 -0.651813
C33   C     C_3   0.367909 0.421881 0.039448 -0.282691
H19   H     H_    0.465950 0.389774 0.038471 0.146816
H20   H     H_    0.341839 0.411964 0.973716 0.152664
H21   H     H_    0.303682 0.366387 0.081698 0.213388
O16   O     O_3   0.649843 0.617022 0.926170 -0.648238
C34   C     C_3   0.705939 0.509513 0.942117 -0.276578
H22   H     H_    0.794080 0.499118 0.898881 0.208330
H23   H     H_    0.644479 0.433073 0.935928 0.151729
H24   H     H_    0.730887 0.509146 0.008521 0.146296

loop_
_geom_bond_atom_site_label_1
_geom_bond_atom_site_label_2
_ccdc_geom_bond_type
C8    N2    T    
C21   C28   S    
C7    C8    S    
C34   H22   S    
O3    Zn2   S    
C17   C23   S    
O4    Zn1   S    
C18   C24   S    
O6    Zn2   S    
C20   O14   S    
C19   C21   A    
C5    C6    S    
C30   H11   S    
C12   C22   A    
O7    Zn2   S    
O12   C30   S    
O8    Zn1   S    
C31   H14   S    
C15   O16   S    
C23   C24   D    
C14   C16   A    
C13   O9    S    
C29   H9    S    
C14   O10   S    
C24   O11   S    
C22   C27   S    
C9    O7    A    
C16   O15   S    
C33   H21   S    
C29   H8    S    
C34   H23   S    
C32   H16   S    
C23   O12   S    
O16   C34   S    
C25   H3    S    
C4    C6    T    
C30   H12   S    
O1    Zn1   S    
C11   C21   A    
O11   C29   S    
C1    C3    S    
C2    C4    S    
C26   H4    S    
O9    C25   S    
C9    C11   S    
C27   N3    T    
C31   H13   S    
C1    O3    A    
C10   O8    A    
C26   H5    S    
C10   C12   S    
C33   H20   S    
C12   C14   A    
C13   C15   A    
O5    Zn1   S    
O10   C26   S    
C29   H7    S    
C34   H24   S    
C15   C17   A    
C31   H15   S    
C20   C22   A    
C33   H19   S    
C3    C5    T    
C7    N1    T    
C2    O4    A    
C32   H18   S    
O15   C33   S    
C25   H2    S    
C11   C13   A    
C30   H10   S    
C25   H1    S    
C19   O13   S    
C17   C19   A    
O14   C32   S    
C18   C20   A    
O13   C31   S    
C26   H6    S    
C9    O5    A    
N1    Zn2   S    
C10   O6    A    
N2    Zn1   S    
O2    Zn2   S    
C16   C18   A    
C28   N4    T    
C1    O1    A    
C2    O2    A    
C32   H17   S    
