data_mof_unit_54828.cif
_audit_creation_date              2012-12-11T16:21:22-0500
_audit_creation_method            fapswitch 2.2
_symmetry_space_group_name_H-M    P1
_symmetry_Int_Tables_number       1
_space_group_crystal_system       triclinic
_cell_length_a                    7.183764
_cell_length_b                    36.966896
_cell_length_c                    41.39313
_cell_angle_alpha                 90.000757
_cell_angle_beta                  89.99934
_cell_angle_gamma                 89.999016
_cell_volume                      10992.4198959

loop_
_atom_site_label
_atom_site_type_symbol
_atom_type_description
_atom_site_fract_x
_atom_site_fract_y
_atom_site_fract_z
_atom_type_partial_charge
O1    O     O_R   0.564240 0.782760 0.216890 -0.525113
O2    O     O_R   0.435760 0.217240 0.783110 -0.525113
O3    O     O_R   0.435760 0.217240 0.716890 -0.525123
O4    O     O_R   0.564240 0.782760 0.283110 -0.525123
O5    O     O_R   0.064240 0.717240 0.283110 -0.525123
O6    O     O_R   0.935760 0.282760 0.716890 -0.525123
O7    O     O_R   0.935760 0.282760 0.783110 -0.525137
O8    O     O_R   0.064240 0.717240 0.216890 -0.525137
O9    O     O_R   0.234510 0.787070 0.282870 -0.510283
O10   O     O_R   0.765490 0.212930 0.717130 -0.510283
O11   O     O_R   0.765490 0.212930 0.782870 -0.510285
O12   O     O_R   0.234510 0.787070 0.217130 -0.510285
O13   O     O_R   0.734510 0.712930 0.217130 -0.510312
O14   O     O_R   0.265490 0.287070 0.782870 -0.510312
O15   O     O_R   0.265490 0.287070 0.717130 -0.510284
O16   O     O_R   0.734510 0.712930 0.282870 -0.510284
C1    C     C_R   0.403315 0.796048 0.293505 0.819442
C2    C     C_R   0.596685 0.203952 0.706495 0.819442
C3    C     C_R   0.596684 0.203952 0.793505 0.819442
C4    C     C_R   0.403316 0.796048 0.206495 0.819442
C5    C     C_R   0.903317 0.703954 0.206494 0.819453
C6    C     C_R   0.096683 0.296046 0.793506 0.819453
C7    C     C_R   0.096683 0.296047 0.706494 0.819450
C8    C     C_R   0.903317 0.703953 0.293506 0.819449
O17   O     O_3   0.397750 0.727090 0.250000 -0.361500
O18   O     O_3   0.602250 0.272910 0.750000 -0.361500
O19   O     O_3   0.897750 0.772910 0.250000 -0.361468
O20   O     O_3   0.102250 0.227090 0.750000 -0.361468
V1    V     V_3+5 0.122890 0.754250 0.250000 1.765610
V2    V     V_3+5 0.877110 0.245750 0.750000 1.765610
V3    V     V_3+5 0.622890 0.745750 0.250000 1.765593
V4    V     V_3+5 0.377110 0.254250 0.750000 1.765593
C9    C     C_R   0.947603 0.613850 0.429724 0.714082
C10   C     C_R   0.052397 0.386150 0.570276 0.714082
C11   C     C_R   0.051390 0.386134 0.929715 0.714285
C12   C     C_R   0.948610 0.613866 0.070285 0.714285
C13   C     C_R   0.447346 0.886157 0.070278 0.714023
C14   C     C_R   0.552654 0.113842 0.929722 0.714023
C15   C     C_R   0.552575 0.113844 0.570279 0.714038
C16   C     C_R   0.447425 0.886156 0.429721 0.714038
O21   O     O_2   0.969032 0.649649 0.434424 -0.453529
O22   O     O_2   0.030968 0.350351 0.565576 -0.453529
O23   O     O_2   0.029129 0.350350 0.934387 -0.453529
O24   O     O_2   0.970871 0.649650 0.065613 -0.453529
O25   O     O_2   0.468567 0.850355 0.065570 -0.453524
O26   O     O_2   0.531433 0.149645 0.934430 -0.453524
O27   O     O_2   0.531273 0.149645 0.565575 -0.453529
O28   O     O_2   0.468727 0.850355 0.434425 -0.453529
N1    N     N_R   0.923491 0.601463 0.398820 -0.528609
N2    N     N_R   0.076509 0.398537 0.601180 -0.528609
N3    N     N_R   0.076450 0.398515 0.898833 -0.528604
N4    N     N_R   0.923550 0.601485 0.101166 -0.528604
N5    N     N_R   0.423496 0.898547 0.101187 -0.528610
N6    N     N_R   0.576503 0.101453 0.898813 -0.528610
N7    N     N_R   0.576515 0.101455 0.601186 -0.528611
N8    N     N_R   0.423484 0.898545 0.398814 -0.528611
C17   C     C_R   0.904747 0.565353 0.392607 0.716671
C18   C     C_R   0.095253 0.434647 0.607393 0.716671
C19   C     C_R   0.096103 0.434611 0.892644 0.716421
C20   C     C_R   0.903897 0.565389 0.107356 0.716421
C21   C     C_R   0.405003 0.934661 0.107407 0.716736
C22   C     C_R   0.594997 0.065339 0.892593 0.716736
C23   C     C_R   0.595096 0.065343 0.607403 0.716715
C24   C     C_R   0.404904 0.934657 0.392597 0.716715
C25   C     C_R   0.067264 0.628386 0.350280 0.678312
C26   C     C_R   0.932736 0.371614 0.649719 0.678312
C27   C     C_R   0.932807 0.371631 0.850269 0.678308
C28   C     C_R   0.067193 0.628369 0.149731 0.678308
C29   C     C_R   0.567284 0.871614 0.149723 0.678328
C30   C     C_R   0.432716 0.128386 0.850277 0.678328
C31   C     C_R   0.432735 0.128384 0.649724 0.678328
C32   C     C_R   0.567265 0.871616 0.350276 0.678328
C33   C     C_R   0.064658 0.652951 0.324397 0.119502
C34   C     C_R   0.935342 0.347049 0.675603 0.119502
C35   C     C_R   0.935416 0.347067 0.824384 0.119396
C36   C     C_R   0.064584 0.652933 0.175616 0.119396
C37   C     C_R   0.564666 0.847050 0.175606 0.119500
C38   C     C_R   0.435334 0.152950 0.824394 0.119500
C39   C     C_R   0.435349 0.152948 0.675608 0.119480
C40   C     C_R   0.564651 0.847052 0.324392 0.119480
C41   C     C_R   0.763636 0.675040 0.342836 0.627421
C42   C     C_R   0.236364 0.324960 0.657164 0.627421
C43   C     C_R   0.236279 0.324932 0.842855 0.627439
C44   C     C_R   0.763721 0.675068 0.157145 0.627439
C45   C     C_R   0.263627 0.824970 0.157170 0.627428
C46   C     C_R   0.736373 0.175030 0.842830 0.627428
C47   C     C_R   0.736374 0.175033 0.657169 0.627416
C48   C     C_R   0.263626 0.824967 0.342831 0.627416
C49   C     C_R   0.768072 0.650292 0.368392 -0.189972
C50   C     C_R   0.231928 0.349708 0.631608 -0.189973
C51   C     C_R   0.231818 0.349673 0.868418 -0.190135
C52   C     C_R   0.768181 0.650327 0.131582 -0.190135
C53   C     C_R   0.268063 0.849721 0.131616 -0.189929
C54   C     C_R   0.731937 0.150279 0.868383 -0.189929
C55   C     C_R   0.731940 0.150283 0.631614 -0.189943
C56   C     C_R   0.268060 0.849717 0.368385 -0.189943
C57   C     C_R   0.919371 0.626873 0.372299 0.093266
C58   C     C_R   0.080629 0.373127 0.627701 0.093266
C59   C     C_R   0.080598 0.373114 0.872308 0.093471
C60   C     C_R   0.919402 0.626886 0.127692 0.093471
C61   C     C_R   0.419378 0.873135 0.127707 0.093203
C62   C     C_R   0.580622 0.126865 0.872293 0.093203
C63   C     C_R   0.580634 0.126866 0.627707 0.093224
C64   C     C_R   0.419366 0.873134 0.372293 0.093224
C65   C     C_R   0.949470 0.551764 0.449697 -0.097755
C66   C     C_R   0.050530 0.448236 0.550303 -0.097755
C67   C     C_R   0.050448 0.448213 0.949710 -0.097724
C68   C     C_R   0.949552 0.551787 0.050290 -0.097724
C69   C     C_R   0.449462 0.948244 0.050309 -0.097762
C70   C     C_R   0.550538 0.051756 0.949690 -0.097762
C71   C     C_R   0.550544 0.051757 0.550308 -0.097761
C72   C     C_R   0.449456 0.948242 0.449692 -0.097761
C73   C     C_R   0.954708 0.589345 0.456193 -0.232772
C74   C     C_R   0.045292 0.410655 0.543807 -0.232772
C75   C     C_R   0.044211 0.410635 0.956189 -0.232854
C76   C     C_R   0.955789 0.589365 0.043811 -0.232854
C77   C     C_R   0.454410 0.910664 0.043809 -0.232750
C78   C     C_R   0.545590 0.089336 0.956191 -0.232750
C79   C     C_R   0.545503 0.089338 0.543810 -0.232754
C80   C     C_R   0.454497 0.910662 0.456190 -0.232754
C81   C     C_R   0.960775 0.600737 0.488806 0.269055
C82   C     C_R   0.039225 0.399263 0.511194 0.269055
C83   C     C_R   0.037127 0.399233 0.988793 0.268974
C84   C     C_R   0.962873 0.600767 0.011207 0.268974
C85   C     C_R   0.460157 0.899273 0.011194 0.269077
C86   C     C_R   0.539843 0.100727 0.988806 0.269077
C87   C     C_R   0.539658 0.100730 0.511196 0.269071
C88   C     C_R   0.460342 0.899270 0.488804 0.269071
C89   C     C_R   0.918202 0.539963 0.417759 -0.031845
C90   C     C_R   0.081798 0.460037 0.582241 -0.031845
C91   C     C_R   0.082685 0.460001 0.917798 -0.031778
C92   C     C_R   0.917315 0.539999 0.082202 -0.031778
C93   C     C_R   0.418478 0.960050 0.082254 -0.031863
C94   C     C_R   0.581522 0.039950 0.917746 -0.031863
C95   C     C_R   0.581623 0.039953 0.582250 -0.031857
C96   C     C_R   0.418377 0.960047 0.417750 -0.031857
C97   C     C_R   0.911486 0.676897 0.320327 -0.339749
C98   C     C_R   0.088514 0.323103 0.679672 -0.339749
C99   C     C_R   0.088512 0.323100 0.820330 -0.339655
C100  C     C_R   0.911488 0.676900 0.179670 -0.339654
C101  C     C_R   0.411486 0.823107 0.179676 -0.339750
C102  C     C_R   0.588514 0.176893 0.820324 -0.339750
C103  C     C_R   0.588520 0.176894 0.679676 -0.339762
C104  C     C_R   0.411480 0.823106 0.320324 -0.339762
H1    H     H_    0.653371 0.649382 0.385352 0.211977
H2    H     H_    0.346628 0.350618 0.614648 0.211978
H3    H     H_    0.346436 0.350561 0.885395 0.211847
H4    H     H_    0.653564 0.649439 0.114605 0.211847
H5    H     H_    0.153349 0.850636 0.114660 0.212010
H6    H     H_    0.846651 0.149364 0.885340 0.212010
H7    H     H_    0.846648 0.149369 0.614656 0.211994
H8    H     H_    0.153352 0.850631 0.385344 0.211994
C105  C     C_R   0.033731 0.511798 0.532118 0.108550
C106  C     C_R   0.966269 0.488202 0.467882 0.108550
C107  C     C_R   0.965283 0.488218 0.032090 0.108552
C108  C     C_R   0.034717 0.511782 0.967909 0.108552
C109  C     C_R   0.533426 0.988196 0.967874 0.108549
C110  C     C_R   0.466573 0.011804 0.032126 0.108549
C111  C     C_R   0.466475 0.011802 0.467877 0.108549
C112  C     C_R   0.533525 0.988197 0.532123 0.108549
C113  C     C_R   0.002162 0.462205 0.492706 -0.140397
C114  C     C_R   0.997838 0.537795 0.507294 -0.140397
C115  C     C_R   0.998882 0.537800 0.992720 -0.140466
C116  C     C_R   0.001118 0.462200 0.007280 -0.140466
C117  C     C_R   0.502474 0.037793 0.007296 -0.140369
C118  C     C_R   0.497526 0.962207 0.992703 -0.140369
C119  C     C_R   0.497622 0.962206 0.507295 -0.140377
C120  C     C_R   0.502378 0.037794 0.492705 -0.140377
C121  C     C_R   0.027058 0.474135 0.524966 0.007517
C122  C     C_R   0.972942 0.525865 0.475034 0.007517
C123  C     C_R   0.972989 0.525879 0.024958 0.007497
C124  C     C_R   0.027011 0.474121 0.975042 0.007497
C125  C     C_R   0.527064 0.025861 0.975030 0.007522
C126  C     C_R   0.472936 0.974139 0.024970 0.007522
C127  C     C_R   0.472933 0.974138 0.475031 0.007521
C128  C     C_R   0.527067 0.025862 0.524969 0.007521
C129  C     C_R   0.087068 0.522080 0.563698 -0.069660
C130  C     C_R   0.912932 0.477920 0.436302 -0.069660
C131  C     C_R   0.911013 0.477969 0.063631 -0.069769
C132  C     C_R   0.088986 0.522031 0.936369 -0.069769
C133  C     C_R   0.586475 0.977903 0.936283 -0.069617
C134  C     C_R   0.413525 0.022097 0.063717 -0.069617
C135  C     C_R   0.413331 0.022093 0.436290 -0.069628
C136  C     C_R   0.586669 0.977907 0.563710 -0.069628
C137  C     C_R   0.105062 0.496883 0.588355 -0.118999
C138  C     C_R   0.894938 0.503117 0.411645 -0.118999
C139  C     C_R   0.893069 0.503171 0.088287 -0.119015
C140  C     C_R   0.106931 0.496829 0.911713 -0.119015
C141  C     C_R   0.604489 0.003098 0.911624 -0.119002
C142  C     C_R   0.395511 0.996902 0.088376 -0.119002
C143  C     C_R   0.395317 0.996897 0.411631 -0.119001
C144  C     C_R   0.604683 0.003103 0.588368 -0.119001
O29   O     O_2   0.126203 0.445982 0.637922 -0.468398
O30   O     O_2   0.873797 0.554017 0.362078 -0.468398
O31   O     O_2   0.872078 0.554068 0.137862 -0.468439
O32   O     O_2   0.127922 0.445932 0.862138 -0.468439
O33   O     O_2   0.625726 0.053999 0.862059 -0.468401
O34   O     O_2   0.374274 0.946001 0.137941 -0.468401
O35   O     O_2   0.374086 0.945996 0.362066 -0.468405
O36   O     O_2   0.625914 0.054004 0.637934 -0.468405
C145  C     C_R   0.974832 0.575278 0.513713 0.563205
C146  C     C_R   0.025168 0.424722 0.486287 0.563205
C147  C     C_R   0.023098 0.424694 0.013700 0.563201
C148  C     C_R   0.976902 0.575306 0.986300 0.563201
C149  C     C_R   0.474213 0.924731 0.986286 0.563205
C150  C     C_R   0.525787 0.075269 0.013713 0.563205
C151  C     C_R   0.525598 0.075272 0.486288 0.563200
C152  C     C_R   0.474402 0.924728 0.513712 0.563200
H9    H     H_    0.140703 0.506505 0.612295 0.196585
H10   H     H_    0.859297 0.493495 0.387705 0.196585
H11   H     H_    0.856675 0.493570 0.112199 0.196591
H12   H     H_    0.143325 0.506430 0.887801 0.196591
H13   H     H_    0.639906 0.993469 0.887676 0.196577
H14   H     H_    0.360094 0.006530 0.112324 0.196577
H15   H     H_    0.359823 0.006523 0.387687 0.196577
H16   H     H_    0.640177 0.993476 0.612313 0.196577
H17   H     H_    0.123972 0.549377 0.570009 0.219023
H18   H     H_    0.876028 0.450623 0.429991 0.219023
H19   H     H_    0.873324 0.450703 0.069907 0.218982
H20   H     H_    0.126676 0.549297 0.930093 0.218982
H21   H     H_    0.623146 0.950597 0.929962 0.219026
H22   H     H_    0.376854 0.049403 0.070038 0.219026
H23   H     H_    0.376586 0.049396 0.429974 0.219019
H24   H     H_    0.623414 0.950604 0.570026 0.219019
F1    F     F_    0.615888 0.697827 0.340735 -0.619748
F2    F     F_    0.384112 0.302173 0.659265 -0.619748
F3    F     F_    0.383958 0.302126 0.840765 -0.619802
F4    F     F_    0.616042 0.697874 0.159235 -0.619802
F5    F     F_    0.115869 0.802186 0.159271 -0.619723
F6    F     F_    0.884131 0.197814 0.840728 -0.619723
F7    F     F_    0.884123 0.197819 0.659269 -0.619745
F8    F     F_    0.115877 0.802181 0.340731 -0.619745
Br1   Br    Br    0.932785 0.650469 0.502354 -0.191758
Br2   Br    Br    0.067215 0.349531 0.497646 -0.191758
Br3   Br    Br    0.063606 0.349472 0.002342 -0.191661
Br4   Br    Br    0.936394 0.650528 0.997658 -0.191661
Br5   Br    Br    0.431678 0.849552 0.997649 -0.191788
Br6   Br    Br    0.568322 0.150448 0.002351 -0.191788
Br7   Br    Br    0.568003 0.150454 0.497651 -0.191798
Br8   Br    Br    0.431997 0.849546 0.502348 -0.191798
Br9   Br    Br    0.728381 0.349160 0.705014 -0.294498
Br10  Br    Br    0.271619 0.650840 0.294986 -0.294498
Br11  Br    Br    0.271423 0.650795 0.205050 -0.294615
Br12  Br    Br    0.728577 0.349204 0.794949 -0.294615
Br13  Br    Br    0.228387 0.150841 0.794980 -0.294554
Br14  Br    Br    0.771612 0.849159 0.205020 -0.294554
Br15  Br    Br    0.771589 0.849164 0.294975 -0.294575
Br16  Br    Br    0.228411 0.150836 0.705025 -0.294575
F9    F     F_    0.785186 0.394168 0.645817 -0.602987
F10   F     F_    0.214814 0.605832 0.354183 -0.602987
F11   F     F_    0.214640 0.605785 0.145847 -0.602941
F12   F     F_    0.785360 0.394215 0.854152 -0.602941
F13   F     F_    0.285143 0.105839 0.854182 -0.603000
F14   F     F_    0.714857 0.894161 0.145818 -0.603000
F15   F     F_    0.714826 0.894167 0.354178 -0.602997
F16   F     F_    0.285174 0.105833 0.645822 -0.602997
F17   F     F_    0.946431 0.587724 0.544143 -0.630453
F18   F     F_    0.053569 0.412276 0.455857 -0.630453
F19   F     F_    0.050533 0.412211 0.044144 -0.630351
F20   F     F_    0.949467 0.587789 0.955856 -0.630351
F21   F     F_    0.445488 0.912297 0.955862 -0.630484
F22   F     F_    0.554511 0.087703 0.044138 -0.630484
F23   F     F_    0.554233 0.087708 0.455862 -0.630474
F24   F     F_    0.445767 0.912292 0.544138 -0.630474

loop_
_geom_bond_atom_site_label_1
_geom_bond_atom_site_label_2
_ccdc_geom_bond_type
O17   V3    S    
C48   C56   A    
C16   C80   A    
O18   V4    S    
C26   C58   A    
O12   V1    S    
C52   H4    S    
C108  C132  A    
O7    C6    A    
C7    C98   S    
C29   C37   A    
C41   C49   A    
C10   O22   S    
C113  C121  A    
N6    C62   S    
C20   C92   A    
C31   C39   A    
C90   C137  A    
N1    C17   A    
O15   V4    S    
C43   F3    S    
C111  C120  A    
O16   V3    S    
C41   C97   A    
C109  C125  A    
C150  F22   S    
O11   C3    A    
C109  C133  A    
N4    C20   A    
C66   C74   A    
C1    C104  S    
O8    V1    S    
N5    C61   S    
C94   C141  A    
C17   C89   A    
C30   C38   A    
C50   C58   A    
O10   C2    A    
C68   C123  A    
C146  F18   S    
C15   C79   A    
C131  C139  A    
C117  C125  A    
C134  C142  A    
C56   H8    S    
N7    C63   S    
O1    V3    S    
C38   Br13  S    
C129  C137  A    
C23   O36   S    
C106  C122  A    
N5    C21   A    
O2    V4    S    
C37   Br14  S    
C112  C119  A    
C85   C149  A    
C16   O28   S    
C78   C86   A    
C87   C151  A    
C35   Br12  S    
C46   C54   A    
C143  H15   S    
C86   C150  A    
C34   Br9   S    
C53   H5    S    
C110  C126  A    
C15   N7    A    
C33   Br10  S    
C108  C115  A    
C147  F19   S    
C40   C104  A    
N7    C23   A    
C93   C142  A    
C136  C144  A    
C11   C75   A    
C118  C149  A    
C115  C123  A    
C117  C150  A    
C12   N4    A    
C27   C59   A    
C13   N5    A    
C27   F12   S    
O15   C7    A    
C26   F9    S    
C14   N6    A    
O16   C8    A    
O7    V2    S    
C111  C127  A    
C89   C138  A    
C129  H17   S    
C112  C128  A    
C132  C140  A    
C20   O31   S    
C21   O34   S    
C133  C141  A    
C72   C96   A    
C151  F23   S    
C30   F13   S    
C43   C99   A    
O3    C2    A    
C107  C131  A    
C29   F14   S    
C48   F8    S    
O5    V1    S    
C67   C124  A    
C36   C100  A    
C132  H20   S    
N3    C59   S    
C96   C143  A    
C31   F16   S    
C105  C129  A    
C115  C148  A    
N2    C58   S    
C75   C83   A    
C65   C122  A    
C55   C63   A    
C133  H21   S    
C71   C128  A    
N2    C18   A    
C45   C101  A    
C114  C145  A    
C36   Br11  S    
C45   F5    S    
C9    O21   S    
N8    C64   S    
C67   C91   A    
C21   C93   A    
C25   C33   A    
C53   C61   A    
C72   C80   A    
C52   C60   A    
C66   C90   A    
C69   C126  A    
C65   C89   A    
C32   C64   A    
C16   N8    A    
C68   C92   A    
C134  H22   S    
N6    C22   A    
C6    C99   S    
N4    C60   S    
C44   F4    S    
C92   C139  A    
C51   H3    S    
C32   C40   A    
C149  F21   S    
C49   C57   A    
C46   F6    S    
C69   C77   A    
C49   H1    S    
C28   C60   A    
C10   N2    A    
C116  C147  A    
C39   C103  A    
C84   C148  A    
C26   C34   A    
C34   C98   A    
C113  C146  A    
C45   C53   A    
C114  C122  A    
C48   C104  A    
C140  H12   S    
C10   C74   A    
C19   C91   A    
O12   C4    A    
C30   C62   A    
O8    C5    A    
C27   C35   A    
C120  C151  A    
O13   C5    A    
C152  F24   S    
C44   C52   A    
C70   C78   A    
C110  C134  A    
C44   C100  A    
C41   F1    S    
C141  H13   S    
C82   Br2   S    
C120  C128  A    
O4    C1    A    
C71   C79   A    
O9    C1    A    
O6    V2    S    
C139  H11   S    
C116  C124  A    
C3    C102  S    
C81   Br1   S    
C106  C130  A    
C119  C127  A    
C11   N3    A    
O14   C6    A    
C107  C116  A    
C66   C121  A    
C137  H9    S    
O10   V2    S    
C70   C94   A    
C55   H7    S    
C32   F15   S    
C13   O25   S    
C43   C51   A    
C12   C76   A    
C87   Br7   S    
C118  C126  A    
C11   O23   S    
C46   C102  A    
C15   O27   S    
C83   Br3   S    
C70   C125  A    
C65   C73   A    
C136  H24   S    
C56   C64   A    
C31   C63   A    
C22   C94   A    
C2    C103  S    
O1    C4    A    
C76   C84   A    
C91   C140  A    
C131  H19   S    
O2    C3    A    
C42   F2    S    
C4    C101  S    
C130  H18   S    
C107  C123  A    
C25   C57   A    
C22   O33   S    
O14   V4    S    
C9    N1    A    
C38   C102  A    
C135  C143  A    
C109  C118  A    
C40   Br15  S    
C47   C55   A    
C80   C88   A    
C29   C61   A    
C8    C97   S    
C28   C36   A    
C73   C81   A    
O19   V1    S    
C17   O30   S    
C18   O29   S    
C9    C73   A    
C42   C50   A    
C83   C147  A    
C105  C114  A    
C47   C103  A    
C39   Br16  S    
C68   C76   A    
C144  H16   S    
C138  H10   S    
C81   C145  A    
C50   H2    S    
C88   Br8   S    
C35   C99   A    
O11   V2    S    
C119  C152  A    
O9    V1    S    
C148  F20   S    
C71   C95   A    
N8    C24   A    
O5    C8    A    
C33   C97   A    
C85   Br5   S    
C18   C90   A    
C47   F7    S    
O6    C7    A    
C74   C82   A    
O20   V2    S    
C13   C77   A    
C108  C124  A    
C42   C98   A    
C67   C75   A    
C19   O32   S    
C82   C146  A    
C69   C93   A    
O3    V4    S    
O13   V3    S    
C145  F17   S    
C95   C144  A    
C14   O26   S    
O4    V3    S    
C12   O24   S    
N1    C57   S    
C84   Br4   S    
C86   Br6   S    
C130  C138  A    
C54   H6    S    
C142  H14   S    
C72   C127  A    
N3    C19   A    
C54   C62   A    
C37   C101  A    
C135  H23   S    
C24   O35   S    
C105  C121  A    
C28   F11   S    
C14   C78   A    
C24   C96   A    
C88   C152  A    
C5    C100  S    
C111  C135  A    
C51   C59   A    
C25   F10   S    
C77   C85   A    
C112  C136  A    
C110  C117  A    
C23   C95   A    
C106  C113  A    
C79   C87   A    
