data_mof_unit_13784.cif
_audit_creation_date              2012-12-11T14:56:45-0500
_audit_creation_method            fapswitch 2.2
_symmetry_space_group_name_H-M    P1
_symmetry_Int_Tables_number       1
_space_group_crystal_system       triclinic
_cell_length_a                    10.590344
_cell_length_b                    10.65422
_cell_length_c                    17.031552
_cell_angle_alpha                 80.791406
_cell_angle_beta                  89.927708
_cell_angle_gamma                 119.949266
_cell_volume                      1636.2179248

loop_
_atom_site_label
_atom_site_type_symbol
_atom_type_description
_atom_site_fract_x
_atom_site_fract_y
_atom_site_fract_z
_atom_type_partial_charge
Br1   Br    Br    0.135858 0.100335 0.652208 -0.400983
Br2   Br    Br    0.094352 0.511748 0.875520 -0.458089
Br3   Br    Br    0.355963 0.302355 0.335351 -0.389223
Br4   Br    Br    0.893173 0.223523 0.192669 -0.421718
Br5   Br    Br    0.868203 0.160498 0.591590 -0.396213
C1    C     C_R   0.222254 0.853924 0.128598 0.546530
C2    C     C_1   0.651183 0.345141 0.707468 -0.017670
C3    C     C_R   0.496067 0.774758 0.775831 -0.136588
C4    C     C_R   0.609688 0.206199 0.101807 0.545205
C5    C     C_R   0.510935 0.755351 0.699344 -0.147428
C6    C     C_R   0.636985 0.858004 0.648385 0.030635
C7    C     C_R   0.732256 0.994831 0.669827 0.163092
C8    C     C_R   0.719702 0.012268 0.748806 -0.104485
C9    C     C_R   0.607110 0.895972 0.803530 -0.028956
C10   C     C_R   0.097173 0.907494 0.791315 -0.120742
C11   C     C_R   0.084650 0.908774 0.711611 0.139523
C12   C     C_R   0.726278 0.254751 0.307277 -0.124449
C13   C     C_R   0.060751 0.784402 0.680328 -0.014355
C14   C     C_R   0.055489 0.663759 0.731625 -0.145574
C15   C     C_R   0.092136 0.674782 0.810018 0.122248
C16   C     C_R   0.601524 0.882085 0.131286 0.532361
C17   C     C_R   0.123290 0.803719 0.837943 0.008647
C18   C     C_R   0.683089 0.813363 0.358737 0.550119
C19   C     C_R   0.680033 0.380795 0.400600 0.571211
C20   C     C_R   0.104787 0.810798 0.359458 0.561248
C21   C     C_R   0.672977 0.807251 0.581288 0.547537
C22   C     C_R   0.678434 0.382117 0.624298 0.558456
C23   C     C_R   0.724753 0.229868 0.230541 0.112120
C24   C     C_R   0.032397 0.776956 0.597003 0.556560
C25   C     C_R   0.210240 0.854643 0.904632 0.566520
C26   C     C_R   0.637732 0.284956 0.861095 0.560414
C27   C     C_R   0.598219 0.895765 0.889131 0.561491
C28   C     C_R   0.498546 0.236386 0.220289 -0.129276
C29   C     C_R   0.508436 0.274858 0.295335 0.138512
C30   C     C_R   0.630059 0.294757 0.336727 -0.001286
C31   C     C_R   0.611843 0.224923 0.184861 -0.025430
C32   C     C_1   0.634870 0.870862 0.211549 0.006810
C33   C     C_1   0.661146 0.854795 0.279314 0.013876
C34   C     C_1   0.180919 0.825778 0.211243 -0.016768
C35   C     C_1   0.152164 0.820063 0.280005 -0.015558
C36   C     C_1   0.644237 0.323644 0.778196 -0.027168
Cr1   Cr    Cr6+3 0.402240 0.783890 0.019450 1.097081
Cr2   Cr    Cr6+3 0.382360 0.097900 0.991800 1.060038
Cr3   Cr    Cr6+3 0.715380 0.118170 0.988700 1.118175
Cr4   Cr    Cr6+3 0.936650 0.882420 0.465510 1.145119
Cr5   Cr    Cr6+3 0.605770 0.565620 0.493360 1.113843
Cr6   Cr    Cr6+3 0.921340 0.550490 0.496380 1.095465
H1    H     H_    0.110712 0.003450 0.812866 0.190863
H2    H     H_    0.406193 0.224156 0.188001 0.187264
H3    H     H_    0.030135 0.564267 0.709947 0.179923
H4    H     H_    0.815556 0.259611 0.340277 0.196789
H5    H     H_    0.402145 0.688618 0.815034 0.193773
H6    H     H_    0.428678 0.653047 0.682992 0.175572
H7    H     H_    0.797982 0.113870 0.767353 0.173439
O1    O     O_R   0.521780 0.757110 0.108900 -0.469830
O2    O     O_R   0.805020 0.410040 0.421340 -0.504784
O3    O     O_R   0.049240 0.685450 0.403290 -0.486294
O4    O     O_R   0.275160 0.783810 0.101120 -0.493866
O5    O     O_R   0.077520 0.903010 0.551800 -0.430439
O6    O     O_R   0.802980 0.872780 0.546830 -0.466636
O7    O     O_R   0.578090 0.681300 0.569920 -0.522672
O8    O     O_R   0.608530 0.436370 0.586530 -0.481389
O9    O     O_R   0.798770 0.401880 0.597100 -0.483976
O10   O     O_R   0.043450 0.677890 0.566230 -0.502684
O11   O     O_3   0.821250 0.666180 0.485090 -0.315633
O12   O     O_R   0.513330 0.228330 0.898660 -0.485586
O13   O     O_R   0.237900 0.972600 0.090980 -0.505905
O14   O     O_R   0.511190 0.220540 0.061620 -0.497266
O15   O     O_R   0.736920 0.257720 0.063840 -0.426923
O16   O     O_R   0.710450 0.984050 0.081720 -0.458610
O17   O     O_R   0.524090 0.765520 0.933110 -0.481503
O18   O     O_R   0.277300 0.791600 0.938160 -0.476741
O19   O     O_R   0.240210 0.981010 0.915190 -0.519254
O20   O     O_R   0.739230 0.266130 0.888050 -0.479277
O21   O     O_R   0.712580 0.991850 0.918770 -0.482148
O22   O     O_3   0.499990 0.999980 0.999980 -0.356805
O23   O     O_R   0.083770 0.911170 0.376030 -0.461622
O24   O     O_R   0.808770 0.880340 0.383890 -0.478026
O25   O     O_R   0.584340 0.689460 0.394160 -0.484084
O26   O     O_R   0.614320 0.443940 0.423590 -0.446541

loop_
_geom_bond_atom_site_label_1
_geom_bond_atom_site_label_2
_ccdc_geom_bond_type
Cr2   O19   S    
C26   O12   A    
Cr4   O6    S    
C1    O4    A    
C14   C15   A    
C12   H4    S    
C27   O21   A    
Cr5   O8    S    
C20   O23   A    
C21   O7    A    
C4    O15   A    
C29   C30   A    
C20   C35   S    
Cr6   O9    S    
Cr5   O25   S    
C28   H2    S    
C10   C11   A    
C28   C31   A    
C2    C22   S    
C13   C14   A    
Cr3   O22   S    
C5    H6    S    
C19   O26   A    
C10   C17   A    
C24   O5    A    
Cr2   O14   S    
C4    C31   S    
Cr3   O16   S    
Cr4   O24   S    
C17   C25   S    
C3    H5    S    
C24   O10   A    
C8    C9    A    
Cr1   O4    S    
C20   O3    A    
C10   H1    S    
Br4   C23   S    
C27   O17   A    
C19   C30   S    
Cr5   O7    S    
Br2   C15   S    
Br5   C7    S    
C34   C35   T    
C13   C24   S    
C25   O19   A    
C26   O20   A    
Br3   C29   S    
Cr3   O21   S    
C32   C33   T    
C22   O8    A    
Cr1   O1    S    
Cr6   O3    S    
Cr1   O18   S    
C28   C29   A    
Cr3   O15   S    
Br1   C11   S    
Cr3   O20   S    
C22   O9    A    
Cr5   O11   S    
Cr2   O13   S    
C1    O13   A    
C15   C17   A    
Cr4   O11   S    
Cr6   O10   S    
C16   O1    A    
C8    H7    S    
Cr2   O22   S    
Cr4   O5    S    
C3    C9    A    
C26   C36   S    
C12   C23   A    
C11   C13   A    
C9    C27   S    
C25   O18   A    
C6    C7    A    
C19   O2    A    
C18   C33   S    
Cr1   O22   S    
C6    C21   S    
C16   O16   A    
C4    O14   A    
Cr5   O26   S    
C14   H3    S    
Cr2   O12   S    
Cr1   O17   S    
C2    C36   T    
C18   O24   A    
C5    C6    A    
C16   C32   S    
C7    C8    A    
C23   C31   A    
C3    C5    A    
C1    C34   S    
Cr4   O23   S    
C12   C30   A    
C18   O25   A    
C21   O6    A    
Cr6   O11   S    
Cr6   O2    S    
