data_mof_unit_6787.cif
_audit_creation_date              2012-12-11T14:17:44-0500
_audit_creation_method            fapswitch 2.2
_symmetry_space_group_name_H-M    P1
_symmetry_Int_Tables_number       1
_space_group_crystal_system       triclinic
_cell_length_a                    11.257501
_cell_length_b                    11.256516
_cell_length_c                    19.139797
_cell_angle_alpha                 90.000874
_cell_angle_beta                  89.99951
_cell_angle_gamma                 119.997443
_cell_volume                      2100.51184823

loop_
_atom_site_label
_atom_site_type_symbol
_atom_type_description
_atom_site_fract_x
_atom_site_fract_y
_atom_site_fract_z
_atom_type_partial_charge
C1    C     C_R   0.527612 0.448719 0.143901 0.548514
C2    C     C_R   0.551481 0.079237 0.143829 0.548590
C3    C     C_R   0.920973 0.472330 0.143875 0.548526
C4    C     C_R   0.448195 0.527987 0.856286 0.550131
C5    C     C_R   0.080159 0.552015 0.856356 0.550088
C6    C     C_R   0.472209 0.920676 0.856190 0.550150
C7    C     C_R   0.434923 0.051715 0.468120 -0.143529
C8    C     C_R   0.948330 0.383217 0.468119 -0.143527
C9    C     C_R   0.616760 0.565138 0.468116 -0.143519
C10   C     C_R   0.969695 0.397434 0.540151 -0.146896
C11   C     C_R   0.427770 0.030353 0.540154 -0.146887
C12   C     C_R   0.602545 0.572279 0.540148 -0.146883
C13   C     C_R   0.715247 0.953737 0.553318 -0.087692
C14   C     C_R   0.046337 0.761576 0.553320 -0.087650
C15   C     C_R   0.238469 0.284738 0.553325 -0.087670
C16   C     C_R   0.110227 0.750471 0.414521 -0.078571
C17   C     C_R   0.640252 0.889769 0.414526 -0.078552
C18   C     C_R   0.249535 0.359726 0.414528 -0.078559
C19   C     C_R   0.784519 0.908276 0.510709 -0.148549
C20   C     C_R   0.091853 0.876327 0.510707 -0.148507
C21   C     C_R   0.123724 0.215494 0.510714 -0.148519
C22   C     C_R   0.125436 0.871551 0.441565 -0.118330
C23   C     C_R   0.746169 0.874658 0.441568 -0.118350
C24   C     C_R   0.128480 0.253848 0.441573 -0.118349
C25   C     C_R   0.520070 0.455899 0.353887 0.536948
C26   C     C_R   0.544105 0.064174 0.353887 0.537003
C27   C     C_R   0.935826 0.479930 0.353888 0.537004
C28   C     C_R   0.452040 0.518417 0.644858 0.552000
C29   C     C_R   0.066377 0.547956 0.644857 0.552080
C30   C     C_R   0.481574 0.933617 0.644857 0.551940
C31   C     C_R   0.483582 0.964754 0.929256 -0.019570
C32   C     C_R   0.036162 0.519339 0.929430 -0.019833
C33   C     C_R   0.480854 0.516669 0.929370 -0.019658
C34   C     C_R   0.965271 0.483807 0.070854 -0.019438
C35   C     C_R   0.518751 0.035118 0.070767 -0.019455
C36   C     C_R   0.516153 0.481509 0.070866 -0.019413
C37   C     C_R   0.376842 0.968212 0.966922 0.018382
C38   C     C_R   0.032317 0.408883 0.967025 0.018189
C39   C     C_R   0.591186 0.623349 0.966994 0.018448
C40   C     C_R   0.968683 0.377059 0.033153 0.018558
C41   C     C_R   0.408569 0.031690 0.033091 0.018563
C42   C     C_R   0.622942 0.591584 0.033151 0.018682
C43   C     C_R   0.606008 0.000710 0.036151 -0.065897
C44   C     C_R   0.999908 0.605591 0.036307 -0.065812
C45   C     C_R   0.394438 0.394303 0.036283 -0.065766
C46   C     C_R   0.001693 0.606551 0.964028 -0.066574
C47   C     C_R   0.605243 0.999171 0.963866 -0.066367
C48   C     C_R   0.393596 0.395034 0.964000 -0.066518
C49   C     C_R   0.243382 0.919515 0.940972 -0.063728
C50   C     C_R   0.080699 0.323907 0.941001 -0.063756
C51   C     C_R   0.676144 0.756721 0.940976 -0.063646
C52   C     C_R   0.919700 0.243463 0.059007 -0.063301
C53   C     C_R   0.323803 0.080424 0.059017 -0.063237
C54   C     C_R   0.756534 0.676143 0.059003 -0.063226
C55   C     C_R   0.156651 0.957538 0.971138 -0.118543
C56   C     C_R   0.042417 0.199023 0.971101 -0.118359
C57   C     C_R   0.801043 0.843268 0.971064 -0.118416
C58   C     C_R   0.957658 0.156676 0.028810 -0.118208
C59   C     C_R   0.198984 0.042261 0.028868 -0.118214
C60   C     C_R   0.843349 0.800846 0.028794 -0.118205
C61   C     C_R   0.509264 0.984324 0.571633 0.001265
C62   C     C_R   0.015673 0.524949 0.571633 0.001235
C63   C     C_R   0.475051 0.490717 0.571634 0.001230
C64   C     C_R   0.993028 0.499112 0.424867 -0.006510
C65   C     C_R   0.506079 0.006966 0.424866 -0.006513
C66   C     C_R   0.500878 0.493917 0.424867 -0.006515
C67   C     C_R   0.600347 0.961259 0.528255 0.037670
C68   C     C_R   0.038741 0.639108 0.528255 0.037649
C69   C     C_R   0.360909 0.399614 0.528257 0.037635
C70   C     C_R   0.052354 0.629891 0.455580 0.025202
C71   C     C_R   0.577512 0.947622 0.455582 0.025211
C72   C     C_R   0.370113 0.422445 0.455583 0.025209
Cr1   Cr    Cr6+3 0.768550 0.541320 0.250660 1.022942
Cr2   Cr    Cr6+3 0.458680 0.227230 0.250660 1.023029
Cr3   Cr    Cr6+3 0.772770 0.231450 0.250660 1.023026
Cr4   Cr    Cr6+3 0.541320 0.768550 0.749340 1.027092
Cr5   Cr    Cr6+3 0.227230 0.458680 0.749340 1.027194
Cr6   Cr    Cr6+3 0.231450 0.772770 0.749340 1.027012
H1    H     H_    0.200742 0.854388 0.897408 0.187056
H2    H     H_    0.145775 0.346380 0.897422 0.187119
H3    H     H_    0.653671 0.799369 0.897411 0.187137
H4    H     H_    0.854446 0.200794 0.102530 0.187847
H5    H     H_    0.346313 0.145597 0.102568 0.187927
H6    H     H_    0.799200 0.653538 0.102520 0.187823
H7    H     H_    0.060349 0.926742 0.946368 0.119888
H8    H     H_    0.073027 0.133373 0.946312 0.120206
H9    H     H_    0.866680 0.939522 0.946274 0.119974
H10   H     H_    0.926808 0.060300 0.053518 0.120833
H11   H     H_    0.133381 0.072958 0.053623 0.120724
H12   H     H_    0.939701 0.866310 0.053524 0.120573
H13   H     H_    0.386652 0.105930 0.446453 0.147422
H14   H     H_    0.894155 0.280730 0.446450 0.147417
H15   H     H_    0.719235 0.613473 0.446444 0.147415
H16   H     H_    0.945384 0.308089 0.571578 0.129725
H17   H     H_    0.362777 0.054719 0.571584 0.129695
H18   H     H_    0.691879 0.637335 0.571573 0.129748
H19   H     H_    0.760038 0.990382 0.604127 0.145238
H20   H     H_    0.009687 0.769753 0.604127 0.145201
H21   H     H_    0.230311 0.239916 0.604131 0.145195
H22   H     H_    0.137418 0.749696 0.360314 0.138526
H23   H     H_    0.612351 0.862619 0.360295 0.138525
H24   H     H_    0.250291 0.387682 0.360322 0.138524
H25   H     H_    0.867430 0.897954 0.531972 0.101352
H26   H     H_    0.102220 0.969587 0.531974 0.101365
H27   H     H_    0.030479 0.132597 0.531983 0.101347
H28   H     H_    0.160693 0.960864 0.408451 0.123254
H29   H     H_    0.800265 0.839443 0.408455 0.123214
H30   H     H_    0.039173 0.199778 0.408461 0.123233
O1    O     O_R   0.910960 0.572410 0.171010 -0.525253
O2    O     O_R   0.427590 0.338550 0.171010 -0.525226
O3    O     O_R   0.661450 0.089040 0.171010 -0.525098
O4    O     O_R   0.572410 0.910960 0.828990 -0.524315
O5    O     O_R   0.338550 0.427590 0.828990 -0.524247
O6    O     O_R   0.089040 0.661450 0.828990 -0.524156
O7    O     O_R   0.639750 0.528530 0.175600 -0.522839
O8    O     O_R   0.471470 0.111220 0.175600 -0.522662
O9    O     O_R   0.888780 0.360250 0.175600 -0.522802
O10   O     O_R   0.528530 0.639750 0.824400 -0.522353
O11   O     O_R   0.111220 0.471470 0.824400 -0.522325
O12   O     O_R   0.360250 0.888780 0.824400 -0.522691
O13   O     O_R   0.909330 0.572400 0.331540 -0.522294
O14   O     O_R   0.427600 0.336930 0.331540 -0.522313
O15   O     O_R   0.663070 0.090670 0.331540 -0.522311
O16   O     O_R   0.572400 0.909330 0.668460 -0.531676
O17   O     O_R   0.336930 0.427600 0.668460 -0.531659
O18   O     O_R   0.090670 0.663070 0.668460 -0.531640
O19   O     O_R   0.638240 0.528520 0.324410 -0.504456
O20   O     O_R   0.471480 0.109720 0.324410 -0.504413
O21   O     O_R   0.890280 0.361760 0.324410 -0.504440
O22   O     O_R   0.528520 0.638240 0.675590 -0.493283
O23   O     O_R   0.109720 0.471480 0.675590 -0.493254
O24   O     O_R   0.361760 0.890280 0.675590 -0.493342
O25   O     O_3   0.666667 0.333333 0.250630 -0.282694
O26   O     O_3   0.333333 0.666667 0.749370 -0.286883
C73   C     C_1   0.651602 0.922694 0.076107 0.217279
N1    N     N_1   0.682135 0.862803 0.114141 -0.289104
C74   C     C_1   0.078078 0.729076 0.076338 0.217474
N2    N     N_1   0.138095 0.819410 0.114403 -0.288934
C75   C     C_1   0.270863 0.348452 0.076300 0.217369
N3    N     N_1   0.180474 0.317702 0.114383 -0.289158
C76   C     C_1   0.922348 0.650632 0.924149 0.218747
N4    N     N_1   0.861281 0.679869 0.886224 -0.285395
C77   C     C_1   0.728804 0.077544 0.923936 0.218621
N5    N     N_1   0.819212 0.137788 0.885948 -0.285764
C78   C     C_1   0.348725 0.271477 0.924110 0.218630
N6    N     N_1   0.318816 0.181082 0.886145 -0.285825

loop_
_geom_bond_atom_site_label_1
_geom_bond_atom_site_label_2
_ccdc_geom_bond_type
C2    C35   S    
C39   C51   A    
C44   C74   S    
C55   C59   A    
C5    O6    A    
C36   C42   A    
Cr3   O9    S    
C54   H6    S    
C78   N6    T    
C53   C59   A    
C73   N1    T    
C54   C60   A    
Cr6   O12   S    
C7    C11   A    
C17   C23   A    
C5    O11   A    
C34   C40   A    
C18   H24   S    
C10   H16   S    
C77   N5    T    
Cr2   O25   S    
C47   C77   S    
C45   C75   S    
Cr5   O23   S    
C17   H23   S    
C9    C66   A    
Cr6   O24   S    
C3    O9    A    
C4    C33   S    
C19   H25   S    
Cr2   O20   S    
C63   C69   A    
C65   C71   A    
C51   C57   A    
C32   C38   A    
C39   C42   A    
C35   C43   A    
C25   O14   A    
C51   H3    S    
C28   O22   A    
C5    C32   S    
C6    C31   S    
C23   H29   S    
C31   C47   A    
C29   O18   A    
C37   C41   A    
C4    O10   A    
C10   C62   A    
C32   C46   A    
Cr5   O5    S    
C6    O12   A    
C44   C46   A    
Cr5   O26   S    
C14   H20   S    
C46   C76   S    
C31   C37   A    
C18   C72   A    
C15   C69   A    
C66   C72   A    
C2    O3    A    
C38   C50   A    
C13   C19   A    
Cr4   O16   S    
C14   C20   A    
C4    O5    A    
C16   C70   A    
C18   C24   A    
C15   H21   S    
C12   C63   A    
Cr4   O26   S    
C16   H22   S    
C57   C60   A    
C26   O20   A    
C3    C34   S    
C11   C61   A    
C40   C52   A    
Cr4   O10   S    
C57   H9    S    
C50   H2    S    
C59   H11   S    
C55   H7    S    
C69   C72   A    
C19   C23   A    
C43   C73   S    
C1    O2    A    
C7    C65   A    
C37   C49   A    
C61   C67   A    
C56   H8    S    
Cr4   O4    S    
Cr2   O8    S    
C48   C78   S    
C34   C44   A    
C36   C45   A    
C33   C39   A    
C52   H4    S    
Cr6   O26   S    
C41   C53   A    
C52   C58   A    
C8    C64   A    
C8    H14   S    
C22   H28   S    
Cr2   O14   S    
C30   O16   A    
C17   C71   A    
C64   C70   A    
C27   O21   A    
Cr3   O15   S    
C21   C24   A    
C26   O15   A    
Cr6   O18   S    
C9    H15   S    
C7    H13   S    
Cr5   O17   S    
C28   O17   A    
C13   C67   A    
C45   C48   A    
C11   H17   S    
C33   C48   A    
C29   C62   S    
Cr6   O6    S    
C16   C22   A    
C26   C65   S    
C6    O4    A    
C25   C66   S    
C20   C22   A    
Cr5   O11   S    
C49   C55   A    
C58   H10   S    
Cr2   O2    S    
C2    O8    A    
C75   N3    T    
Cr3   O25   S    
Cr1   O1    S    
C20   H26   S    
C60   H12   S    
C74   N2    T    
Cr3   O3    S    
Cr1   O7    S    
C62   C68   A    
C53   H5    S    
C25   O19   A    
Cr1   O19   S    
C76   N4    T    
C42   C54   A    
C38   C40   A    
C29   O23   A    
C3    O1    A    
C30   O24   A    
C56   C58   A    
C67   C71   A    
C13   H19   S    
C35   C41   A    
C9    C12   A    
C50   C56   A    
C27   C64   S    
Cr4   O22   S    
C28   C63   S    
C49   H1    S    
C15   C21   A    
C8    C10   A    
Cr1   O25   S    
C30   C61   S    
C27   O13   A    
C68   C70   A    
C14   C68   A    
C12   H18   S    
C1    O7    A    
C43   C47   A    
C21   H27   S    
C24   H30   S    
Cr3   O21   S    
C1    C36   S    
Cr1   O13   S    
