data_mof_unit_30326.cif
_audit_creation_date              2012-12-11T15:08:48-0500
_audit_creation_method            fapswitch 2.2
_symmetry_space_group_name_H-M    P1
_symmetry_Int_Tables_number       1
_space_group_crystal_system       triclinic
_cell_length_a                    19.572125
_cell_length_b                    11.434897
_cell_length_c                    18.716724
_cell_angle_alpha                 89.813705
_cell_angle_beta                  89.511174
_cell_angle_gamma                 89.945521
_cell_volume                      4188.72440651

loop_
_atom_site_label
_atom_site_type_symbol
_atom_type_description
_atom_site_fract_x
_atom_site_fract_y
_atom_site_fract_z
_atom_type_partial_charge
C1    C     C_R   0.272081 0.043153 0.853874 0.526620
C2    C     C_3   0.685091 0.536960 0.955514 -0.225691
C3    C     C_R   0.225841 0.543196 0.353773 0.579365
C4    C     C_R   0.469149 0.822756 0.645918 0.596295
C5    C     C_R   0.530665 0.822565 0.353890 0.615059
C6    C     C_R   0.969153 0.322756 0.645921 0.596280
C7    C     C_R   0.030663 0.322566 0.353889 0.615053
C8    C     C_R   0.263577 0.650582 0.640768 0.558718
C9    C     C_R   0.737234 0.647452 0.358425 0.557888
C10   C     C_R   0.763572 0.150562 0.640772 0.558701
C11   C     C_R   0.237238 0.147435 0.358421 0.557850
C12   C     C_3   0.490730 0.924531 0.031877 -0.157273
C13   C     C_3   0.805390 0.009352 0.038468 -0.240503
C14   C     C_3   0.529600 0.908592 0.959533 -0.156691
C15   C     C_3   0.990730 0.424531 0.031877 -0.157273
C16   C     C_3   0.029600 0.408592 0.959533 -0.156692
C17   C     C_3   0.435442 0.836650 0.007589 -0.161523
C18   C     C_3   0.571381 0.805678 0.992050 -0.160474
C19   C     C_3   0.935442 0.336649 0.007589 -0.161522
C20   C     C_3   0.071381 0.305678 0.992050 -0.160474
C21   C     C_3   0.474464 0.821523 0.935692 0.031913
C22   C     C_3   0.531965 0.822641 0.063544 0.030108
C23   C     C_3   0.974464 0.321522 0.935692 0.031914
C24   C     C_3   0.185091 0.036960 0.955514 -0.225691
C25   C     C_3   0.031965 0.322641 0.063544 0.030109
C26   C     C_3   0.309969 0.518939 0.956298 -0.240584
C27   C     C_3   0.677206 0.557255 0.036845 -0.223042
C28   C     C_3   0.809969 0.018939 0.956298 -0.240584
C29   C     C_3   0.177206 0.057255 0.036845 -0.223041
C30   C     C_3   0.175500 0.529700 0.025667 -0.213677
C31   C     C_3   0.813295 0.509971 0.974029 -0.216968
C32   C     C_3   0.675500 0.029700 0.025667 -0.213676
C33   C     C_R   0.726550 0.040358 0.144554 0.541096
C34   C     C_3   0.313296 0.009971 0.974029 -0.216968
C35   C     C_3   0.247895 0.699726 0.054540 -0.251125
C36   C     C_3   0.765244 0.703499 0.944190 -0.257357
C37   C     C_3   0.747895 0.199726 0.054540 -0.251126
C38   C     C_3   0.265244 0.203499 0.944190 -0.257358
C39   C     C_3   0.239714 0.568883 0.067990 0.053924
C40   C     C_3   0.757582 0.572928 0.929716 0.049429
C41   C     C_3   0.739714 0.068883 0.067990 0.053924
C42   C     C_3   0.257582 0.072928 0.929716 0.049427
C43   C     C_3   0.253741 0.603654 0.929729 0.059299
C44   C     C_R   0.772081 0.543153 0.853874 0.526611
C45   C     C_3   0.744277 0.608725 0.067999 0.046014
C46   C     C_3   0.753741 0.103654 0.929729 0.059299
C47   C     C_3   0.244277 0.108725 0.067999 0.046014
C48   C     C_3   0.184013 0.547937 0.944859 -0.243992
C49   C     C_3   0.800832 0.519017 0.055307 -0.252998
C50   C     C_3   0.684013 0.047937 0.944859 -0.243993
C51   C     C_3   0.300832 0.019017 0.055307 -0.252998
C52   C     C_3   0.260636 0.717382 0.973764 -0.224913
C53   C     C_3   0.763961 0.720894 0.025606 -0.228139
C54   C     C_3   0.760636 0.217382 0.973764 -0.224912
C55   C     C_R   0.226550 0.540358 0.144554 0.541096
C56   C     C_3   0.263961 0.220894 0.025606 -0.228139
C57   C     C_3   0.506019 0.700806 0.460636 -0.283856
C58   C     C_3   0.493560 0.701052 0.539566 -0.288164
C59   C     C_3   0.006019 0.200810 0.460637 -0.283847
C60   C     C_3   0.993563 0.201053 0.539567 -0.288166
C61   C     C_R   0.446636 0.817488 0.862277 0.535907
C62   C     C_R   0.556922 0.817467 0.137953 0.540859
C63   C     C_R   0.946636 0.317488 0.862277 0.535899
C64   C     C_R   0.056922 0.317467 0.137953 0.540857
C65   C     C_3   0.563360 0.901125 0.471435 -0.229343
C66   C     C_3   0.515544 0.721193 0.968090 0.249804
C67   C     C_3   0.436496 0.902118 0.527750 -0.232742
C68   C     C_3   0.063359 0.401127 0.471430 -0.229355
C69   C     C_3   0.936498 0.402113 0.527759 -0.232733
C70   C     C_3   0.439479 0.881020 0.445591 0.054733
C71   C     C_3   0.560292 0.880996 0.553812 0.051070
C72   C     C_3   0.939478 0.381028 0.445598 0.054703
C73   C     C_3   0.060291 0.381009 0.553810 0.051061
C74   C     C_3   0.509747 0.827030 0.430274 0.059212
C75   C     C_3   0.489966 0.827533 0.569395 0.057710
C76   C     C_3   0.009745 0.327033 0.430275 0.059225
C77   C     C_3   0.478037 0.736923 0.038270 0.259269
C78   C     C_3   0.989970 0.327533 0.569397 0.057732
C79   C     C_3   0.173270 0.638258 0.462741 0.059235
C80   C     C_3   0.826075 0.640321 0.537664 0.059991
C81   C     C_3   0.673270 0.138269 0.462738 0.059255
C82   C     C_3   0.326068 0.140374 0.537678 0.060036
C83   C     C_3   0.187769 0.675627 0.537320 -0.213609
C84   C     C_3   0.812715 0.673028 0.461878 -0.212501
C85   C     C_3   0.687763 0.175604 0.537325 -0.213566
C86   C     C_3   0.312721 0.173006 0.461873 -0.212411
C87   C     C_3   0.253017 0.465096 0.473066 -0.210433
C88   C     C_3   0.015544 0.221193 0.968090 0.249804
C89   C     C_3   0.746568 0.465932 0.529012 -0.185898
C90   C     C_3   0.753018 0.965106 0.473054 -0.210445
C91   C     C_3   0.246576 0.965949 0.529023 -0.185894
C92   C     C_3   0.297905 0.662629 0.437464 0.038739
C93   C     C_3   0.701042 0.662505 0.561584 0.041055
C94   C     C_3   0.797904 0.162645 0.437467 0.038738
C95   C     C_3   0.201035 0.162515 0.561582 0.041088
C96   C     C_3   0.237966 0.578391 0.428333 0.012839
C97   C     C_3   0.761602 0.580060 0.571943 0.034867
C98   C     C_3   0.737967 0.078407 0.428329 0.012865
C99   C     C_3   0.978037 0.236923 0.038270 0.259269
C100  C     C_3   0.261599 0.080086 0.571949 0.034932
C101  C     C_3   0.254168 0.618167 0.564876 0.020562
C102  C     C_3   0.746302 0.615968 0.434771 0.012624
C103  C     C_3   0.754167 0.118152 0.564877 0.020586
C104  C     C_3   0.246305 0.115957 0.434771 0.012640
C105  C     C_3   0.245797 0.487404 0.554255 0.060909
C106  C     C_3   0.753670 0.485424 0.447486 0.043267
C107  C     C_3   0.745804 0.987391 0.554245 0.060839
C108  C     C_3   0.253672 0.985420 0.447496 0.043225
C109  C     C_R   0.261069 0.638174 0.853226 0.530350
C110  C     C_3   0.305390 0.509352 0.038468 -0.240502
C111  C     C_R   0.737859 0.641957 0.145177 0.533326
C112  C     C_R   0.761069 0.138174 0.853226 0.530351
C113  C     C_R   0.237859 0.141957 0.145177 0.533326
C114  C     C_3   0.316618 0.658280 0.517897 -0.226093
C115  C     C_3   0.684018 0.658238 0.480756 -0.176922
C116  C     C_3   0.816615 0.158279 0.517900 -0.226048
C117  C     C_3   0.184018 0.158236 0.480752 -0.176902
C118  C     C_R   0.273728 0.044543 0.646702 0.535089
C119  C     C_R   0.725845 0.043208 0.353769 0.579339
C120  C     C_R   0.773733 0.544526 0.646696 0.535080
Cr1   Cr    Cr6+3 0.229620 0.836040 0.749110 1.032513
Cr2   Cr    Cr6+3 0.613980 0.676590 0.250790 1.038697
Cr3   Cr    Cr6+3 0.886020 0.176590 0.749210 1.038233
Cr4   Cr    Cr6+3 0.113980 0.176590 0.250790 1.038689
Cr5   Cr    Cr6+3 0.770380 0.836040 0.250890 1.029331
Cr6   Cr    Cr6+3 0.729620 0.336040 0.749110 1.032488
Cr7   Cr    Cr6+3 0.270380 0.336040 0.250890 1.029339
Cr8   Cr    Cr6+3 0.387630 0.990680 0.750730 1.035665
Cr9   Cr    Cr6+3 0.612370 0.990680 0.249270 1.040527
Cr10  Cr    Cr6+3 0.887630 0.490680 0.750730 1.035750
Cr11  Cr    Cr6+3 0.112370 0.490680 0.249270 1.040555
Cr12  Cr    Cr6+3 0.386020 0.676590 0.749210 1.038234
H1    H     H_    0.383325 0.839070 0.028605 0.115272
H2    H     H_    0.724022 0.754164 0.917865 0.106412
H3    H     H_    0.317022 0.243043 0.041178 0.138598
H4    H     H_    0.142568 0.606309 0.925461 0.138216
H5    H     H_    0.848838 0.545796 0.082166 0.134657
H6    H     H_    0.642568 0.106309 0.925461 0.138215
H7    H     H_    0.348838 0.045796 0.082166 0.134657
H8    H     H_    0.454208 0.048118 0.423127 0.332047
H9    H     H_    0.546823 0.049224 0.573690 0.333595
H10   H     H_    0.954198 0.548132 0.423149 0.332071
H11   H     H_    0.046843 0.549257 0.573646 0.333577
H12   H     H_    0.136804 0.571408 0.468424 0.165551
H13   H     H_    0.791552 0.233691 0.085843 0.134222
H14   H     H_    0.863967 0.575100 0.535531 0.165717
H15   H     H_    0.636797 0.071428 0.468398 0.165574
H16   H     H_    0.363994 0.075192 0.535602 0.165688
H17   H     H_    0.166645 0.748981 0.382595 0.381894
H18   H     H_    0.832223 0.749572 0.618330 0.379734
H19   H     H_    0.666631 0.248983 0.382582 0.381915
H20   H     H_    0.332230 0.249578 0.618381 0.379701
H21   H     H_    0.369455 0.556101 0.401582 0.334958
H22   H     H_    0.649177 0.662511 0.650651 0.332914
H23   H     H_    0.869444 0.056120 0.401559 0.334983
H24   H     H_    0.224022 0.254164 0.917865 0.106412
H25   H     H_    0.149135 0.162582 0.650626 0.332896
H26   H     H_    0.483016 0.569969 0.939060 0.328657
H27   H     H_    0.484896 0.580731 0.075984 0.334992
H28   H     H_    0.983016 0.069969 0.939060 0.328658
H29   H     H_    0.984896 0.080731 0.075984 0.334992
H30   H     H_    0.278679 0.417177 0.641169 0.319672
H31   H     H_    0.718732 0.416475 0.361512 0.328272
H32   H     H_    0.778708 0.917170 0.641152 0.319669
H33   H     H_    0.218718 0.916478 0.361529 0.328270
H34   H     H_    0.679742 0.963087 0.916404 0.110645
H35   H     H_    0.314012 0.743395 0.965201 0.103882
H36   H     H_    0.285368 0.933472 0.078057 0.113572
H37   H     H_    0.179742 0.463087 0.916404 0.110644
H38   H     H_    0.785368 0.433472 0.078057 0.113572
H39   H     H_    0.728617 0.791625 0.039911 0.104106
H40   H     H_    0.814012 0.243395 0.965201 0.103882
H41   H     H_    0.228617 0.291625 0.039911 0.104106
H42   H     H_    0.629579 0.079905 0.043254 0.144948
H43   H     H_    0.364558 0.047707 0.961737 0.145890
H44   H     H_    0.129579 0.579905 0.043254 0.144948
H45   H     H_    0.625703 0.787759 0.981377 0.095028
H46   H     H_    0.864558 0.547707 0.961737 0.145890
H47   H     H_    0.551895 0.651336 0.448660 0.155709
H48   H     H_    0.447520 0.652158 0.551775 0.153009
H49   H     H_    0.051896 0.151341 0.448659 0.155708
H50   H     H_    0.947522 0.152161 0.551776 0.153016
H51   H     H_    0.465698 0.650092 0.434350 0.183717
H52   H     H_    0.533675 0.649678 0.566161 0.215531
H53   H     H_    0.965699 0.150094 0.434352 0.183729
H54   H     H_    0.033678 0.149679 0.566160 0.215527
H55   H     H_    0.614287 0.891735 0.448755 0.076326
H56   H     H_    0.883325 0.339070 0.028605 0.115272
H57   H     H_    0.385512 0.893360 0.550503 0.077537
H58   H     H_    0.114286 0.391728 0.448751 0.076319
H59   H     H_    0.885515 0.393334 0.550513 0.077515
H60   H     H_    0.600588 0.818704 0.568589 0.186517
H61   H     H_    0.399064 0.818955 0.431524 0.213505
H62   H     H_    0.100592 0.318727 0.568592 0.186433
H63   H     H_    0.899062 0.318968 0.431529 0.213519
H64   H     H_    0.480844 0.010049 0.057900 0.130810
H65   H     H_    0.548705 0.980818 0.925341 0.132351
H66   H     H_    0.980844 0.510049 0.057900 0.130810
H67   H     H_    0.125703 0.287759 0.981377 0.095028
H68   H     H_    0.048705 0.480818 0.925341 0.132352
H69   H     H_    0.451722 0.992861 0.537459 0.139161
H70   H     H_    0.548584 0.991927 0.460574 0.139026
H71   H     H_    0.951717 0.492858 0.537481 0.139294
H72   H     H_    0.048586 0.491928 0.460559 0.139058
H73   H     H_    0.192613 0.768817 0.538547 0.179101
H74   H     H_    0.808876 0.766410 0.457234 0.178134
H75   H     H_    0.692594 0.268797 0.538576 0.179104
H76   H     H_    0.308908 0.266394 0.457175 0.178164
H77   H     H_    0.143045 0.655692 0.571907 0.175804
H78   H     H_    0.201265 0.748348 0.071596 0.127291
H79   H     H_    0.857383 0.649740 0.428353 0.172984
H80   H     H_    0.643041 0.155637 0.571906 0.175794
H81   H     H_    0.357385 0.149652 0.428360 0.172917
H82   H     H_    0.721224 0.892187 0.456694 0.070101
H83   H     H_    0.278339 0.893017 0.546498 0.058924
H84   H     H_    0.221226 0.392172 0.456711 0.070107
H85   H     H_    0.778330 0.392996 0.546481 0.058926
H86   H     H_    0.694831 0.957419 0.573032 0.154736
H87   H     H_    0.304297 0.953575 0.428878 0.159909
H88   H     H_    0.194820 0.457449 0.573039 0.154700
H89   H     H_    0.814692 0.736093 0.922226 0.137315
H90   H     H_    0.804298 0.453590 0.428870 0.159904
H91   H     H_    0.281302 0.752158 0.423966 0.190252
H92   H     H_    0.715193 0.753067 0.576351 0.141159
H93   H     H_    0.781299 0.252176 0.423977 0.190285
H94   H     H_    0.215179 0.253082 0.576345 0.141221
H95   H     H_    0.337403 0.739699 0.536263 0.075913
H96   H     H_    0.663497 0.739154 0.461120 0.063330
H97   H     H_    0.837399 0.239692 0.536275 0.075914
H98   H     H_    0.163495 0.239145 0.461109 0.063334
H99   H     H_    0.356250 0.590760 0.524019 0.188683
H100  H     H_    0.701265 0.248348 0.071596 0.127291
H101  H     H_    0.644048 0.591539 0.474477 0.215970
H102  H     H_    0.856252 0.090762 0.524016 0.188703
H103  H     H_    0.144048 0.091535 0.474476 0.215977
H104  H     H_    0.306512 0.440943 0.462098 0.175595
H105  H     H_    0.692603 0.444041 0.541539 0.226162
H106  H     H_    0.806512 0.940956 0.462076 0.175559
H107  H     H_    0.192612 0.944053 0.541554 0.226170
H108  H     H_    0.310731 0.419964 0.056552 0.126908
H109  H     H_    0.672731 0.445337 0.942756 0.138007
H110  H     H_    0.810731 0.919964 0.056552 0.126908
H111  H     H_    0.314692 0.236093 0.922226 0.137313
H112  H     H_    0.172731 0.945337 0.942756 0.138007
H113  H     H_    0.349654 0.552696 0.062131 0.200411
H114  H     H_    0.647717 0.590812 0.926054 0.196329
H115  H     H_    0.849654 0.052696 0.062131 0.200411
H116  H     H_    0.147717 0.090812 0.926054 0.196329
H117  H     H_    0.361712 0.551120 0.941346 0.139587
H118  H     H_    0.633547 0.616442 0.047533 0.149869
H119  H     H_    0.861712 0.051120 0.941346 0.139588
H120  H     H_    0.133547 0.116442 0.047533 0.149869
H121  H     H_    0.303523 0.432385 0.931235 0.114846
H122  H     H_    0.291552 0.733691 0.085843 0.134223
H123  H     H_    0.664838 0.472819 0.063689 0.122962
H124  H     H_    0.803523 0.932385 0.931235 0.114847
H125  H     H_    0.164838 0.972819 0.063689 0.122962
H126  H     H_    0.664367 0.938637 0.038672 0.096610
H127  H     H_    0.315165 0.920310 0.956026 0.093633
H128  H     H_    0.164367 0.438637 0.038672 0.096609
H129  H     H_    0.815165 0.420310 0.956026 0.093633
H130  H     H_    0.225746 0.785308 0.953869 0.135519
H131  H     H_    0.817022 0.743043 0.041178 0.138598
H132  H     H_    0.725746 0.285308 0.953869 0.135520
O1    O     O_R   0.214130 0.708570 0.829890 -0.521688
O2    O     O_R   0.542830 0.717300 0.331620 -0.519497
O3    O     O_R   0.957170 0.217300 0.668380 -0.525961
O4    O     O_R   0.042830 0.217300 0.331620 -0.519499
O5    O     O_R   0.320870 0.624890 0.673130 -0.476833
O6    O     O_R   0.679130 0.624890 0.326870 -0.481520
O7    O     O_R   0.820870 0.124890 0.673130 -0.476848
O8    O     O_R   0.179130 0.124890 0.326870 -0.481537
O9    O     O_3   0.334430 0.834430 0.749680 -0.317243
O10   O     O_3   0.665570 0.834430 0.250320 -0.325950
O11   O     O_3   0.834430 0.334430 0.749680 -0.317246
O12   O     O_R   0.785870 0.708570 0.170110 -0.519579
O13   O     O_3   0.165570 0.334430 0.250320 -0.325952
O14   O     O_R   0.236050 0.959150 0.825270 -0.510073
O15   O     O_R   0.763950 0.959150 0.174730 -0.503678
O16   O     O_R   0.736050 0.459150 0.825270 -0.510080
O17   O     O_R   0.263950 0.459150 0.174730 -0.503677
O18   O     O_R   0.332100 0.076650 0.832310 -0.532451
O19   O     O_R   0.667900 0.076650 0.167690 -0.533740
O20   O     O_R   0.832100 0.576650 0.832310 -0.532450
O21   O     O_R   0.167900 0.576650 0.167690 -0.533740
O22   O     O_R   0.446500 0.918620 0.826240 -0.503171
O23   O     O_R   0.714130 0.208570 0.829890 -0.521689
O24   O     O_R   0.553500 0.918620 0.173760 -0.500329
O25   O     O_R   0.946500 0.418620 0.826240 -0.503178
O26   O     O_R   0.053500 0.418620 0.173760 -0.500332
O27   O     O_R   0.457310 0.715830 0.831280 -0.476312
O28   O     O_R   0.542690 0.715830 0.168720 -0.469358
O29   O     O_R   0.957310 0.215830 0.831280 -0.476314
O30   O     O_R   0.042690 0.215830 0.168720 -0.469359
O31   O     O_R   0.321000 0.623520 0.824130 -0.524556
O32   O     O_R   0.679000 0.623520 0.175870 -0.526676
O33   O     O_R   0.821000 0.123520 0.824130 -0.524554
O34   O     O_R   0.285870 0.208570 0.170110 -0.519580
O35   O     O_R   0.179000 0.123520 0.175870 -0.526675
O36   O     O_R   0.213990 0.710040 0.667000 -0.530281
O37   O     O_R   0.786010 0.710040 0.333000 -0.531750
O38   O     O_R   0.713990 0.210040 0.667000 -0.530286
O39   O     O_R   0.286010 0.210040 0.333000 -0.531761
O40   O     O_R   0.235920 0.960520 0.674260 -0.482253
O41   O     O_R   0.764080 0.960520 0.325740 -0.492933
O42   O     O_R   0.735920 0.460520 0.674260 -0.482298
O43   O     O_R   0.264080 0.460520 0.325740 -0.492908
O44   O     O_R   0.331960 0.078120 0.669410 -0.531703
O45   O     O_R   0.446360 0.919990 0.675230 -0.469394
O46   O     O_R   0.668040 0.078120 0.330590 -0.522516
O47   O     O_R   0.831960 0.578120 0.669410 -0.531514
O48   O     O_R   0.168040 0.578120 0.330590 -0.522455
O49   O     O_3   0.427740 0.981785 0.404021 -0.732657
O50   O     O_3   0.571888 0.982380 0.594514 -0.740391
O51   O     O_3   0.927739 0.481802 0.404036 -0.732674
O52   O     O_3   0.071876 0.482403 0.594508 -0.740332
O53   O     O_3   0.140283 0.729337 0.425869 -0.645582
O54   O     O_3   0.856230 0.735299 0.572888 -0.646530
O55   O     O_3   0.640299 0.229377 0.425879 -0.645639
O56   O     O_R   0.553640 0.919990 0.324770 -0.473211
O57   O     O_3   0.356166 0.235439 0.572877 -0.646525
O58   O     O_3   0.352917 0.636134 0.391330 -0.730517
O59   O     O_3   0.645185 0.624775 0.603147 -0.747525
O60   O     O_3   0.852918 0.136164 0.391331 -0.730567
O61   O     O_3   0.145180 0.124774 0.603145 -0.747547
O62   O     O_3   0.527189 0.612040 0.936730 -0.719210
O63   O     O_3   0.451350 0.645554 0.079414 -0.711849
O64   O     O_3   0.027189 0.112040 0.936730 -0.719209
O65   O     O_3   0.951350 0.145554 0.079414 -0.711850
O66   O     O_3   0.296676 0.429782 0.591888 -0.690687
O67   O     O_R   0.946360 0.419990 0.675230 -0.469343
O68   O     O_3   0.702003 0.427758 0.411336 -0.702823
O69   O     O_3   0.796694 0.929769 0.591863 -0.690866
O70   O     O_3   0.202000 0.927747 0.411358 -0.702890
O71   O     O_R   0.053640 0.419990 0.324770 -0.473203
O72   O     O_R   0.457170 0.717300 0.668380 -0.525947

loop_
_geom_bond_atom_site_label_1
_geom_bond_atom_site_label_2
_ccdc_geom_bond_type
C37   H100  S    
C9    O6    A    
C65   H55   S    
C113  O34   A    
C46   C112  S    
H33   O70   S    
C34   C42   S    
C104  C108  S    
C69   H59   S    
C33   O19   A    
C69   C78   S    
C99   O65   S    
C14   C21   S    
C90   C107  S    
Cr2   O10   S    
C117  H98   S    
C79   O53   S    
C5    C74   S    
Cr9   O19   S    
C91   H83   S    
C36   C53   S    
C114  H95   S    
Cr10  O67   S    
C18   H45   S    
C81   H15   S    
C89   C106  S    
C70   C74   S    
C35   H122  S    
C71   H60   S    
C85   C103  S    
C80   H14   S    
C59   C60   S    
C73   H62   S    
C101  C105  S    
H10   O51   S    
C77   O63   S    
Cr9   O10   S    
C30   H44   S    
Cr12  O72   S    
C90   H106  S    
C29   H120  S    
Cr2   O28   S    
Cr1   O1    S    
Cr11  O21   S    
C19   C99   S    
C81   O55   S    
C61   O27   A    
Cr4   O4    S    
C29   H125  S    
C19   C23   S    
C26   H117  S    
C19   H56   S    
C16   C20   S    
C45   C111  S    
C83   H77   S    
Cr4   O35   S    
C10   O7    A    
C17   H1    S    
C120  O47   A    
H31   O68   S    
C90   H82   S    
C103  C107  S    
C104  C117  S    
C66   C77   S    
C10   O38   A    
C50   H6    S    
C72   O51   S    
C31   H129  S    
C32   H126  S    
C103  C116  S    
C28   H119  S    
C33   C41   S    
C79   C96   S    
Cr7   O34   S    
H20   O57   S    
C70   H61   S    
C94   O60   S    
H8    O49   S    
H29   O65   S    
C24   H112  S    
C62   O24   A    
Cr8   O9    S    
C88   C99   S    
C65   C74   S    
C48   H37   S    
C2    C40   S    
C1    O14   A    
C81   C98   S    
C55   O17   A    
C94   C98   S    
C58   H48   S    
C70   O49   S    
Cr8   O44   S    
C49   H5    S    
C21   C66   S    
C68   H72   S    
C84   C102  S    
C3    O48   A    
Cr8   O18   S    
C86   C104  S    
C84   H79   S    
C95   C117  S    
C38   H111  S    
C28   C46   S    
C34   C51   S    
C29   C47   S    
C30   H128  S    
C30   C48   S    
C49   H38   S    
C110  H108  S    
C43   C52   S    
C15   C25   S    
C12   C22   S    
C63   O29   A    
Cr1   O36   S    
C64   O26   A    
C94   H93   S    
C108  H87   S    
C8    O36   A    
C119  O46   A    
C95   H94   S    
C87   H84   S    
C102  C115  S    
H11   O52   S    
C16   H68   S    
C95   O61   S    
Cr5   O37   S    
C45   C53   S    
Cr3   O33   S    
Cr4   O30   S    
Cr3   O11   S    
H32   O69   S    
C14   H65   S    
C31   H46   S    
C54   H40   S    
C109  O1    A    
C114  H99   S    
C11   O8    A    
C53   H39   S    
C109  O31   A    
C111  O12   A    
C62   O28   A    
Cr8   O45   S    
C25   C64   S    
C69   C72   S    
C67   H69   S    
C84   H74   S    
H17   O53   S    
C13   H110  S    
C87   C105  S    
H27   O63   S    
Cr12  O27   S    
C93   O59   S    
C61   O22   A    
C2    C27   S    
C110  H113  S    
H26   O62   S    
C16   C23   S    
C23   C88   S    
C91   C100  S    
C67   C75   S    
Cr3   O29   S    
C93   C97   S    
C35   C52   S    
C85   H75   S    
Cr3   O7    S    
Cr4   O8    S    
C83   C101  S    
C18   C22   S    
C48   H4    S    
C26   H121  S    
C36   H2    S    
C82   H16   S    
C4    O72   A    
C7    C76   S    
C18   C66   S    
C52   H130  S    
C53   H131  S    
C67   C70   S    
C83   H73   S    
C57   C58   S    
C44   O16   A    
C27   H123  S    
Cr12  O9    S    
Cr10  O25   S    
C30   C39   S    
C59   H53   S    
C37   C41   S    
Cr9   O56   S    
C40   C44   S    
C38   C56   S    
C113  O35   A    
C116  H102  S    
C43   C109  S    
C59   C76   S    
C81   C85   S    
H21   O58   S    
C47   C56   S    
C51   H7    S    
C24   C42   S    
C80   C84   S    
C88   O64   S    
C13   C41   S    
Cr2   O32   S    
C15   C19   S    
Cr2   O2    S    
C10   C103  S    
C35   H78   S    
C52   H35   S    
C80   C97   S    
C20   C25   S    
C117  H103  S    
C106  O68   S    
C44   O20   A    
C55   O21   A    
C31   C40   S    
C58   H52   S    
C59   H49   S    
C24   C29   S    
C4    C75   S    
C34   H43   S    
C25   C99   S    
C39   C55   S    
C65   H70   S    
C9    C102  S    
C12   C17   S    
C50   H34   S    
C13   C28   S    
C11   C104  S    
C112  O23   A    
C38   H24   S    
C119  O41   A    
C8    C101  S    
C21   C61   S    
C27   C45   S    
C23   C63   S    
C5    O2    A    
H28   O64   S    
C101  C114  S    
C31   C49   S    
C92   O58   S    
Cr5   O10   S    
Cr1   O40   S    
C89   H105  S    
C73   O52   S    
Cr1   O14   S    
C86   H76   S    
Cr12  O5    S    
C57   H47   S    
C15   H66   S    
C94   C116  S    
C95   C100  S    
C47   C51   S    
C82   C86   S    
C32   H42   S    
C87   H104  S    
C35   C39   S    
Cr6   O38   S    
C68   H58   S    
Cr7   O43   S    
C46   C54   S    
C17   C77   S    
C6    O67   A    
Cr7   O13   S    
C13   H115  S    
C107  O69   S    
C100  C118  S    
C115  H101  S    
C47   C113  S    
H9    O50   S    
C91   C108  S    
C92   H91   S    
C22   C77   S    
Cr4   O13   S    
Cr6   O42   S    
Cr11  O48   S    
Cr12  O31   S    
C56   H41   S    
C54   H132  S    
C2    H114  S    
C115  H96   S    
C79   C83   S    
H30   O66   S    
C20   C88   S    
C93   H92   S    
Cr1   O9    S    
Cr11  O13   S    
C6    C78   S    
Cr2   O6    S    
C71   O50   S    
Cr3   O3    S    
C1    C42   S    
C6    O3    A    
C120  O42   A    
C82   O57   S    
C80   O54   S    
C5    O56   A    
Cr5   O12   S    
C17   C21   S    
Cr6   O11   S    
C116  H97   S    
C14   C18   S    
C92   C96   S    
C72   C76   S    
C72   H63   S    
C98   C119  S    
C105  O66   S    
C27   H118  S    
C38   C42   S    
Cr7   O39   S    
C1    O18   A    
C4    O45   A    
C15   C16   S    
C7    O71   A    
C93   C115  S    
Cr10  O20   S    
C39   C110  S    
C118  O44   A    
C73   C78   S    
C3    C96   S    
C45   C49   S    
C43   C48   S    
C26   C110  S    
Cr11  O71   S    
Cr6   O23   S    
Cr5   O41   S    
C51   H36   S    
C66   O62   S    
H22   O59   S    
H19   O55   S    
C2    H109  S    
C58   C75   S    
Cr10  O47   S    
C60   H50   S    
C36   C40   S    
H23   O60   S    
Cr5   O15   S    
C68   C73   S    
C65   C71   S    
Cr6   O16   S    
C89   C97   S    
C57   C74   S    
C20   H67   S    
C9    O37   A    
C8    O5    A    
C22   C62   S    
C107  H86   S    
C12   H64   S    
C11   O39   A    
C79   H12   S    
C32   C41   S    
C105  H88   S    
C87   C96   S    
C118  O40   A    
C68   C76   S    
C32   C50   S    
C37   C54   S    
C26   C43   S    
C12   C14   S    
C69   H71   S    
H25   O61   S    
C24   H116  S    
C85   H80   S    
C57   H51   S    
C56   H3    S    
C33   O15   A    
C60   H54   S    
C111  O32   A    
Cr11  O26   S    
C82   C100  S    
Cr9   O24   S    
C28   H124  S    
Cr9   O46   S    
C67   H57   S    
H18   O54   S    
C46   C50   S    
C112  O33   A    
Cr7   O17   S    
C97   C120  S    
C86   H81   S    
Cr8   O22   S    
C71   C75   S    
C106  H90   S    
C36   H89   S    
C34   H127  S    
C102  C106  S    
C7    O4    A    
C108  O70   S    
C60   C78   S    
C89   H85   S    
C91   H107  S    
C63   O25   A    
C3    O43   A    
C64   O30   A    
C37   H13   S    
Cr10  O11   S    
C92   C114  S    
C90   C98   S    
