data_mof_unit_8928.cif
_audit_creation_date              2012-12-10T20:31:56-0500
_audit_creation_method            fapswitch 2.2
_symmetry_space_group_name_H-M    P1
_symmetry_Int_Tables_number       1
_space_group_crystal_system       triclinic
_cell_length_a                    9.911828
_cell_length_b                    10.757473
_cell_length_c                    15.500087
_cell_angle_alpha                 90.855648
_cell_angle_beta                  67.820097
_cell_angle_gamma                 91.536333
_cell_volume                      1529.84899304

loop_
_atom_site_label
_atom_site_type_symbol
_atom_type_description
_atom_site_fract_x
_atom_site_fract_y
_atom_site_fract_z
_atom_type_partial_charge
C1    C     C_R   0.499977 0.740152 0.502705 0.928579
C2    C     C_R   0.403277 0.455158 0.917262 0.083006
C3    C     C_R   0.259225 0.491561 0.972601 0.070555
C4    C     C_R   0.504162 0.429446 0.958862 0.071309
C5    C     C_R   0.470227 0.464372 0.052380 0.095675
C6    C     C_R   0.325766 0.494957 0.107501 -0.168771
C7    C     C_R   0.221155 0.513484 0.068865 -0.070324
C8    C     C_R   0.635581 0.366327 0.911152 -0.160025
C9    C     C_R   0.731286 0.341653 0.954873 -0.154518
C10   C     C_R   0.703772 0.386642 0.044554 0.113193
C11   C     C_R   0.579390 0.459211 0.090266 0.008012
C12   C     C_R   0.408406 0.495278 0.676091 0.933261
C13   C     C_R   0.796735 0.358035 0.090335 -0.200430
C14   C     C_R   0.763127 0.397380 0.181954 -0.206299
C15   C     C_R   0.568903 0.522304 0.172776 0.338399
C16   C     C_R   0.407866 0.935400 0.474828 -0.006386
C17   C     C_R   0.498699 0.873438 0.509489 -0.104159
C18   C     C_R   0.570211 0.939163 0.560711 -0.076372
C19   C     C_R   0.557155 0.069222 0.569869 -0.164493
C20   C     C_R   0.478355 0.129575 0.524197 -0.107699
C21   C     C_R   0.392039 0.062225 0.486602 0.006120
C22   C     C_3   0.227220 0.048100 0.526143 0.665246
C23   C     C_R   0.493329 0.260937 0.508042 0.910437
C24   C     C_3   0.247666 0.910526 0.501094 -0.460137
C25   C     C_R   0.888908 0.554063 0.570910 0.235796
C26   C     C_R   0.971726 0.461920 0.423944 -0.100798
C27   C     C_R   0.115879 0.463850 0.423273 0.077558
C28   C     C_R   0.031306 0.557490 0.570195 0.222123
C29   C     C_3   0.977744 0.530070 0.671913 -0.299747
C30   C     C_3   0.825366 0.517867 0.670386 -0.571187
C31   C     C_R   0.591371 0.498485 0.324196 0.948472
C32   C     C_R   0.350386 0.482020 0.777863 -0.025153
C33   C     C_R   0.647926 0.478578 0.223677 -0.166748
C34   C     C_R   0.157522 0.501128 0.929489 -0.140758
C35   C     C_R   0.203096 0.494882 0.832899 -0.139460
C36   C     C_R   0.446260 0.454027 0.820588 -0.151215
H1    H     H_    0.889474 0.299066 0.057559 0.163578
H2    H     H_    0.198319 0.848710 0.562159 0.231014
H3    H     H_    0.951667 0.424421 0.364778 0.194271
H4    H     H_    0.203742 0.429862 0.362531 0.178041
H5    H     H_    0.019754 0.441942 0.687536 0.206078
H6    H     H_    0.785263 0.419608 0.678207 0.233047
H7    H     H_    0.746036 0.587129 0.713120 0.245180
H8    H     H_    0.825247 0.362887 0.220593 0.197317
H9    H     H_    0.827162 0.287614 0.918304 0.175472
H10   H     H_    0.042765 0.512858 0.969121 0.192429
H11   H     H_    0.123607 0.501537 0.801835 0.159283
H12   H     H_    0.556764 0.436784 0.777138 0.157755
H13   H     H_    0.292862 0.502910 0.181945 0.201434
H14   H     H_    0.661866 0.326999 0.842417 0.183358
N1    N     N_R   0.856900 0.500860 0.500610 -0.116599
N2    N     N_R   0.142540 0.500820 0.500610 -0.094237
O1    O     O_R   0.385310 0.683210 0.499990 -0.594607
O2    O     O_R   0.614650 0.683240 0.500000 -0.593189
O3    O     O_R   0.319830 0.499970 0.632240 -0.596415
O4    O     O_R   0.549170 0.500000 0.632250 -0.624715
O5    O     O_R   0.385350 0.316760 0.500000 -0.550403
O6    O     O_R   0.614690 0.316790 0.500010 -0.641204
O7    O     O_R   0.450830 0.500000 0.367750 -0.592235
O8    O     O_R   0.680170 0.500030 0.367760 -0.604912
Zn1   Zn    Zn3+2 0.346870 0.499980 0.499990 1.080560
Zn2   Zn    Zn3+2 0.653130 0.500020 0.500010 1.013697
C37   C     C_2   0.080002 0.567587 0.129849 0.925302
O9    O     O_2   0.028266 0.542555 0.212753 -0.660807
O10   O     O_R   0.010704 0.653436 0.094586 -0.767790
H15   H     H_    0.916528 0.683862 0.143536 0.378166
C38   C     C_2   0.638774 0.871473 0.615472 0.936390
O11   O     O_2   0.565943 0.841196 0.695666 -0.580567
O12   O     O_R   0.786440 0.843313 0.575275 -0.742350
H16   H     H_    0.822605 0.803503 0.621129 0.356879
C39   C     C_2   0.601631 0.139666 0.639059 0.970678
O13   O     O_2   0.515604 0.210226 0.693599 -0.591003
O14   O     O_R   0.737530 0.126177 0.644802 -0.738043
H17   H     H_    0.805705 0.075453 0.591759 0.365054
S1    S     S_3+6 0.148805 0.071752 0.651074 0.053299
O15   O     O_2   0.157836 0.207183 0.674168 -0.281663
O16   O     O_2   0.992006 0.028430 0.687871 -0.236950
O17   O     O_3   0.239954 0.990223 0.702444 -0.583103
H18   H     H_    0.199109 0.016017 0.768760 0.398705
S2    S     S_3+6 0.136817 0.138391 0.467425 0.051020
O18   O     O_2   0.246800 0.193985 0.379937 -0.310633
O19   O     O_2   0.028356 0.060221 0.442740 -0.323484
O20   O     O_3   0.046562 0.251908 0.540151 -0.525788
H19   H     H_    0.953007 0.258119 0.531637 0.370360
C40   C     C_2   0.213815 0.865354 0.418635 1.144947
O21   O     O_2   0.282162 0.906413 0.340573 -0.512816
O22   O     O_R   0.099759 0.779027 0.432957 -0.774863
H20   H     H_    0.082340 0.758814 0.373863 0.375892
S3    S     S_3+6 0.493309 0.673072 0.199620 0.034119
O23   O     O_2   0.343523 0.663085 0.274189 -0.339142
O24   O     O_2   0.587755 0.754183 0.234732 -0.283052
O25   O     O_3   0.483915 0.738603 0.104233 -0.508374
H21   H     H_    0.426400 0.814448 0.127360 0.409678
C41   C     C_2   0.996394 0.640712 0.727763 0.922969
O26   O     O_2   0.897321 0.670353 0.800062 -0.568026
O27   O     O_R   0.130536 0.704195 0.699991 -0.785323
H22   H     H_    0.132689 0.770396 0.746608 0.383258

loop_
_geom_bond_atom_site_label_1
_geom_bond_atom_site_label_2
_ccdc_geom_bond_type
O6    Zn2   S    
C23   O6    A    
O22   H20   S    
C37   O10   S    
C9    H9    S    
C16   C21   A    
O14   H17   S    
C19   C39   S    
C19   C20   A    
C4    C8    A    
C35   H11   S    
C14   C33   A    
C40   O21   D    
C25   C28   A    
C26   C27   A    
C32   C36   A    
C28   C29   S    
C5    C11   A    
C3    C7    A    
N2    Zn1   S    
C5    C6    A    
C26   H3    S    
O8    Zn2   S    
C34   C35   A    
C31   O7    A    
C1    O1    A    
O1    Zn1   S    
C8    C9    A    
C24   H2    S    
C31   C33   S    
C34   H10   S    
S3    O24   D    
C9    C10   A    
C13   H1    S    
C16   C24   S    
C21   C22   S    
C12   C32   S    
O12   H16   S    
N1    Zn2   S    
C11   C15   A    
C22   S1    S    
S2    O20   S    
C40   O22   S    
O7    Zn1   S    
C38   O11   D    
C32   C35   A    
S2    O19   D    
C39   O14   S    
O17   H18   S    
C18   C19   A    
O2    Zn2   S    
C3    C34   A    
C18   C38   S    
C38   O12   S    
C31   O8    A    
C2    C4    A    
S1    O15   D    
C25   N1    A    
C29   C30   S    
C15   S3    S    
O20   H19   S    
C20   C23   S    
C27   H4    S    
O27   H22   S    
C17   C18   A    
S3    O25   S    
C41   O27   S    
S1    O16   D    
C7    C37   S    
C12   O4    A    
C1    O2    A    
C29   C41   S    
O4    Zn2   S    
C30   H7    S    
C8    H14   S    
C27   N2    A    
C14   H8    S    
C24   C40   S    
C2    C36   A    
C25   C30   S    
C23   O5    A    
C29   H5    S    
S2    O18   D    
C10   C13   A    
O5    Zn1   S    
C6    C7    A    
C1    C17   S    
C2    C3    A    
C22   S2    S    
C39   O13   D    
C26   N1    A    
C28   N2    A    
C16   C17   A    
O3    Zn1   S    
O25   H21   S    
C36   H12   S    
C22   C24   S    
C6    H13   S    
C41   O26   D    
S1    O17   S    
C12   O3    A    
C10   C11   A    
C37   O9    D    
C4    C5    A    
C20   C21   A    
O10   H15   S    
C30   H6    S    
S3    O23   D    
C13   C14   A    
C15   C33   A    
