data_mof_unit_33228.cif
_audit_creation_date              2013-03-05T16:12:49-0500
_audit_creation_method            fapswitch 2.2
_symmetry_space_group_name_H-M    P1
_symmetry_Int_Tables_number       1
_space_group_crystal_system       triclinic
_cell_length_a                    10.7124
_cell_length_b                    9.920915
_cell_length_c                    27.459767
_cell_angle_alpha                 90.001286
_cell_angle_beta                  90.940052
_cell_angle_gamma                 89.991761
_cell_volume                      2917.94362083

loop_
_atom_site_label
_atom_site_type_symbol
_atom_site_description
_atom_site_fract_x
_atom_site_fract_y
_atom_site_fract_z
_atom_type_partial_charge
O1    O     O_R   0.316770 0.614620 0.500000 -0.605815
O2    O     O_R   0.683230 0.385380 0.500000 -0.597275
O3    O     O_R   0.683230 0.614620 0.500000 -0.606044
O4    O     O_R   0.316770 0.385380 0.500000 -0.597645
C1    C     C_R   0.260128 0.499995 0.500160 0.885023
C2    C     C_R   0.739872 0.499985 0.499834 0.885150
O5    O     O_R   0.500030 0.614650 0.428760 -0.583696
O6    O     O_R   0.499970 0.385350 0.571240 -0.584353
O7    O     O_R   0.499970 0.614650 0.571240 -0.583926
O8    O     O_R   0.500030 0.385350 0.428760 -0.584077
C3    C     C_R   0.501319 0.500487 0.406048 0.882081
C4    C     C_R   0.498649 0.500506 0.593960 0.882419
Zn1   Zn    Zn3+2 0.500000 0.653120 0.500000 1.052003
Zn2   Zn    Zn3+2 0.500000 0.346880 0.500000 1.059434
C5    C     C_R   0.403582 0.596205 0.178868 0.534385
C6    C     C_R   0.598176 0.594075 0.821190 0.534437
O9    O     O_2   0.300007 0.613325 0.205528 -0.532712
O10   O     O_2   0.702042 0.608947 0.794530 -0.532853
N1    N     N_R   0.512821 0.555985 0.200940 -0.354625
N2    N     N_R   0.488187 0.556293 0.799113 -0.354504
C7    C     C_R   0.620441 0.541694 0.175312 0.510329
C8    C     C_R   0.380323 0.544435 0.824752 0.510173
C9    C     C_R   0.588147 0.619141 0.282163 -0.064649
C10   C     C_R   0.557056 0.432440 0.726868 -0.084384
C11   C     C_R   0.585717 0.604462 0.332360 -0.146495
C12   C     C_R   0.560148 0.418453 0.676426 -0.141467
C13   C     C_R   0.439006 0.419249 0.323593 -0.140456
C14   C     C_R   0.415510 0.605606 0.667700 -0.145534
C15   C     C_R   0.442271 0.433239 0.273154 -0.084313
C16   C     C_R   0.413412 0.620417 0.717897 -0.064538
C17   C     C_R   0.515793 0.534379 0.252404 0.276497
C18   C     C_R   0.484803 0.534653 0.747645 0.275989
C19   C     C_R   0.508713 0.606834 0.101696 -0.056353
C20   C     C_R   0.493302 0.607053 0.898371 -0.056432
C21   C     C_R   0.399086 0.620787 0.128678 -0.074438
C22   C     C_R   0.603166 0.618498 0.871387 -0.074490
C23   C     C_R   0.288686 0.662901 0.105369 -0.136102
C24   C     C_R   0.714380 0.658012 0.894703 -0.135958
C25   C     C_R   0.620845 0.568402 0.125292 -0.005151
C26   C     C_R   0.380442 0.571206 0.874773 -0.004990
C27   C     C_R   0.510416 0.505231 0.353295 -0.046766
C28   C     C_R   0.489663 0.505358 0.646732 -0.047940
H1    H     H_    0.376706 0.346197 0.339302 0.219085
H2    H     H_    0.360821 0.673927 0.645136 0.171992
H3    H     H_    0.385373 0.368122 0.250232 0.164663
H4    H     H_    0.358370 0.700322 0.733713 0.160379
H5    H     H_    0.206263 0.683993 0.126471 0.202501
H6    H     H_    0.797200 0.677185 0.873604 0.202523
C29   C     C_R   0.384501 0.624675 0.975754 0.064002
C30   C     C_R   0.617849 0.621942 0.024317 0.063963
C31   C     C_R   0.613485 0.645275 0.973447 0.024132
C32   C     C_R   0.389329 0.647883 0.026626 0.024221
C33   C     C_R   0.496891 0.627726 0.949182 0.034794
C34   C     C_R   0.505543 0.627604 0.050889 0.034958
C35   C     C_R   0.273543 0.584645 0.951503 -0.223612
C36   C     C_R   0.727981 0.579325 0.048564 -0.223705
C37   C     C_R   0.271380 0.559183 0.901758 -0.135174
C38   C     C_R   0.729642 0.553836 0.098306 -0.135163
O11   O     O_2   0.273635 0.505941 0.801899 -0.543840
O12   O     O_2   0.726368 0.500881 0.198179 -0.543730
C39   C     C_R   0.283256 0.681124 0.054894 0.171110
C40   C     C_R   0.720194 0.676038 0.945184 0.172283
H7    H     H_    0.621709 0.344682 0.660716 0.220037
H8    H     H_    0.641114 0.672039 0.354950 0.171124
H9    H     H_    0.613209 0.366508 0.749769 0.165090
H10   H     H_    0.644204 0.698190 0.266351 0.160014
H11   H     H_    0.184149 0.528054 0.884700 0.193849
H12   H     H_    0.816233 0.520681 0.115362 0.193953
H13   H     H_    0.188822 0.564863 0.971007 0.167182
H14   H     H_    0.812287 0.557553 0.029057 0.167628
C41   C     C_R   0.063898 0.377022 0.500273 -0.135447
C42   C     C_R   0.936117 0.622807 0.499617 -0.136998
C43   C     C_R   0.936136 0.377015 0.499777 -0.135363
C44   C     C_R   0.063848 0.622814 0.500275 -0.136928
H15   H     H_    0.112197 0.281113 0.500625 0.202490
H16   H     H_    0.887865 0.718704 0.499093 0.204111
H17   H     H_    0.887865 0.281104 0.499487 0.202567
H18   H     H_    0.112072 0.718715 0.500734 0.204119
C45   C     C_R   0.872456 0.499929 0.499642 -0.042158
C46   C     C_R   0.127543 0.499942 0.500337 -0.042104
C47   C     C_R   0.558087 0.071452 0.536713 0.219880
C48   C     C_R   0.441000 0.927937 0.463533 0.206680
C49   C     C_R   0.441937 0.071484 0.463283 0.219897
C50   C     C_R   0.559056 0.927904 0.536451 0.206907
N3    N     N_R   0.500000 0.857200 0.500000 -0.227623
N4    N     N_R   0.500000 0.142800 0.500000 -0.222011
N5    N     N_R   0.618035 0.141022 0.576073 0.255109
O13   O     O_R   0.728121 0.192943 0.570196 -0.380820
O14   O     O_R   0.575645 0.126917 0.619874 -0.362099
N6    N     N_R   0.374784 0.857255 0.425886 0.269153
O15   O     O_R   0.258400 0.825441 0.431980 -0.371961
O16   O     O_R   0.421663 0.849400 0.382583 -0.329882
N7    N     N_R   0.381909 0.141113 0.423953 0.255338
O17   O     O_R   0.424873 0.128017 0.380198 -0.361453
O18   O     O_R   0.271478 0.192275 0.429768 -0.381141
N8    N     N_R   0.625602 0.857190 0.574007 0.269338
O19   O     O_R   0.578788 0.848748 0.617307 -0.330472
O20   O     O_R   0.742210 0.826318 0.567898 -0.371935
C51   C     C_3   0.169041 0.751937 0.034490 -0.924079
H19   H     H_    0.087914 0.682292 0.034249 0.235676
H20   H     H_    0.146179 0.839986 0.057708 0.255852
H21   H     H_    0.184205 0.792821 0.997471 0.258191
C52   C     C_3   0.835829 0.744078 0.965602 -0.926082
H22   H     H_    0.860521 0.831535 0.942394 0.256142
H23   H     H_    0.821484 0.785345 0.002622 0.258163
H24   H     H_    0.915506 0.672479 0.965845 0.234739

loop_
_geom_bond_atom_site_label_1
_geom_bond_atom_site_label_2
_geom_bond_distance
_ccdc_geom_bond_type
C16   C18   1.398379 A    
N5    O13   1.299435 A    
N7    O17   1.300149 A    
C13   C15   1.393008 A    
C42   H16   1.082652 S    
O3    C2    1.288991 A    
N1    C17   1.429179 S    
N6    O15   1.299600 A    
O2    C2    1.288880 A    
O5    C3    1.293123 A    
C19   C25   1.407991 A    
O1    C1    1.289054 A    
C9    H10   1.082989 S    
N1    C7    1.367863 A    
C10   C12   1.392996 A    
C42   C45   1.396936 A    
C32   C39   1.425219 A    
C49   N7    1.426252 S    
C50   N8    1.428179 S    
C14   C28   1.402282 A    
O7    Zn1   1.993128 S    
C4    C28   1.454689 S    
N8    O20   1.299653 A    
C23   H5    1.084384 S    
C24   H6    1.084395 S    
C47   N4    1.372538 A    
O3    Zn1   1.999597 S    
C6    N2    1.368552 A    
N7    O18   1.299460 A    
C44   C46   1.396878 A    
C39   C51   1.510538 S    
C31   C40   1.425272 A    
C37   H11   1.083378 S    
C5    C21   1.399677 A    
C41   C46   1.397211 A    
C32   C34   1.416662 A    
C50   N3    1.368734 A    
Zn2   N4    2.024660 S    
C7    O12   1.349944 S    
C42   C44   1.368136 A    
O8    Zn2   1.993133 S    
C11   C27   1.402072 A    
C8    O11   1.349976 S    
C41   C43   1.368481 A    
C29   C35   1.410023 A    
C25   C38   1.398794 A    
C14   H2    1.083749 S    
C30   C36   1.409991 A    
C15   H3    1.082841 S    
C31   C33   1.416705 A    
C11   H8    1.083720 S    
C9    C17   1.398233 A    
C5    N1    1.368419 A    
C12   H7    1.079727 S    
C10   C18   1.402531 A    
C13   C27   1.399195 A    
N6    O16   1.300697 A    
C51   H19   1.110273 S    
C7    C25   1.398941 A    
O6    C4    1.301873 A    
C29   C32   1.415887 A    
C8    C26   1.398960 A    
N8    O19   1.300695 A    
C51   H21   1.108916 S    
C30   C31   1.415920 A    
C43   C45   1.397152 A    
C52   H23   1.108926 S    
C30   C34   1.418350 A    
C1    C46   1.420389 S    
C35   H13   1.079380 S    
C10   H9    1.082888 S    
C38   H12   1.083357 S    
C51   H20   1.111101 S    
N2    C8    1.367983 A    
C36   H14   1.079352 S    
N5    O14   1.300157 A    
C20   C26   1.408012 A    
O1    Zn1   1.999705 S    
C47   C50   1.424176 A    
C12   C28   1.399268 A    
C40   C52   1.510587 S    
N2    C18   1.429400 S    
C19   C34   1.410145 A    
C5    O9    1.349967 S    
O6    Zn2   1.993111 S    
C26   C37   1.398831 A    
C21   C23   1.399270 A    
C16   H4    1.083034 S    
O4    C1    1.288816 A    
C23   C39   1.398038 A    
C48   N3    1.368880 A    
C48   N6    1.428154 S    
C35   C37   1.388953 A    
C14   C16   1.386753 A    
C15   C17   1.402413 A    
C6    C22   1.399694 A    
C41   H15   1.082981 S    
C47   N5    1.426281 S    
C2    C45   1.420391 S    
C29   C33   1.418349 A    
C22   C24   1.399310 A    
C19   C21   1.405618 A    
C36   C38   1.388957 A    
C3    C27   1.454223 S    
C52   H24   1.110300 S    
C20   C22   1.405596 A    
C9    C11   1.386734 A    
O4    Zn2   1.999597 S    
O2    Zn2   1.999705 S    
O7    C4    1.293103 A    
O8    C3    1.301629 A    
C13   H1    1.079956 S    
O5    Zn1   1.993116 S    
C49   N4    1.372424 A    
C20   C33   1.410148 A    
C6    O10   1.349985 S    
C48   C49   1.424174 A    
C44   H18   1.082663 S    
Zn1   N3    2.024660 S    
C52   H22   1.111098 S    
C43   H17   1.082984 S    
C24   C40   1.398050 A    
