data_mof_unit_14982.cif
_audit_creation_date              2012-12-11T15:51:20-0500
_audit_creation_method            fapswitch 2.2
_symmetry_space_group_name_H-M    P1
_symmetry_Int_Tables_number       1
_space_group_crystal_system       triclinic
_cell_length_a                    6.947642
_cell_length_b                    17.34688
_cell_length_c                    18.735164
_cell_angle_alpha                 106.360998
_cell_angle_beta                  89.544028
_cell_angle_gamma                 90.356053
_cell_volume                      2166.43917504

loop_
_atom_site_label
_atom_site_type_symbol
_atom_type_description
_atom_site_fract_x
_atom_site_fract_y
_atom_site_fract_z
_atom_type_partial_charge
O1    O     O_R   0.494360 0.415660 0.413760 -0.556435
O2    O     O_R   0.818840 0.432910 0.557230 -0.516168
O3    O     O_R   0.994290 0.584340 0.586240 -0.496732
C1    C     C_R   0.649790 0.415898 0.580591 0.773305
O4    O     O_R   0.823740 0.406430 0.412520 -0.526866
O5    O     O_R   0.999220 0.557660 0.440500 -0.506641
C2    C     C_R   0.655491 0.384630 0.383814 0.770007
O6    O     O_R   0.489430 0.442340 0.559500 -0.530454
O7    O     O_3   0.662490 0.549650 0.509350 -0.340643
V1    V     V_3+5 0.935340 0.490790 0.498270 1.635088
O8    O     O_R   0.329240 0.567090 0.442770 -0.532927
C3    C     C_R   0.161177 0.584042 0.419373 0.731898
O9    O     O_R   0.324340 0.593570 0.587480 -0.532766
C4    C     C_R   0.154876 0.616352 0.615647 0.825140
V2    V     V_3+5 0.435970 0.509210 0.501730 1.587314
O10   O     O_3   0.158950 0.450350 0.490650 -0.383995
C5    C     C_R   0.258940 0.755974 0.689342 -0.277325
C6    C     C_R   0.243490 0.823980 0.752773 0.378470
C7    C     C_R   0.121028 0.819818 0.812608 -0.219784
C8    C     C_R   0.007398 0.751429 0.806008 -0.281183
H1    H     H_    0.912769 0.749352 0.851653 0.193683
C9    C     C_R   0.016860 0.685032 0.743100 0.484399
C10   C     C_R   0.143261 0.686469 0.683564 -0.258826
C11   C     C_1   0.111473 0.863950 0.132676 -0.169474
C12   C     C_1   0.118963 0.821351 0.176218 0.032587
C13   C     C_1   0.128419 0.771061 0.228048 0.048223
C14   C     C_1   0.136514 0.728717 0.271802 0.064833
C15   C     C_1   0.145971 0.678482 0.323672 0.090008
C16   C     C_1   0.153455 0.635956 0.367269 -0.091003
C17   C     C_1   0.641168 0.364159 0.632791 -0.142177
C18   C     C_1   0.637010 0.321671 0.676454 0.046119
C19   C     C_1   0.633648 0.271446 0.728363 0.048506
C20   C     C_1   0.631149 0.229079 0.772146 0.061295
C21   C     C_1   0.627822 0.178763 0.823966 0.080192
C22   C     C_1   0.623712 0.136128 0.867487 -0.091622
C23   C     C_R   0.635254 0.240047 0.317661 -0.228820
H2    H     H_    0.637357 0.230302 0.372338 0.162587
C24   C     C_R   0.627037 0.173875 0.253837 -0.062576
C25   C     C_R   0.617822 0.187600 0.182616 -0.284912
C26   C     C_R   0.614749 0.268128 0.177152 0.355430
C27   C     C_R   0.647452 0.333725 0.242385 0.286330
C28   C     C_R   0.646957 0.318874 0.313095 -0.231602
O11   O     O_R   0.775430 0.057750 0.940570 -0.524714
O12   O     O_R   0.440960 0.093590 0.087490 -0.521578
O13   O     O_R   0.265640 0.942320 0.059480 -0.535146
C29   C     C_R   0.609453 0.118158 0.114213 0.861606
O14   O     O_R   0.446010 0.067110 0.942790 -0.501892
O15   O     O_R   0.270710 0.915650 0.913740 -0.505168
C30   C     C_R   0.615088 0.084222 0.919518 0.843425
O16   O     O_R   0.770350 0.084410 0.086310 -0.527561
O17   O     O_3   0.602410 0.950400 0.990690 -0.366447
V3    V     V_3+5 0.329510 0.009200 0.001730 1.636208
O18   O     O_R   0.940670 0.906340 0.912450 -0.543855
C31   C     C_R   0.109909 0.885412 0.883296 0.811045
O19   O     O_R   0.935630 0.932820 0.057160 -0.525967
C32   C     C_R   0.103705 0.915928 0.080612 0.694534
V4    V     V_3+5 0.828890 0.990680 0.998180 1.581570
O20   O     O_3   0.105860 0.049600 0.009310 -0.352865
C33   C     C_2   0.395509 0.757577 0.628334 0.977162
O21   O     O_2   0.333845 0.754986 0.566851 -0.528514
O22   O     O_R   0.594246 0.761288 0.639968 -0.617924
H3    H     H_    0.629599 0.759817 0.691936 0.279181
S1    S     S_3+6 0.366408 0.915773 0.755315 0.003558
O23   O     O_2   0.404511 0.923428 0.678468 -0.306629
O24   O     O_2   0.248134 0.986890 0.796527 -0.335864
O25   O     O_3   0.576736 0.917740 0.799781 -0.523742
H4    H     H_    0.677294 0.906304 0.760489 0.350307
S2    S     S_3+6 0.874882 0.599831 0.743867 -0.012266
O26   O     O_2   0.702279 0.596589 0.695242 -0.355579
O27   O     O_2   0.990747 0.524390 0.715041 -0.349490
O28   O     O_3   0.799242 0.606065 0.830827 -0.497054
H5    H     H_    0.715723 0.558327 0.825621 0.380203
C34   C     C_2   0.622426 0.091513 0.264550 0.767694
O29   O     O_2   0.582012 0.083229 0.325666 -0.540497
O30   O     O_R   0.666169 0.023439 0.206147 -0.677580
H6    H     H_    0.658066 0.971819 0.221313 0.293602
S3    S     S_3+6 0.563711 0.284142 0.088580 0.075639
O31   O     O_2   0.504466 0.368752 0.094342 -0.220098
O32   O     O_2   0.740234 0.263796 0.040172 -0.333654
O33   O     O_3   0.381176 0.224634 0.047296 -0.510590
H7    H     H_    0.362181 0.237201 0.999435 0.356189
S4    S     S_3+6 0.698956 0.433030 0.236381 0.103596
O34   O     O_2   0.807535 0.482372 0.302658 -0.363086
O35   O     O_2   0.820276 0.428972 0.168646 -0.214736
O36   O     O_3   0.491223 0.480156 0.230710 -0.432961
H8    H     H_    0.418544 0.479798 0.276321 0.317456

loop_
_geom_bond_atom_site_label_1
_geom_bond_atom_site_label_2
_ccdc_geom_bond_type
O19   C32   A    
S1    O24   D    
C3    C16   S    
C27   C28   A    
C23   C28   A    
C7    C8    A    
C1    O6    A    
O14   C30   A    
O18   C31   A    
O15   C31   A    
C13   C14   T    
C5    C10   A    
C23   H2    S    
C6    C7    A    
O5    C3    A    
C24   C25   A    
C6    S1    S    
V2    O10   S    
C21   C22   T    
C34   O29   D    
C2    C28   S    
O8    V2    S    
O13   C32   A    
S2    O26   D    
C22   C30   S    
O17   V4    S    
O7    V1    S    
O12   V3    S    
O25   H4    S    
S1    O25   S    
C33   O21   D    
O9    C4    A    
C34   O30   S    
O12   C29   A    
C5    C6    A    
S3    O32   D    
C33   O22   S    
O17   V3    S    
C11   C12   T    
C25   C26   A    
O4    C2    A    
O18   V4    S    
O11   C30   A    
O13   V3    S    
C12   C13   S    
S3    O31   D    
C4    C10   S    
O2    C1    A    
O30   H6    S    
C18   C19   S    
C20   C21   S    
C9    S2    S    
O36   H8    S    
O3    C4    A    
V3    O20   S    
C5    C33   S    
C25   C29   S    
O1    V2    S    
C7    C31   S    
C26   C27   A    
C8    C9    A    
O6    V2    S    
S4    O35   D    
O9    V2    S    
O2    V1    S    
S3    O33   S    
C15   C16   T    
O1    C2    A    
O16   V4    S    
O33   H7    S    
O5    V1    S    
O8    C3    A    
O14   V3    S    
C11   C32   S    
S4    O36   S    
C29   O16   A    
C19   C20   T    
O19   V4    S    
O7    V2    S    
O4    V1    S    
O3    V1    S    
V1    O10   S    
V4    O20   S    
C17   C18   T    
S2    O28   S    
C27   S4    S    
C23   C24   A    
C26   S3    S    
O22   H3    S    
O11   V4    S    
S1    O23   D    
O15   V3    S    
O28   H5    S    
C8    H1    S    
S2    O27   D    
S4    O34   D    
C14   C15   S    
C9    C10   A    
C1    C17   S    
C24   C34   S    
