data_mof_unit_34239.cif
_audit_creation_date              2012-12-11T14:25:57-0500
_audit_creation_method            fapswitch 2.2
_symmetry_space_group_name_H-M    P1
_symmetry_Int_Tables_number       1
_space_group_crystal_system       triclinic
_cell_length_a                    6.945532
_cell_length_b                    14.725722
_cell_length_c                    16.2638
_cell_angle_alpha                 90.680059
_cell_angle_beta                  90.116217
_cell_angle_gamma                 89.85148
_cell_volume                      1663.30242594

loop_
_atom_site_label
_atom_site_type_symbol
_atom_type_description
_atom_site_fract_x
_atom_site_fract_y
_atom_site_fract_z
_atom_type_partial_charge
O1    O     O_R   0.494490 0.416160 0.413410 -0.546338
O2    O     O_R   0.823830 0.407240 0.585990 -0.547414
O3    O     O_R   0.994160 0.583840 0.586590 -0.523098
C1    C     C_R   0.655737 0.383809 0.612827 0.727510
O4    O     O_R   0.824200 0.405280 0.414020 -0.505709
O5    O     O_R   0.994530 0.581860 0.413390 -0.519203
C2    C     C_R   0.655412 0.382059 0.386586 0.764444
O6    O     O_R   0.494110 0.418140 0.586610 -0.550359
O7    O     O_3   0.660810 0.557940 0.500000 -0.363284
V1    V     V_3+5 0.935650 0.489250 0.500000 1.517987
O8    O     O_R   0.324250 0.592760 0.414010 -0.549694
C3    C     C_R   0.155099 0.616474 0.388073 0.814651
O9    O     O_R   0.323880 0.594720 0.585980 -0.537267
C4    C     C_R   0.155791 0.615617 0.615840 0.693363
V2    V     V_3+5 0.435660 0.510750 0.500000 1.473557
O10   O     O_3   0.160630 0.442060 0.500000 -0.380627
C5    C     C_3   0.038380 0.642588 0.763112 0.180555
H1    H     H_    0.117326 0.580871 0.783155 0.121324
C6    C     C_3   0.037950 0.711736 0.837404 0.205259
H2    H     H_    0.136832 0.684224 0.885046 0.109218
H3    H     H_    0.897803 0.756291 0.632675 0.192843
H4    H     H_    0.860285 0.851011 0.745214 0.161201
C7    C     C_3   0.040500 0.771948 0.660199 -0.425789
C8    C     C_3   0.354848 0.711306 0.720550 0.596567
C9    C     C_3   0.147603 0.683814 0.687555 -0.093060
C10   C     C_3   0.122083 0.805800 0.810929 -0.088989
C11   C     C_3   0.015852 0.839905 0.732965 -0.383545
C12   C     C_3   0.335986 0.789413 0.785667 -0.377139
H5    H     H_    0.422493 0.772410 0.841124 0.173558
H6    H     H_    0.397797 0.853693 0.761983 0.132325
H7    H     H_    0.120562 0.805669 0.610404 0.146400
H8    H     H_    0.074778 0.907065 0.715085 0.149271
C13   C     C_2   0.012715 0.700693 0.272791 0.310166
C14   C     C_2   0.144892 0.696878 0.334331 -0.065366
C15   C     C_2   0.987387 0.783814 0.222413 0.069240
C16   C     C_2   0.121360 0.803105 0.165008 -0.378339
H9    H     H_    0.245896 0.758708 0.159155 0.126745
C17   C     C_2   0.776841 0.199833 0.775138 -0.114665
C18   C     C_2   0.611880 0.170580 0.808788 -0.357360
H10   H     H_    0.911716 0.178743 0.802764 0.152601
H11   H     H_    0.474560 0.188781 0.781578 0.133211
C19   C     C_2   0.787160 0.254984 0.698422 0.153136
C20   C     C_2   0.647984 0.317744 0.681307 -0.340958
H12   H     H_    0.523258 0.323648 0.721100 0.128110
C21   C     C_2   0.766534 0.197199 0.220307 -0.255687
C22   C     C_2   0.616073 0.189281 0.167896 0.178427
H13   H     H_    0.883139 0.148029 0.215912 0.091074
C23   C     C_2   0.792573 0.273278 0.281566 0.408029
C24   C     C_2   0.641157 0.308749 0.323537 -0.271726
H14   H     H_    0.498212 0.281193 0.313520 0.145068
O11   O     O_R   0.770850 0.076180 0.907410 -0.540576
O12   O     O_R   0.440600 0.088970 0.079950 -0.546750
O13   O     O_R   0.270430 0.912340 0.080550 -0.546201
C25   C     C_R   0.609194 0.113030 0.106752 0.654489
O14   O     O_R   0.441120 0.087010 0.907980 -0.545446
O15   O     O_R   0.270950 0.910370 0.907350 -0.549791
C26   C     C_R   0.609053 0.107923 0.879320 0.755665
O16   O     O_R   0.770320 0.078150 0.080620 -0.544743
O17   O     O_3   0.604200 0.936340 0.994000 -0.368021
V3    V     V_3+5 0.329300 0.004970 0.993950 1.398129
O18   O     O_R   0.941240 0.899420 0.907920 -0.529547
C27   C     C_R   0.110396 0.876419 0.880037 0.731883
O19   O     O_R   0.940720 0.901380 0.079890 -0.529553
C28   C     C_R   0.109541 0.879110 0.107060 0.771228
V4    V     V_3+5 0.829310 0.983370 0.993880 1.430730
O20   O     O_3   0.104280 0.052120 0.993920 -0.374825
O21   O     O_3   0.852836 0.611957 0.742775 -0.611050
H15   H     H_    0.778922 0.664501 0.722749 0.350166
O22   O     O_3   0.898573 0.625650 0.256856 -0.639279
H16   H     H_    0.822252 0.637371 0.206523 0.303431
C29   C     C_3   0.280925 0.775101 0.354938 -0.427380
C30   C     C_3   0.241153 0.814056 0.440535 -0.784158
H17   H     H_    0.088032 0.835342 0.445869 0.221677
H18   H     H_    0.274337 0.762577 0.487783 0.226755
H19   H     H_    0.334313 0.874073 0.452021 0.221060
H20   H     H_    0.431774 0.750025 0.352865 0.209465
H21   H     H_    0.270924 0.831864 0.311191 0.197421
C31   C     C_3   0.820576 0.846376 0.243332 -0.316403
C32   C     C_3   0.636654 0.818031 0.198629 -0.707375
H22   H     H_    0.659998 0.811590 0.131399 0.253997
H23   H     H_    0.585029 0.751909 0.221715 0.203421
H24   H     H_    0.523646 0.870052 0.209926 0.200523
H25   H     H_    0.793990 0.844714 0.310692 0.165584
H26   H     H_    0.855256 0.918085 0.229145 0.166731
C33   C     C_3   0.960285 0.241659 0.641594 -0.283746
C34   C     C_3   0.070690 0.152445 0.652828 -0.821479
H27   H     H_    0.152981 0.153350 0.711374 0.216302
H28   H     H_    0.970396 0.093782 0.651486 0.232254
H29   H     H_    0.175792 0.143648 0.601957 0.221760
H30   H     H_    0.909179 0.241387 0.576747 0.173691
H31   H     H_    0.062307 0.298959 0.650559 0.188671
O23   O     O_3   0.473778 0.255285 0.168440 -0.647734
H32   H     H_    0.383216 0.243428 0.122460 0.296545
O24   O     O_3   0.976106 0.304624 0.298486 -0.629290
H33   H     H_    0.068069 0.272227 0.261873 0.295689
O25   O     O_3   0.856227 0.718454 0.875339 -0.612223
H34   H     H_    0.768456 0.751688 0.838321 0.314893
O26   O     O_3   0.478547 0.738240 0.656432 -0.655049
H35   H     H_    0.431858 0.796474 0.633853 0.262917
O27   O     O_3   0.440059 0.637029 0.760950 -0.651608
H36   H     H_    0.469394 0.589090 0.719609 0.316926

loop_
_geom_bond_atom_site_label_1
_geom_bond_atom_site_label_2
_ccdc_geom_bond_type
O19   V4    S    
C15   C16   D    
C1    O6    A    
C33   H31   S    
C18   H11   S    
C21   C22   D    
C10   C11   S    
C23   O24   S    
C8    O26   S    
C16   H9    S    
C17   C19   S    
O5    C3    A    
C29   H20   S    
O13   C28   A    
C34   H28   S    
C22   O23   S    
V2    O10   S    
C18   C26   S    
O11   V4    S    
C6    C10   S    
O27   H36   S    
O12   V3    S    
C13   C15   S    
O8    V2    S    
C31   H25   S    
C6    H2    S    
O11   C26   A    
C7    C11   S    
O7    V1    S    
C13   O22   S    
O14   V3    S    
V3    O20   S    
O17   V3    S    
O1    C2    A    
O9    C4    A    
O22   H16   S    
C30   H19   S    
O13   V3    S    
O12   C25   A    
C13   C14   D    
C21   H13   S    
H3    C7    S    
C5    O21   S    
O21   H15   S    
C8    C9    S    
C2    C24   S    
C30   H18   S    
C32   H23   S    
C34   H27   S    
C33   C34   S    
C32   H22   S    
C7    H7    S    
O2    C1    A    
C20   H12   S    
O18   V4    S    
O16   V4    S    
O8    C3    A    
O25   H34   S    
C22   C25   S    
C5    H1    S    
O24   H33   S    
C19   C33   S    
O3    C4    A    
O1    V2    S    
C23   C24   D    
C24   H14   S    
O6    V2    S    
H4    C11   S    
O14   C26   A    
O15   C27   A    
C19   C20   D    
C3    C14   S    
O2    V1    S    
C29   H21   S    
O4    C2    A    
C25   O16   A    
C21   C23   S    
C12   H5    S    
C11   H8    S    
C8    O27   S    
C8    C12   S    
C30   H17   S    
C34   H29   S    
O5    V1    S    
C32   H24   S    
C33   H30   S    
C1    C20   S    
C15   C31   S    
C10   C12   S    
C5    C9    S    
O9    V2    S    
O7    V2    S    
O4    V1    S    
V4    O20   S    
O3    V1    S    
V1    O10   S    
O17   V4    S    
C17   H10   S    
C31   C32   S    
C17   C18   D    
C12   H6    S    
O23   H32   S    
C5    C6    S    
C7    C9    S    
C4    C9    S    
C10   C27   S    
O18   C27   A    
O19   C28   A    
C31   H26   S    
C29   C30   S    
O15   V3    S    
O26   H35   S    
C16   C28   S    
C14   C29   S    
C6    O25   S    
