data_mof_unit_67310.cif
_audit_creation_date              2012-12-11T18:26:24-0500
_audit_creation_method            fapswitch 2.2
_symmetry_space_group_name_H-M    P1
_symmetry_Int_Tables_number       1
_space_group_crystal_system       triclinic
_cell_length_a                    8.238593
_cell_length_b                    14.356621
_cell_length_c                    16.376872
_cell_angle_alpha                 105.143422
_cell_angle_beta                  81.971926
_cell_angle_gamma                 91.763291
_cell_volume                      1851.40879098

loop_
_atom_site_label
_atom_site_type_symbol
_atom_type_description
_atom_site_fract_x
_atom_site_fract_y
_atom_site_fract_z
_atom_type_partial_charge
Ba1   Ba    Ba6+2 0.356390 0.534880 0.456030 1.636773
Ba2   Ba    Ba6+2 0.833430 0.465200 0.543970 1.628747
C1    C     C_3   0.004532 0.793889 0.215845 0.017096
C2    C     C_R   0.919914 0.453241 0.246322 -0.298101
C3    C     C_2   0.471903 0.595222 0.855472 -0.123919
C4    C     C_3   0.545009 0.838297 0.251219 0.363604
C5    C     C_2   0.439577 0.572477 0.774469 0.062399
C6    C     C_2   0.182048 0.490158 0.810460 0.006216
C7    C     C_3   0.200593 0.525037 0.904981 -0.044526
C8    C     C_3   0.378806 0.549581 0.920695 -0.030727
C9    C     C_2   0.111936 0.464055 0.960706 -0.085151
C10   C     C_2   0.165526 0.449791 0.031142 -0.087097
C11   C     C_R   0.920843 0.357968 0.075263 -0.015411
C12   C     C_3   0.023398 0.683879 0.201987 0.554322
C13   C     C_R   0.051465 0.419387 0.098529 -0.051799
C14   C     C_R   0.788903 0.345627 0.135680 0.127600
C15   C     C_R   0.782560 0.398856 0.221788 0.075269
C16   C     C_3   0.565503 0.825565 0.154254 -0.071282
C17   C     C_R   0.055342 0.462822 0.186315 -0.004211
C18   C     C_R   0.175513 0.947339 0.551375 -0.051449
C19   C     C_R   0.005656 0.801925 0.501150 0.055928
C20   C     C_R   0.875327 0.760855 0.456969 -0.263747
C21   C     C_R   0.779580 0.816153 0.422591 -0.014775
C22   C     C_R   0.822288 0.911992 0.426812 -0.162340
C23   C     C_3   0.127508 0.247439 0.278819 0.483333
C24   C     C_R   0.957947 0.953399 0.466254 0.006752
C25   C     C_R   0.047546 0.900242 0.506918 -0.020548
C26   C     C_R   0.129929 0.095030 0.510073 -0.028876
C27   C     C_R   0.218411 0.043338 0.552320 -0.009358
C28   C     C_3   0.637210 0.772845 0.638903 0.304789
C29   C     C_R   0.173328 0.191884 0.512239 0.039092
C30   C     C_R   0.299125 0.235867 0.556612 -0.283505
C31   C     C_R   0.395564 0.182829 0.591340 0.021351
C32   C     C_R   0.353520 0.087360 0.591588 -0.148499
C33   C     C_R   0.002178 0.048357 0.466383 -0.036964
C34   C     C_3   0.253940 0.215658 0.197646 0.005384
C35   C     C_3   0.627813 0.882228 0.656740 -0.415788
C36   C     C_3   0.548178 0.238810 0.379445 0.294137
C37   C     C_3   0.544802 0.129907 0.367010 -0.411494
C38   C     C_3   0.135360 0.707106 0.707515 0.352012
C39   C     C_3   0.118370 0.750062 0.804432 -0.053247
C40   C     C_3   0.842064 0.819212 0.855591 -0.170346
C41   C     C_3   0.790931 0.598241 0.128989 -0.214693
C42   C     C_3   0.912691 0.154321 0.200873 -0.234356
C43   C     C_3   0.301657 0.082260 0.068342 -0.268941
C44   C     C_3   0.157248 0.825909 0.086665 -0.275956
C45   C     C_3   0.508208 0.302889 0.785996 0.383239
C46   C     C_3   0.491965 0.109231 0.859860 -0.242612
C47   C     C_3   0.017044 0.053937 0.845145 -0.263371
C48   C     C_3   0.534614 0.319719 0.078923 -0.252706
C49   C     C_3   0.652788 0.984058 0.136758 -0.296531
C50   C     C_3   0.494360 0.284544 0.873870 -0.011062
C51   C     C_3   0.995037 0.252139 0.734926 0.376619
C52   C     C_3   0.950372 0.156819 0.757607 -0.022819
C53   C     C_2   0.297368 0.511156 0.750901 -0.288261
H1    H     H_    0.952600 0.666548 0.259393 -0.080948
H2    H     H_    0.063635 0.639261 0.693530 0.069234
H3    H     H_    0.101787 0.833687 0.251606 0.069102
H4    H     H_    0.156634 0.827058 0.819864 0.085743
H5    H     H_    0.887395 0.816799 0.256992 0.026826
H6    H     H_    0.154614 0.324525 0.307013 0.009622
H7    H     H_    0.224318 0.255390 0.151614 0.020659
H8    H     H_    0.692138 0.803012 0.125253 0.109854
H9    H     H_    0.564066 0.375057 0.789318 0.038558
H10   H     H_    0.382497 0.302803 0.768467 -0.055396
H11   H     H_    0.618619 0.279745 0.891782 0.106183
H12   H     H_    0.705137 0.916959 0.706521 0.104013
H13   H     H_    0.430702 0.347584 0.920216 0.012034
H14   H     H_    0.130177 0.257661 0.721192 -0.067313
H15   H     H_    0.940963 0.250922 0.676318 0.077303
H16   H     H_    0.950526 0.098018 0.697857 0.038264
H17   H     H_    0.825077 0.162782 0.793514 0.133044
H18   H     H_    0.575708 0.640523 0.873323 0.092147
H19   H     H_    0.919632 0.490307 0.312957 0.077669
H20   H     H_    0.986326 0.445236 0.951028 0.114188
H21   H     H_    0.286036 0.474890 0.045793 0.093391
H22   H     H_    0.842719 0.686435 0.453296 0.064770
H23   H     H_    0.671562 0.905136 0.597923 0.074906
H24   H     H_    0.749272 0.954678 0.399889 0.052801
H25   H     H_    0.413179 0.851356 0.277069 0.059138
H26   H     H_    0.332546 0.309453 0.556835 0.057227
H27   H     H_    0.244041 0.910442 0.585196 0.093739
H28   H     H_    0.934003 0.085269 0.432374 0.107600
H29   H     H_    0.483285 0.766351 0.126657 0.094282
H30   H     H_    0.766649 0.749535 0.620806 0.008519
H31   H     H_    0.566152 0.740831 0.585609 0.064871
H32   H     H_    0.455815 0.096477 0.323009 0.131424
H33   H     H_    0.203538 0.711318 0.831080 -0.004527
H34   H     H_    0.498947 0.906952 0.679101 0.113811
H35   H     H_    0.946656 0.713731 0.897910 0.200731
H36   H     H_    0.715969 0.799039 0.878335 0.098654
H37   H     H_    0.840326 0.838042 0.794261 0.144504
H38   H     H_    0.880425 0.882770 0.903944 0.063564
H39   H     H_    0.010728 0.642400 0.067464 0.210679
H40   H     H_    0.713065 0.650431 0.113912 0.132461
H41   H     H_    0.743993 0.586410 0.192287 0.139525
H42   H     H_    0.781296 0.529734 0.079624 0.094955
H43   H     H_    0.880632 0.263993 0.312761 0.198043
H44   H     H_    0.781209 0.157528 0.197464 0.140657
H45   H     H_    0.426363 0.270473 0.406144 0.009273
H46   H     H_    0.939492 0.090381 0.223143 0.130532
H47   H     H_    0.971955 0.148113 0.134704 0.121577
H48   H     H_    0.305125 0.072008 0.193513 0.233011
H49   H     H_    0.286173 0.003405 0.044606 0.102425
H50   H     H_    0.431537 0.100576 0.051674 0.111504
H51   H     H_    0.222994 0.117853 0.035496 0.109843
H52   H     H_    0.377931 0.236692 0.212756 0.122623
H53   H     H_    0.936458 0.885356 0.147474 0.194075
H54   H     H_    0.138268 0.838779 0.024677 0.102754
H55   H     H_    0.226063 0.757222 0.073590 0.143109
H56   H     H_    0.636292 0.269385 0.424306 0.092811
H57   H     H_    0.226593 0.886599 0.121791 0.134716
H58   H     H_    0.308064 0.207354 0.927739 0.205891
H59   H     H_    0.580188 0.115863 0.906520 0.087496
H60   H     H_    0.558181 0.090711 0.793938 0.147550
H61   H     H_    0.406897 0.049178 0.865739 0.094932
H62   H     H_    0.183855 0.124507 0.776155 0.218551
H63   H     H_    0.107262 0.044484 0.886726 0.107446
H64   H     H_    0.011865 0.986183 0.793825 0.112860
H65   H     H_    0.895384 0.068896 0.885035 0.104647
H66   H     H_    0.618293 0.900249 0.281807 -0.035021
H67   H     H_    0.510179 0.111300 0.428332 0.074760
H68   H     H_    0.712665 0.216894 0.063962 0.182095
H69   H     H_    0.463673 0.261640 0.041265 0.094463
H70   H     H_    0.582888 0.369268 0.039388 0.103713
H71   H     H_    0.449515 0.359160 0.133822 0.154167
H72   H     H_    0.280613 0.489855 0.684054 0.071619
H73   H     H_    0.428561 0.047070 0.619838 0.069620
H74   H     H_    0.488303 0.896493 0.071926 0.194013
H75   H     H_    0.601349 0.052180 0.131664 0.132639
H76   H     H_    0.754365 0.960259 0.083529 0.103289
H77   H     H_    0.700450 0.997889 0.198564 0.109512
H78   H     H_    0.668736 0.099338 0.340019 0.102336
H79   H     H_    0.265895 0.690420 0.683335 -0.027480
N1    N     N_2   0.952379 0.739047 0.844118 -0.405139
N2    N     N_2   0.959832 0.629727 0.124629 -0.448823
N3    N     N_2   0.962244 0.242153 0.258095 -0.454184
N4    N     N_2   0.253694 0.112233 0.159907 -0.414049
N5    N     N_2   0.001003 0.822159 0.137297 -0.434347
N6    N     N_2   0.399900 0.198087 0.876580 -0.418721
N7    N     N_2   0.066038 0.133208 0.808121 -0.410743
N8    N     N_2   0.665471 0.278396 0.108322 -0.431166
N9    N     N_2   0.526007 0.912193 0.131455 -0.450978
O1    O     O_2   0.449810 0.404330 0.292300 -0.487239
O2    O     O_2   0.736026 0.180497 0.568878 -0.501834
O3    O     O_3   0.609301 0.231795 0.727911 -0.618454
O4    O     O_3   0.665430 0.428070 0.399450 -0.501003
O5    O     O_3   0.040450 0.621130 0.538560 -0.486759
O6    O     O_2   0.903680 0.264350 0.468980 -0.480294
O7    O     O_3   0.139927 0.190398 0.335728 -0.662535
O8    O     O_2   0.842831 0.508044 0.811579 -0.482668
O9    O     O_3   0.930600 0.330430 0.801964 -0.612074
O10   O     O_3   0.183150 0.584440 0.337010 -0.458180
O11   O     O_2   0.391277 0.523172 0.197456 -0.490323
O12   O     O_3   0.081413 0.774673 0.668900 -0.661750
O13   O     O_3   0.594284 0.256526 0.299602 -0.643258
O14   O     O_3   0.191336 0.661320 0.196423 -0.606745
O15   O     O_2   0.286000 0.735700 0.531070 -0.472012
O16   O     O_3   0.580930 0.641410 0.378050 -0.445277
O17   O     O_2   0.433273 0.811819 0.419722 -0.499690
O18   O     O_3   0.599309 0.752468 0.264978 -0.617048
O19   O     O_2   0.739870 0.595710 0.707750 -0.441858
O20   O     O_3   0.524260 0.572010 0.600550 -0.504999
O21   O     O_3   0.006540 0.415640 0.663000 -0.487358
O22   O     O_3   0.572931 0.746298 0.713189 -0.646424
O23   O     O_3   0.149240 0.378950 0.461440 -0.478815
O24   O     O_3   0.608760 0.358670 0.621950 -0.481123
P1    P     P_3+3 0.619500 0.379780 0.307000 0.982887
P2    P     P_3+3 0.105540 0.727570 0.557610 0.971272
P3    P     P_3+3 0.596826 0.761494 0.373925 0.957838
P4    P     P_3+3 0.570190 0.620290 0.693000 0.972962
P5    P     P_3+3 0.587390 0.237777 0.625417 0.929056
P6    P     P_3+3 0.209323 0.553368 0.226210 0.988345
P7    P     P_3+3 0.094453 0.256779 0.443547 0.916642
P8    P     P_3+3 0.988932 0.437594 0.773658 0.942813

loop_
_geom_bond_atom_site_label_1
_geom_bond_atom_site_label_2
_ccdc_geom_bond_type
O22   P4    S    
C12   H1    S    
C42   N3    S    
O16   P3    S    
O3    P5    S    
C40   H38   S    
H62   N7    S    
C36   O13   S    
C51   H14   S    
Ba2   O19   S    
C6    P8    S    
C51   C52   S    
C35   H12   S    
C13   C17   A    
C30   H26   S    
C24   C25   A    
C44   H54   S    
C37   H67   S    
O1    P1    D    
Ba1   O15   S    
C20   H22   S    
C22   C24   A    
Ba1   Ba2   S    
C44   H57   S    
C36   C37   S    
C42   H44   S    
C16   H8    S    
C47   H65   S    
O13   P1    S    
Ba2   O5    S    
O10   P6    S    
O21   P8    S    
C40   H36   S    
C2    C17   A    
C4    H25   S    
O19   P4    D    
C47   H63   S    
C26   C33   A    
C14   C15   A    
C47   N7    S    
C51   O9    S    
C41   H40   S    
C21   C22   A    
C10   C13   S    
C38   O12   S    
C48   H71   S    
C5    C53   S    
C28   H31   S    
O20   P4    S    
C7    C8    S    
Ba2   O23   S    
C2    H19   S    
C50   H13   S    
Ba2   P4    S    
C46   H61   S    
C1    H5    S    
Ba2   O6    S    
C19   C25   A    
C45   O3    S    
C19   C20   A    
C34   H52   S    
O9    P8    S    
C34   H7    S    
C51   H15   S    
C6    C53   D    
C49   H75   S    
C43   H50   S    
C41   H41   S    
C18   C27   A    
C4    C16   S    
O23   P7    S    
O8    P8    D    
C46   N6    S    
H43   N3    S    
Ba1   O16   S    
C48   H69   S    
C39   H4    S    
C36   H45   S    
H48   N4    S    
Ba2   O21   S    
C45   H9    S    
C3    C5    D    
C49   H76   S    
C6    C7    S    
C12   O14   S    
Ba1   P1    S    
Ba2   O4    S    
C38   H79   S    
C27   C32   A    
C23   N3    S    
C28   C35   S    
C40   N1    S    
C14   N8    S    
C17   P6    S    
C43   H49   S    
O12   P2    S    
C22   H24   S    
H39   N2    S    
C29   C30   A    
C4    O18   S    
C49   H77   S    
O5    P2    S    
H58   N6    S    
C48   H70   S    
C23   H6    S    
O6    P7    D    
C28   H30   S    
Ba1   O10   S    
C7    C9    S    
O24   P5    S    
C1    C12   S    
C46   H60   S    
C2    C15   A    
C38   C39   S    
O7    P7    S    
C53   H72   S    
C44   H55   S    
C10   H21   S    
Ba1   O4    S    
C1    N5    S    
O18   P3    S    
C39   N1    S    
C50   H11   S    
C43   H51   S    
C46   H59   S    
C37   H78   S    
C39   H33   S    
C26   C27   A    
C33   H28   S    
C38   H2    S    
O11   P6    D    
C26   C29   A    
C41   H42   S    
C28   O22   S    
C15   P1    S    
Ba2   O20   S    
H53   N5    S    
C42   H46   S    
O15   P2    D    
C45   C50   S    
H74   N9    S    
C18   C25   A    
C49   N9    S    
C35   H23   S    
C35   H34   S    
C30   C31   A    
C11   C13   A    
C36   H56   S    
C16   N9    S    
C16   H29   S    
Ba1   O1    S    
C9    H20   S    
H35   N1    S    
C47   H64   S    
C21   P3    S    
C12   N2    S    
Ba1   O23   S    
C19   P2    S    
C52   H16   S    
H68   N8    S    
Ba1   P2    S    
C43   N4    S    
C50   N6    S    
C31   C32   A    
C40   H37   S    
C3    H18   S    
C41   N2    S    
O2    P5    D    
O4    P1    S    
C23   C34   S    
C1    H3    S    
C24   C33   A    
C3    C8    S    
C52   N7    S    
C52   H17   S    
Ba1   O20   S    
C32   H73   S    
C18   H27   S    
C11   C14   A    
O17   P3    D    
C20   C21   A    
C23   O7    S    
Ba1   O5    S    
C4    H66   S    
C5    P4    S    
C31   P5    S    
C34   N4    S    
Ba2   O24   S    
C45   H10   S    
C37   H32   S    
C48   N8    S    
C9    C10   D    
O14   P6    S    
C44   N5    S    
C29   P7    S    
C42   H47   S    
