data_mof_unit_14776.cif
_audit_creation_date              2012-12-11T15:53:38-0500
_audit_creation_method            fapswitch 2.2
_symmetry_space_group_name_H-M    P1
_symmetry_Int_Tables_number       1
_space_group_crystal_system       triclinic
_cell_length_a                    6.923355
_cell_length_b                    14.564198
_cell_length_c                    15.972165
_cell_angle_alpha                 90.433092
_cell_angle_beta                  90.066026
_cell_angle_gamma                 90.290049
_cell_volume                      1610.45533186

loop_
_atom_site_label
_atom_site_type_symbol
_atom_type_description
_atom_site_fract_x
_atom_site_fract_y
_atom_site_fract_z
_atom_type_partial_charge
O1    O     O_R   0.361600 0.167310 0.164620 -0.542612
O2    O     O_R   0.638400 0.832690 0.835380 -0.542613
O3    O     O_R   0.691080 0.157570 0.338750 -0.553374
O4    O     O_R   0.308920 0.842430 0.661250 -0.553374
O5    O     O_R   0.861410 0.336420 0.339360 -0.532160
O6    O     O_R   0.138590 0.663580 0.660640 -0.532160
C1    C     C_R   0.521879 0.135197 0.367491 0.669456
C2    C     C_R   0.478121 0.864803 0.632509 0.669455
O7    O     O_R   0.691320 0.156280 0.165240 -0.538519
O8    O     O_R   0.308680 0.843720 0.834760 -0.538519
O9    O     O_R   0.861640 0.335130 0.164600 -0.531262
O10   O     O_R   0.138360 0.664870 0.835400 -0.531262
C3    C     C_R   0.521560 0.135288 0.135013 0.695777
C4    C     C_R   0.478440 0.864712 0.864987 0.695777
O11   O     O_R   0.361370 0.168600 0.339370 -0.550481
O12   O     O_R   0.638630 0.831400 0.660630 -0.550481
O13   O     O_3   0.527990 0.310540 0.251980 -0.340107
O14   O     O_3   0.472010 0.689460 0.748020 -0.340107
V1    V     V_3+5 0.802830 0.240980 0.251990 1.499696
V2    V     V_3+5 0.197170 0.759020 0.748010 1.499696
O15   O     O_R   0.191360 0.346160 0.165220 -0.517532
O16   O     O_R   0.808640 0.653840 0.834780 -0.517532
C5    C     C_R   0.022909 0.369734 0.137289 0.804105
C6    C     C_R   0.977091 0.630266 0.862711 0.804106
O17   O     O_R   0.191130 0.347440 0.338740 -0.537568
O18   O     O_R   0.808870 0.652560 0.661260 -0.537568
C7    C     C_R   0.022560 0.369668 0.367610 0.745454
C8    C     C_R   0.977440 0.630332 0.632390 0.745453
V3    V     V_3+5 0.302840 0.262750 0.251990 1.539293
V4    V     V_3+5 0.697160 0.737250 0.748010 1.539293
O19   O     O_3   0.027820 0.193180 0.251990 -0.386132
O20   O     O_3   0.972180 0.806820 0.748010 -0.386132
C9    C     C_3   0.929163 0.418588 0.525346 -0.196171
C10   C     C_3   0.070837 0.581412 0.474654 -0.196171
C11   C     C_3   0.101895 0.470716 0.565032 0.309646
C12   C     C_3   0.898104 0.529284 0.434968 0.309646
H1    H     H_    0.872035 0.351229 0.546313 0.154688
H2    H     H_    0.127965 0.648771 0.453687 0.154688
C13   C     C_3   0.987658 0.560815 0.562227 -0.112618
C14   C     C_3   0.012342 0.439185 0.437773 -0.112618
C15   C     C_3   0.813732 0.509764 0.522634 -0.168332
C16   C     C_3   0.186268 0.490236 0.477366 -0.168332
H3    H     H_    0.660187 0.518153 0.540993 0.165575
H4    H     H_    0.339813 0.481847 0.459007 0.165575
C17   C     C_R   0.839465 0.496064 0.946050 0.286241
C18   C     C_R   0.160535 0.503935 0.053950 0.286241
C19   C     C_R   0.854310 0.435455 0.013447 -0.144906
C20   C     C_R   0.145690 0.564545 0.986553 -0.144906
H5    H     H_    0.741139 0.384768 0.022132 0.173548
H6    H     H_    0.258861 0.615232 0.977868 0.173548
C21   C     C_R   0.013711 0.437754 0.068059 -0.154828
C22   C     C_R   0.986289 0.562246 0.931941 -0.154827
C23   C     C_R   0.679473 0.026046 0.467667 -0.142433
C24   C     C_R   0.320526 0.973954 0.532333 -0.142433
H7    H     H_    0.820256 0.044988 0.443708 0.115162
H8    H     H_    0.179744 0.955012 0.556292 0.115162
C25   C     C_R   0.668759 0.960885 0.531438 -0.135057
C26   C     C_R   0.331241 0.039115 0.468562 -0.135057
H9    H     H_    0.801708 0.931585 0.554652 0.115367
H10   H     H_    0.198292 0.068415 0.445348 0.115367
C27   C     C_R   0.489146 0.933984 0.564658 -0.039272
C28   C     C_R   0.510854 0.066016 0.435342 -0.039272
C29   C     C_R   0.661902 0.006180 0.052050 -0.161402
C30   C     C_R   0.338098 0.993820 0.947950 -0.161402
H11   H     H_    0.787423 0.009433 0.092703 0.135044
H12   H     H_    0.212577 0.990567 0.907297 0.135044
C31   C     C_R   0.655342 0.939554 0.988399 -0.033630
C32   C     C_R   0.344658 0.060445 0.011601 -0.033630
C33   C     C_R   0.491835 0.932955 0.934848 -0.094056
C34   C     C_R   0.508165 0.067045 0.065152 -0.094056
Br1   Br    Br    0.251219 0.427715 0.659404 -0.493494
Br2   Br    Br    0.748781 0.572285 0.340596 -0.493494
Br3   Br    Br    0.619299 0.479813 0.873824 -0.459804
Br4   Br    Br    0.380701 0.520187 0.126175 -0.459804
C35   C     C_1   0.816970 0.877458 0.982183 0.312935
N1    N     N_1   0.946759 0.827907 0.977539 -0.356238
C36   C     C_1   0.183030 0.122542 0.017817 0.312935
N2    N     N_1   0.053241 0.172093 0.022461 -0.356238

loop_
_geom_bond_atom_site_label_1
_geom_bond_atom_site_label_2
_ccdc_geom_bond_type
C6    C22   S    
C29   H11   S    
C26   C28   A    
O13   V3    S    
C10   C16   S    
O4    C2    A    
V1    O19   S    
C19   H5    S    
C36   N2    T    
O9    V1    S    
C30   C32   A    
O3    C1    A    
C24   C26   A    
C25   H9    S    
C3    C34   S    
O12   V4    S    
C17   Br3   S    
C17   C19   A    
O9    C5    A    
C11   C16   S    
O7    C3    A    
C9    C11   S    
O5    C7    A    
O7    V1    S    
O6    C8    A    
O8    V2    S    
O3    V1    S    
O14   V4    S    
C10   C12   S    
C2    C27   S    
C20   H6    S    
C11   Br1   S    
C2    O12   A    
C15   H3    S    
C12   C15   S    
C16   H4    S    
O11   V3    S    
C29   C31   A    
C23   H7    S    
O17   V3    S    
C24   H8    S    
C9    C14   S    
C10   C13   S    
C12   C14   S    
C13   C15   S    
O8    C4    A    
C23   C25   A    
C19   C21   A    
C17   C22   A    
O15   V3    S    
C18   C21   A    
C9    H1    S    
C31   C33   A    
C30   H12   S    
C11   C13   S    
C35   N1    T    
C1    C28   S    
C23   C28   A    
C5    C21   S    
C29   C34   A    
C7    C14   S    
O10   V2    S    
O1    V3    S    
C30   C33   A    
O18   V4    S    
O15   C5    A    
C4    C33   S    
O16   C6    A    
O1    C3    A    
C18   Br4   S    
V2    O20   S    
C32   C36   S    
O16   V4    S    
C10   H2    S    
C14   C16   S    
C25   C27   A    
O5    V1    S    
C24   C27   A    
O17   C7    A    
O6    V2    S    
O10   C6    A    
O18   C8    A    
C8    C13   S    
O2    V4    S    
C9    C15   S    
V3    O19   S    
V4    O20   S    
C1    O11   A    
O13   V1    S    
O14   V2    S    
O2    C4    A    
O4    V2    S    
C18   C20   A    
C20   C22   A    
C31   C35   S    
C32   C34   A    
C26   H10   S    
C12   Br2   S    
