data_mof_unit_25467.cif
_audit_creation_date              2012-10-26T19:06:51-0400
_audit_creation_method            fapswitch 2.2
_symmetry_space_group_name_H-M    P1
_symmetry_Int_Tables_number       1
_space_group_crystal_system       triclinic
_cell_length_a                    12.334203
_cell_length_b                    13.207285
_cell_length_c                    27.794857
_cell_angle_alpha                 77.402109
_cell_angle_beta                  101.409366
_cell_angle_gamma                 116.832202
_cell_volume                      3917.29436538

loop_
_atom_site_label
_atom_site_type_symbol
_atom_type_description
_atom_site_fract_x
_atom_site_fract_y
_atom_site_fract_z
_atom_type_partial_charge
C1    C     C_R   0.854814 0.286560 0.504479 0.528149
C2    C     C_R   0.899618 0.417932 0.024968 0.020148
C3    C     C_R   0.098703 0.588357 0.024942 0.025297
C4    C     C_R   0.999981 0.500288 0.592383 0.536726
C5    C     C_R   0.999714 0.502390 0.050350 -0.014188
C6    C     C_R   0.795879 0.343946 0.050390 0.353322
C7    C     C_R   0.797816 0.344710 0.100496 -0.055661
C8    C     C_R   0.900038 0.421221 0.126699 -0.035710
C9    C     C_R   0.000465 0.501517 0.101604 -0.045081
C10   C     C_R   0.101380 0.581368 0.127812 0.037545
C11   C     C_R   0.100274 0.578839 0.178478 0.404088
C12   C     C_R   0.094446 0.490521 0.730470 -0.059185
C13   C     C_R   0.902743 0.421358 0.177415 0.402061
C14   C     C_R   0.086209 0.472941 0.289445 -0.053504
C15   C     C_R   0.086002 0.473250 0.339558 -0.118753
C16   C     C_R   0.145089 0.713269 0.492807 0.579307
C17   C     C_R   0.916161 0.526458 0.318767 -0.140908
C18   C     C_R   0.916817 0.526436 0.268689 -0.050672
C19   C     C_R   0.001653 0.499561 0.253812 0.236704
C20   C     C_R   0.906192 0.412536 0.975139 0.030860
C21   C     C_R   0.000043 0.503514 0.948782 0.026100
C22   C     C_R   0.094010 0.593762 0.973044 0.020733
C23   C     C_R   0.001119 0.504145 0.745954 0.238377
C24   C     C_R   0.824886 0.317313 0.951056 -0.089194
C25   C     C_R   0.177599 0.687595 0.894029 -0.104529
C26   C     C_R   0.199712 0.665744 0.052571 -0.127686
C27   C     C_R   0.200864 0.662039 0.102995 -0.100734
C28   C     C_R   0.000307 0.500100 0.407596 0.551906
C29   C     C_R   0.180232 0.686563 0.944350 -0.133114
C30   C     C_R   0.278167 0.013707 0.426811 -0.129152
C31   C     C_R   0.227835 0.834249 0.481797 0.014746
C32   C     C_R   0.815601 0.084560 0.536088 -0.095972
C33   C     C_R   0.737850 0.968502 0.543350 0.360129
C34   C     C_R   0.000584 0.503626 0.897714 -0.026392
C35   C     C_R   0.614842 0.930693 0.524951 -0.029109
C36   C     C_R   0.567150 0.008944 0.498287 -0.028577
C37   C     C_R   0.650785 0.123508 0.484000 -0.052750
C38   C     C_R   0.440216 0.975763 0.482911 0.005206
C39   C     C_R   0.402360 0.049187 0.445269 0.021451
C40   C     C_R   0.914560 0.412869 0.823403 0.404114
C41   C     C_R   0.488944 0.156658 0.426217 0.263593
C42   C     C_R   0.611421 0.193134 0.445646 -0.085019
C43   C     C_R   0.348887 0.873208 0.504456 0.269562
C44   C     C_R   0.192129 0.905761 0.444025 -0.192857
C45   C     C_R   0.912718 0.410947 0.873924 0.024461
C46   C     C_R   0.773124 0.163421 0.507008 -0.057314
C47   C     C_R   0.334577 0.312079 0.571964 0.222131
C48   C     C_R   0.759780 0.642694 0.431831 -0.012900
C49   C     C_R   0.659037 0.665590 0.413078 -0.121977
C50   C     C_R   0.552263 0.607467 0.436091 0.407833
C51   C     C_R   0.547622 0.529558 0.480761 0.005006
C52   C     C_R   0.087537 0.594870 0.819889 0.401470
C53   C     C_R   0.651347 0.503914 0.496531 0.113417
C54   C     C_R   0.443465 0.470850 0.508795 -0.039089
C55   C     C_R   0.438893 0.377414 0.546582 -0.027849
C56   C     C_R   0.827106 0.317311 0.901267 -0.117877
C57   C     C_R   0.539505 0.351635 0.559575 -0.158284
C58   C     C_R   0.644500 0.416183 0.536468 -0.113857
C59   C     C_R   0.345395 0.502644 0.502957 0.559246
C60   C     C_R   0.238979 0.344995 0.562113 -0.005811
C61   C     C_R   0.907444 0.516626 0.711099 -0.050768
C62   C     C_R   0.907017 0.515542 0.661018 -0.138282
C63   C     C_R   0.093984 0.488914 0.680458 -0.151567
C64   C     C_3   0.444278 0.311060 0.403965 -0.022128
C65   C     C_3   0.372848 0.362488 0.363601 -0.359894
C66   C     C_3   0.348592 0.840705 0.588081 -0.027418
C67   C     C_R   0.089415 0.596048 0.870435 0.028324
C68   C     C_3   0.380889 0.774093 0.636133 -0.342583
C69   C     C_3   0.254939 0.117630 0.589513 -0.022606
C70   C     C_3   0.239484 0.017437 0.631030 -0.344043
C71   C     C_R   0.000282 0.501520 0.645243 -0.001551
C72   C     C_R   0.000831 0.499928 0.354684 0.008118
Cu1   Cu    Cu3+1 0.098270 0.475420 0.511360 1.043968
Cu2   Cu    Cu3+1 0.901730 0.524580 0.488640 0.926488
F1    F     F_    0.781285 0.892266 0.569356 -0.629397
F2    F     F_    0.351833 0.602793 0.475770 -0.531817
F3    F     F_    0.452241 0.618955 0.410285 -0.590121
F4    F     F_    0.687345 0.277151 0.026836 -0.643570
H1    H     H_    0.166979 0.477893 0.669434 0.135371
H2    H     H_    0.247577 0.067603 0.397735 0.170615
H3    H     H_    0.166894 0.480472 0.757302 0.137676
H4    H     H_    0.909310 0.112655 0.553297 0.143447
H5    H     H_    0.560365 0.839161 0.529811 0.223278
H6    H     H_    0.675647 0.274196 0.428241 0.162314
H7    H     H_    0.158730 0.296608 0.581580 0.140636
H8    H     H_    0.539067 0.282532 0.589034 0.170859
H9    H     H_    0.841130 0.686268 0.412919 0.139314
H10   H     H_    0.761877 0.242723 0.884415 0.172145
H11   H     H_    0.661970 0.725261 0.379218 0.144560
H12   H     H_    0.835082 0.527259 0.722886 0.142214
H13   H     H_    0.717876 0.392510 0.550675 0.188994
H14   H     H_    0.152255 0.452339 0.366380 0.155945
H15   H     H_    0.151849 0.451708 0.278276 0.134633
H16   H     H_    0.717049 0.286085 0.118491 0.197678
H17   H     H_    0.761938 0.238934 0.970360 0.205951
H18   H     H_    0.833510 0.525242 0.634772 0.148382
H19   H     H_    0.536732 0.379708 0.412788 0.146849
H20   H     H_    0.394379 0.277800 0.437552 0.117507
H21   H     H_    0.281981 0.294325 0.352599 0.149785
H22   H     H_    0.358638 0.427566 0.377548 0.164190
H23   H     H_    0.245713 0.760629 0.873706 0.170582
H24   H     H_    0.423850 0.403845 0.330633 0.178099
H25   H     H_    0.249197 0.818499 0.584812 0.124252
H26   H     H_    0.402813 0.934123 0.590055 0.124326
H27   H     H_    0.480247 0.796188 0.641171 0.177962
H28   H     H_    0.357935 0.795958 0.668012 0.121305
H29   H     H_    0.328339 0.680518 0.635109 0.171471
H30   H     H_    0.298359 0.109366 0.559903 0.122485
H31   H     H_    0.162094 0.112048 0.574179 0.134813
H32   H     H_    0.197478 0.024402 0.661290 0.189340
H33   H     H_    0.178879 0.935474 0.616596 0.106619
H34   H     H_    0.281158 0.728681 0.036516 0.119620
H35   H     H_    0.329795 0.017355 0.646170 0.154328
H36   H     H_    0.849612 0.547530 0.329273 0.133575
H37   H     H_    0.280417 0.723272 0.122455 0.172826
H38   H     H_    0.851545 0.547614 0.241339 0.140789
H39   H     H_    0.249446 0.761461 0.959472 0.120367
H40   H     H_    0.098495 0.876760 0.426684 0.137718
N1    N     N_R   0.000861 0.504161 0.797501 -0.397844
N2    N     N_R   0.001872 0.499528 0.202195 -0.394610
N3    N     N_R   0.246290 0.438210 0.528570 -0.272753
N4    N     N_R   0.754320 0.561170 0.471730 -0.243453
O1    O     O_R   0.972510 0.318140 0.514280 -0.522043
O2    O     O_R   0.082990 0.479230 0.439860 -0.462394
O3    O     O_R   0.917010 0.520730 0.420680 -0.523736
O4    O     O_2   0.831376 0.323925 0.800391 -0.488594
O5    O     O_3   0.454716 0.223699 0.386385 -0.552381
O6    O     O_3   0.376029 0.810302 0.547922 -0.551447
O7    O     O_3   0.329439 0.221227 0.608811 -0.556758
O8    O     O_2   0.807427 0.343490 0.201881 -0.486693
O9    O     O_2   0.171202 0.683803 0.793241 -0.500630
O10   O     O_2   0.196068 0.655910 0.203709 -0.481785
O11   O     O_R   0.806530 0.359640 0.495100 -0.531687
O12   O     O_R   0.082990 0.479270 0.579320 -0.508690
O13   O     O_R   0.917010 0.520770 0.560140 -0.514916
O14   O     O_R   0.193470 0.640360 0.504900 -0.372381
O15   O     O_R   0.027490 0.681860 0.485720 -0.521162

loop_
_geom_bond_atom_site_label_1
_geom_bond_atom_site_label_2
_ccdc_geom_bond_type
C10   C27   A    
C59   N3    A    
C66   C68   S    
C8    C13   A    
C22   C29   A    
C62   H18   S    
Cu1   Cu2   S    
C41   O5    S    
C16   O15   A    
C25   C67   A    
C11   O10   S    
C7    C8    A    
C39   C41   A    
C2    C6    A    
C61   H12   S    
C16   C31   S    
C15   C72   A    
C12   C23   A    
C26   C27   A    
C31   C43   A    
C47   O7    S    
C47   C55   A    
C36   C37   A    
C53   N4    A    
C23   N1    S    
C38   C39   A    
C1    C46   S    
C56   H10   S    
Cu2   O3    S    
Cu2   O11   S    
C57   H8    S    
C18   C19   A    
C41   C42   A    
C37   C42   A    
C70   H32   S    
C47   C60   A    
C69   H31   S    
C33   F1    S    
C20   C24   A    
C45   C56   A    
C8    C9    A    
Cu1   O1    S    
C30   C39   A    
C13   O8    S    
C68   H29   S    
C9    C10   A    
C14   H15   S    
C30   H2    S    
Cu1   O2    S    
C64   H20   S    
C15   H14   S    
C21   C22   A    
C30   C44   A    
C28   C72   S    
C68   H28   S    
C65   H24   S    
C1    O11   A    
C11   N2    A    
C14   C19   A    
C69   H30   S    
C17   H36   S    
C50   C51   A    
C54   C59   A    
C70   H35   S    
C25   C29   A    
C40   C45   A    
Cu2   O15   S    
C31   C44   A    
C2    C20   A    
C66   H26   S    
C42   H6    S    
C65   H21   S    
C70   H33   S    
C24   H17   S    
C18   H38   S    
C12   C63   A    
C35   H5    S    
C63   H1    S    
C21   C34   A    
C29   H39   S    
C51   C53   A    
C35   C36   A    
C34   C67   A    
C1    O1    A    
C5    C9    A    
Cu1   O14   S    
C44   H40   S    
C60   H7    S    
C64   O5    S    
C40   O4    S    
Cu2   O13   S    
C17   C18   A    
C48   H9    S    
C34   C45   A    
Cu1   O12   S    
C52   C67   A    
C4    O13   A    
C48   C49   A    
Cu2   N4    S    
C63   C71   A    
C19   N2    S    
Cu1   N3    S    
C55   C57   A    
C2    C5    A    
C68   H27   S    
C16   O14   A    
C50   F3    S    
C26   H34   S    
C13   N2    A    
C28   O3    A    
C4    O12   A    
C58   H13   S    
C7    H16   S    
C54   C55   A    
C64   H19   S    
C52   O9    S    
C32   C46   A    
C66   H25   S    
C3    C26   A    
C65   H22   S    
C49   H11   S    
C3    C5    A    
C43   O6    S    
C53   C58   A    
C28   O2    A    
C6    C7    A    
C24   C56   A    
C32   H4    S    
C51   C54   A    
C64   C65   S    
C36   C38   A    
C38   C43   A    
C32   C33   A    
C48   N4    A    
C25   H23   S    
C57   C58   A    
C60   N3    A    
C33   C35   A    
C66   O6    S    
C62   C71   A    
C12   H3    S    
C61   C62   A    
C69   C70   S    
C6    F4    S    
C10   C11   A    
C52   N1    A    
C23   C61   A    
C40   N1    A    
C20   C21   A    
C17   C72   A    
C69   O7    S    
C49   C50   A    
C14   C15   A    
C3    C22   A    
C37   C46   A    
C59   F2    S    
C4    C71   S    
C27   H37   S    
