data_mof_unit_23415.cif
_audit_creation_date              2012-10-26T20:17:40-0400
_audit_creation_method            fapswitch 2.2
_symmetry_space_group_name_H-M    P1
_symmetry_Int_Tables_number       1
_space_group_crystal_system       triclinic
_cell_length_a                    27.717483
_cell_length_b                    8.771968
_cell_length_c                    7.441169
_cell_angle_alpha                 103.15103
_cell_angle_beta                  93.96227
_cell_angle_gamma                 92.941424
_cell_volume                      1753.37263977

loop_
_atom_site_label
_atom_site_type_symbol
_atom_type_description
_atom_site_fract_x
_atom_site_fract_y
_atom_site_fract_z
_atom_type_partial_charge
C1    C     C_R   0.497269 0.199976 0.453467 0.598108
C2    C     C_R   0.870925 0.478381 0.334230 0.025834
C3    C     C_R   0.355436 0.515013 0.511258 0.000618
C4    C     C_R   0.645359 0.511420 0.493158 -0.002740
C5    C     C_R   0.973510 0.501233 0.336785 0.013404
C6    C     C_R   0.030763 0.625586 0.677611 0.013407
C7    C     C_R   0.979293 0.616910 0.674005 0.013711
C8    C     C_R   0.024943 0.511911 0.339922 0.014176
C9    C     C_R   0.951015 0.553685 0.503851 0.034958
C10   C     C_R   0.053238 0.571776 0.510788 0.035601
C11   C     C_R   0.943468 0.437551 0.172105 -0.151777
C12   C     C_R   0.500439 0.799515 0.546498 0.589013
C13   C     C_R   0.060893 0.685645 0.843087 -0.151981
C14   C     C_R   0.893338 0.426680 0.171296 -0.113090
C15   C     C_R   0.111059 0.688247 0.845627 -0.115732
C16   C     C_R   0.407671 0.500478 0.502812 0.565967
C17   C     C_R   0.592441 0.504082 0.497845 0.585733
C18   C     C_R   0.049390 0.463585 0.177616 -0.152364
C19   C     C_R   0.954796 0.667976 0.835598 -0.151457
C20   C     C_2   0.493162 0.032248 0.426495 0.230099
C21   C     C_2   0.498170 0.966112 0.573579 0.233102
C22   C     C_R   0.178344 0.524268 0.359599 0.404988
C23   C     C_R   0.104703 0.576580 0.515116 -0.027362
C24   C     C_R   0.825725 0.582876 0.658255 0.404492
C25   C     C_R   0.184056 0.629648 0.685879 0.413445
C26   C     C_R   0.820222 0.467359 0.334308 0.410347
C27   C     C_R   0.287027 0.672012 0.481366 -0.036864
C28   C     C_R   0.722336 0.427804 0.598192 -0.040373
C29   C     C_R   0.336256 0.649999 0.472318 -0.156052
C30   C     C_R   0.672161 0.427325 0.600066 -0.132687
C31   C     C_R   0.324689 0.401151 0.562716 0.037962
C32   C     C_R   0.669670 0.599107 0.383993 0.027188
C33   C     C_R   0.275373 0.426726 0.575205 -0.050748
C34   C     C_R   0.899549 0.542119 0.500837 -0.027593
C35   C     C_R   0.720217 0.597493 0.382959 -0.050597
C36   C     C_R   0.256518 0.560095 0.532063 0.210247
C37   C     C_R   0.746628 0.513429 0.490429 0.201533
C38   C     C_2   0.341751 0.249804 0.588785 0.558228
C39   C     C_2   0.644239 0.701325 0.280039 0.573770
C40   C     C_3   0.436908 0.906829 0.196101 -0.100029
C41   C     C_3   0.457617 0.061181 0.824685 -0.090201
C42   C     C_R   0.127622 0.523652 0.351407 0.019819
C43   C     C_R   0.876548 0.594060 0.664447 0.020266
C44   C     C_R   0.099599 0.469014 0.183816 -0.120438
C45   C     C_R   0.904568 0.656987 0.830353 -0.119339
C46   C     C_R   0.133403 0.632588 0.683460 0.022495
Cu1   Cu    Cu3+1 0.505380 0.517380 0.684380 1.044631
Cu2   Cu    Cu3+1 0.494620 0.482620 0.315620 1.027757
H1    H     H_    0.459328 0.388835 0.950888 0.235591
H2    H     H_    0.272471 0.775068 0.447189 0.159008
H3    H     H_    0.872151 0.377251 0.041217 0.175052
H4    H     H_    0.132321 0.733188 0.976626 0.175415
H5    H     H_    0.957252 0.393376 0.040036 0.117613
H6    H     H_    0.047143 0.730645 0.975067 0.117772
H7    H     H_    0.031037 0.420632 0.041905 0.116412
H8    H     H_    0.973124 0.717042 0.970071 0.116266
H9    H     H_    0.381736 0.067312 0.497853 0.300719
H10   H     H_    0.592072 0.852423 0.271564 0.353514
H11   H     H_    0.418037 0.013236 0.184181 0.144555
H12   H     H_    0.539660 0.615713 0.050055 0.273709
H13   H     H_    0.419512 0.849264 0.295752 0.093452
H14   H     H_    0.432227 0.821999 0.059692 0.159288
H15   H     H_    0.438561 0.943201 0.806203 0.098764
H16   H     H_    0.434652 0.136836 0.759803 0.124470
H17   H     H_    0.462583 0.115796 0.974332 0.193551
H18   H     H_    0.250846 0.339358 0.609602 0.162222
H19   H     H_    0.739568 0.666495 0.303673 0.178130
H20   H     H_    0.116391 0.428844 0.055734 0.172461
H21   H     H_    0.887760 0.697763 0.958229 0.172068
H22   H     H_    0.654090 0.359688 0.684004 0.157497
H23   H     H_    0.359483 0.738734 0.435141 0.095788
H24   H     H_    0.742436 0.362024 0.681242 0.169245
N1    N     N_R   0.205280 0.574600 0.525570 -0.401210
N2    N     N_R   0.798623 0.520065 0.494715 -0.397882
N3    N     N_2   0.486510 0.456430 0.038510 -0.256570
N4    N     N_2   0.513490 0.543570 0.961490 -0.237546
O1    O     O_R   0.503500 0.286120 0.619780 -0.481658
O2    O     O_2   0.803561 0.636354 0.814063 -0.467581
O3    O     O_2   0.792709 0.403558 0.175483 -0.473094
O4    O     O_2   0.211857 0.679963 0.846954 -0.457005
O5    O     O_2   0.323548 0.185159 0.699573 -0.518124
O6    O     O_R   0.376667 0.176448 0.479359 -0.726902
O7    O     O_2   0.658043 0.716749 0.132157 -0.489402
O8    O     O_R   0.605813 0.785032 0.354148 -0.683918
O9    O     O_3   0.486970 0.943689 0.245246 -0.569133
O10   O     O_3   0.503622 0.054179 0.754628 -0.542310
O11   O     O_R   0.496500 0.713880 0.380220 -0.484793
O12   O     O_R   0.494410 0.256780 0.308360 -0.488326
O13   O     O_R   0.505590 0.743220 0.691640 -0.473815
O14   O     O_R   0.434810 0.514700 0.655690 -0.526640
O15   O     O_R   0.565190 0.485300 0.344310 -0.482690
O16   O     O_R   0.425720 0.485350 0.344280 -0.501239
O17   O     O_R   0.574280 0.514650 0.655720 -0.483170
O18   O     O_2   0.200599 0.472607 0.203527 -0.459028

loop_
_geom_bond_atom_site_label_1
_geom_bond_atom_site_label_2
_ccdc_geom_bond_type
C19   H8    S    
C37   N2    S    
C16   O14   A    
C27   C29   A    
C25   O4    S    
C1    O1    A    
C17   O15   A    
C41   O10   S    
C23   C42   A    
C28   C37   A    
C35   C37   A    
C39   O8    S    
C5    C11   A    
H10   O8    S    
C11   C14   A    
C33   C36   A    
C40   H14   S    
C22   O18   S    
C32   C39   S    
C3    C29   A    
C14   H3    S    
Cu2   O15   S    
H1    N3    S    
C15   C46   A    
C11   H5    S    
C27   H2    S    
C2    C34   A    
C1    O12   A    
C23   C46   A    
C38   O6    S    
Cu1   O13   S    
Cu2   N3    S    
C28   H24   S    
C42   C44   A    
C30   H22   S    
C33   H18   S    
C45   H21   S    
C32   C35   A    
C12   O13   A    
C36   N1    S    
C41   H17   S    
C12   C21   S    
H12   N4    S    
C8    C18   A    
C40   H13   S    
C40   O9    S    
N3    N4    D    
C5    C9    A    
C18   C44   A    
Cu1   Cu2   S    
C35   H19   S    
C20   O9    S    
C31   C33   A    
Cu1   O17   S    
Cu2   O11   S    
C2    C26   A    
C15   H4    S    
C3    C31   A    
C43   C45   A    
C4    C32   A    
C18   H7    S    
C4    C17   S    
C24   O2    S    
C16   O16   A    
C7    C19   A    
C13   C15   A    
C38   O5    D    
C9    C34   A    
C10   C23   A    
Cu1   O14   S    
C44   H20   S    
C17   O17   A    
Cu1   O1    S    
C13   H6    S    
C7    C9    A    
C21   O10   S    
C1    C20   S    
C12   O11   A    
C34   C43   A    
Cu1   N4    S    
C5    C8    A    
C19   C45   A    
C6    C7    A    
C27   C36   A    
C26   O3    S    
C41   H16   S    
C31   C38   S    
C28   C30   A    
C39   O7    D    
C6    C13   A    
C24   N2    A    
C22   C42   A    
Cu2   O12   S    
C26   N2    A    
C25   N1    A    
C2    C14   A    
C6    C10   A    
C20   C21   D    
C8    C10   A    
Cu2   O16   S    
C40   H11   S    
C24   C43   A    
C41   H15   S    
H9    O6    S    
C22   N1    A    
C25   C46   A    
C4    C30   A    
C3    C16   S    
C29   H23   S    
