data_mof_unit_42821.cif
_audit_creation_date              2012-12-11T14:58:22-0500
_audit_creation_method            fapswitch 2.2
_symmetry_space_group_name_H-M    P1
_symmetry_Int_Tables_number       1
_space_group_crystal_system       triclinic
_cell_length_a                    10.952682
_cell_length_b                    10.917929
_cell_length_c                    18.729403
_cell_angle_alpha                 90.508167
_cell_angle_beta                  90.450314
_cell_angle_gamma                 59.431117
_cell_volume                      1928.30942106

loop_
_atom_site_label
_atom_site_type_symbol
_atom_type_description
_atom_site_fract_x
_atom_site_fract_y
_atom_site_fract_z
_atom_type_partial_charge
Br1   Br    Br    0.120085 0.206088 0.394596 -0.557023
C1    C     C_R   0.359444 0.772205 0.397608 0.567031
C2    C     C_R   0.255996 0.452583 0.195717 -0.156830
C3    C     C_R   0.263709 0.470386 0.269001 -0.024608
C4    C     C_R   0.416227 0.379477 0.382466 0.560310
C5    C     C_R   0.874645 0.815488 0.354399 -0.114572
C6    C     C_R   0.928956 0.678318 0.380977 -0.109289
C7    C     C_R   0.056009 0.566132 0.354143 -0.038739
C8    C     C_R   0.132813 0.589975 0.301907 0.053415
C9    C     C_R   0.391135 0.372320 0.305903 0.009658
C10   C     C_R   0.738268 0.390105 0.276956 -0.171249
C11   C     C_R   0.782956 0.372366 0.206835 -0.126097
C12   C     C_R   0.621575 0.128208 0.159441 0.054723
C13   C     C_R   0.927115 0.311295 0.192106 0.004364
C14   C     C_R   0.026703 0.269108 0.247816 -0.139114
C15   C     C_R   0.982455 0.280851 0.318652 0.107089
C16   C     C_R   0.781439 0.376008 0.404186 0.588318
C17   C     C_R   0.837403 0.343007 0.332700 0.047006
C18   C     C_R   0.472805 0.789073 0.287450 -0.139047
C19   C     C_R   0.461207 0.815030 0.214372 -0.152549
C20   C     C_R   0.326640 0.884178 0.183479 0.029595
C21   C     C_R   0.204974 0.938893 0.226456 -0.148799
C22   C     C_R   0.216470 0.914597 0.298405 -0.105903
C23   C     C_R   0.366540 0.339091 0.158944 -0.000543
C24   C     C_R   0.349379 0.833484 0.328520 0.060893
C25   C     C_R   0.491231 0.285312 0.724230 -0.134405
C26   C     C_R   0.466179 0.269927 0.794709 -0.125916
C27   C     C_R   0.327095 0.342331 0.821289 0.027384
C28   C     C_R   0.343982 0.769360 0.604672 0.554167
C29   C     C_R   0.215975 0.443705 0.779246 -0.138386
C30   C     C_R   0.242069 0.461828 0.708723 -0.123821
C31   C     C_R   0.378813 0.376557 0.680125 0.027483
C32   C     C_R   0.734373 0.475785 0.732381 -0.126788
C33   C     C_R   0.746307 0.461690 0.805488 -0.133118
C34   C     C_R   0.506710 0.268082 0.267183 -0.155239
C35   C     C_R   0.816220 0.326275 0.835503 0.027058
C36   C     C_R   0.860735 0.205313 0.791824 -0.138670
C37   C     C_R   0.846118 0.219937 0.717933 -0.150149
C38   C     C_R   0.787178 0.355319 0.687971 0.031497
C39   C     C_R   0.207345 0.817988 0.714852 -0.135419
C40   C     C_R   0.407055 0.380768 0.604802 0.568303
C41   C     C_R   0.202044 0.826694 0.788241 -0.140239
C42   C     C_R   0.305513 0.839943 0.825670 0.032444
C43   C     C_R   0.417656 0.838718 0.788980 -0.136193
C44   C     C_R   0.422751 0.830276 0.715406 -0.139754
C45   C     C_R   0.497130 0.249855 0.194419 -0.023409
C46   C     C_R   0.319096 0.817358 0.678059 0.038433
C47   C     C_R   0.972856 0.290197 0.118434 0.546915
C48   C     C_R   0.330560 0.296243 0.091360 0.531718
C49   C     C_R   0.303019 0.907576 0.107633 0.539732
C50   C     C_R   0.878661 0.310491 0.905888 0.551624
C51   C     C_R   0.298878 0.292650 0.887408 0.550809
C52   C     C_R   0.759149 0.378965 0.611935 0.554893
C53   C     C_R   0.277024 0.892160 0.898313 0.551141
C54   C     C_R   0.844862 0.894826 0.088633 -0.114681
C55   C     C_R   0.795728 0.032811 0.064215 -0.081910
C56   C     C_R   0.073183 0.727314 0.273355 -0.103885
C57   C     C_R   0.685327 0.149465 0.099726 -0.057347
C58   C     C_R   0.946572 0.839856 0.300393 -0.118440
C59   C     C_R   0.671516 0.988939 0.183566 -0.090838
C60   C     C_R   0.782490 0.872879 0.148136 -0.122650
Cr1   Cr    Cr6+3 0.601770 0.606860 0.505860 1.010654
Cr2   Cr    Cr6+3 0.291380 0.601660 0.495070 1.031184
Cr3   Cr    Cr6+3 0.606880 0.291510 0.499120 1.023737
Cr4   Cr    Cr6+3 0.062440 0.063090 0.008210 0.979856
Cr5   Cr    Cr6+3 0.062880 0.375170 0.998920 1.003165
Cr6   Cr    Cr6+3 0.374700 0.061720 0.992470 1.018189
H1    H     H_    0.776171 0.902429 0.374989 0.124066
H2    H     H_    0.819992 0.765897 0.166809 0.123858
H3    H     H_    0.121282 0.951648 0.329786 0.164292
H4    H     H_    0.597390 0.221435 0.703309 0.130136
H5    H     H_    0.554522 0.193683 0.826959 0.129413
H6    H     H_    0.108343 0.501586 0.799183 0.128390
H7    H     H_    0.154059 0.536477 0.675872 0.134839
H8    H     H_    0.684210 0.581809 0.710562 0.133872
H9    H     H_    0.710803 0.556147 0.838215 0.122431
H10   H     H_    0.915858 0.099355 0.814163 0.132283
H11   H     H_    0.883030 0.126405 0.684394 0.122019
H12   H     H_    0.872625 0.658845 0.422346 0.141535
H13   H     H_    0.126319 0.806503 0.687348 0.129325
H14   H     H_    0.903447 0.945691 0.278804 0.116867
H15   H     H_    0.113632 0.829240 0.815216 0.122941
H16   H     H_    0.498280 0.850452 0.816773 0.129940
H17   H     H_    0.930616 0.804883 0.061166 0.106522
H18   H     H_    0.842508 0.049154 0.017343 0.142119
H19   H     H_    0.647321 0.255747 0.079813 0.100000
H20   H     H_    0.623112 0.970219 0.229175 0.119165
H21   H     H_    0.156861 0.521698 0.168266 0.135159
H22   H     H_    0.606376 0.198210 0.294093 0.130809
H23   H     H_    0.095866 0.461275 0.374949 0.185980
H24   H     H_    0.509958 0.829352 0.688006 0.127012
H25   H     H_    0.124372 0.746359 0.229315 0.118163
H26   H     H_    0.625726 0.442736 0.288001 0.103518
H27   H     H_    0.705316 0.407686 0.164102 0.128069
H28   H     H_    0.138322 0.223542 0.236091 0.137727
H29   H     H_    0.577623 0.725734 0.310574 0.139661
H30   H     H_    0.555567 0.775260 0.182000 0.122542
H31   H     H_    0.098943 0.996935 0.204148 0.144768
O1    O     O_R   0.748800 0.497470 0.428000 -0.519365
O2    O     O_R   0.417600 0.174890 0.067840 -0.504701
O3    O     O_R   0.375320 0.946260 0.070860 -0.495652
O4    O     O_R   0.476420 0.724060 0.429470 -0.506451
O5    O     O_R   0.160600 0.919630 0.926660 -0.530684
O6    O     O_R   0.933060 0.190520 0.936020 -0.518293
O7    O     O_R   0.908880 0.403460 0.925020 -0.513790
O8    O     O_R   0.179600 0.361450 0.918490 -0.501400
O9    O     O_R   0.391510 0.170860 0.907530 -0.525325
O10   O     O_R   0.351130 0.942530 0.922260 -0.501780
O11   O     O_3   0.166667 0.166667 0.999870 -0.255418
O12   O     O_R   0.300070 0.471040 0.567100 -0.491836
O13   O     O_R   0.264580 0.744340 0.416750 -0.511183
O14   O     O_R   0.309380 0.472470 0.418200 -0.486914
O15   O     O_R   0.501710 0.260430 0.414300 -0.496120
O16   O     O_R   0.728090 0.305600 0.428960 -0.512444
O17   O     O_R   0.738760 0.495930 0.588610 -0.516268
O18   O     O_R   0.467110 0.722640 0.578360 -0.505902
O19   O     O_R   0.254530 0.742800 0.577360 -0.530212
O20   O     O_R   0.491670 0.258900 0.574910 -0.496614
O21   O     O_R   0.718780 0.304180 0.577850 -0.521149
O22   O     O_3   0.500010 0.500010 0.500020 -0.300936
O23   O     O_R   0.186690 0.923650 0.086970 -0.537018
O24   O     O_R   0.957250 0.194250 0.084630 -0.514070
O25   O     O_R   0.934970 0.407490 0.085330 -0.515642
O26   O     O_R   0.203780 0.365190 0.067090 -0.525423

loop_
_geom_bond_atom_site_label_1
_geom_bond_atom_site_label_2
_ccdc_geom_bond_type
C39   C46   A    
C54   C55   A    
C10   C17   A    
C25   C31   A    
C21   H31   S    
C56   H25   S    
C18   C19   A    
C41   H15   S    
C43   H16   S    
C47   O25   A    
C6    C7    A    
C12   C59   A    
C38   C52   S    
C25   C26   A    
C32   C38   A    
Cr3   O21   S    
C28   C46   S    
C35   C36   A    
C14   H28   S    
C29   C30   A    
Cr2   O19   S    
Cr6   O10   S    
C56   C58   A    
C1    O4    A    
C14   C15   A    
Cr3   O20   S    
Cr2   O14   S    
C32   H8    S    
C19   H30   S    
C51   O9    A    
C7    C8    A    
C31   C40   S    
C39   H13   S    
C9    C34   A    
Cr4   O23   S    
C40   O20   A    
Cr1   O22   S    
C10   H26   S    
C39   C41   A    
C51   O8    A    
C20   C21   A    
C25   H4    S    
C22   H3    S    
C11   H27   S    
C2    C23   A    
C49   O23   A    
Cr5   O8    S    
C44   H24   S    
C57   H19   S    
C20   C49   S    
C59   H20   S    
Cr6   O11   S    
C16   O16   A    
C16   C17   S    
C44   C46   A    
C37   C38   A    
C1    O13   A    
Cr3   O16   S    
C53   O5    A    
C8    C56   A    
C29   H6    S    
C30   H7    S    
C13   C47   S    
C12   C57   A    
C37   H11   S    
C50   O6    A    
C48   O26   A    
C36   H10   S    
C59   C60   A    
C42   C43   A    
Cr1   O18   S    
C36   C37   A    
C42   C53   S    
C30   C31   A    
C50   O7    A    
C32   C33   A    
Br1   C15   S    
Cr4   O24   S    
C16   O1    A    
Cr4   O11   S    
C35   C50   S    
Cr6   O2    S    
C34   H22   S    
C28   O18   A    
C11   C13   A    
C40   O12   A    
Cr5   O26   S    
C7    H23   S    
C41   C42   A    
Cr4   O5    S    
Cr5   O7    S    
C3    C9    A    
C2    C3    A    
C43   C44   A    
Cr6   O3    S    
C6    H12   S    
C60   H2    S    
C23   C48   S    
Cr3   O15   S    
C4    O15   A    
C2    H21   S    
C21   C22   A    
C5    C58   A    
C58   H14   S    
C10   C11   A    
C52   O21   A    
C5    C6    A    
C4    O14   A    
Cr3   O22   S    
C53   O10   A    
C23   C45   A    
Cr2   O12   S    
C27   C29   A    
C3    C8    S    
Cr1   O17   S    
C48   O2    A    
C47   O24   A    
Cr2   O22   S    
C27   C51   S    
Cr6   O9    S    
C55   H18   S    
C12   C45   S    
C28   O19   A    
C54   C60   A    
C5    H1    S    
C55   C57   A    
C1    C24   S    
C33   C35   A    
C22   C24   A    
Cr5   O11   S    
Cr2   O13   S    
C18   C24   A    
C26   H5    S    
Cr1   O1    S    
Cr5   O25   S    
C4    C9    S    
C19   C20   A    
C49   O3    A    
C15   C17   A    
C26   C27   A    
C13   C14   A    
Cr4   O6    S    
C54   H17   S    
C34   C45   A    
C18   H29   S    
C52   O17   A    
C33   H9    S    
Cr1   O4    S    
