data_mof_unit_37241.cif
_audit_creation_date              2012-12-10T20:47:09-0500
_audit_creation_method            fapswitch 2.2
_symmetry_space_group_name_H-M    P1
_symmetry_Int_Tables_number       1
_space_group_crystal_system       triclinic
_cell_length_a                    10.685992
_cell_length_b                    8.933846
_cell_length_c                    8.10257
_cell_angle_alpha                 89.991577
_cell_angle_beta                  88.023161
_cell_angle_gamma                 90.132857
_cell_volume                      773.065644783

loop_
_atom_site_label
_atom_site_type_symbol
_atom_type_description
_atom_site_fract_x
_atom_site_fract_y
_atom_site_fract_z
_atom_type_partial_charge
C1    C     C_R   0.500183 0.217980 0.499977 0.931468
C2    C     C_R   0.054782 0.540958 0.655134 -0.073978
C3    C     C_R   0.124254 0.481868 0.516716 -0.018952
C4    C     C_R   0.872821 0.531128 0.491308 -0.017694
C5    C     C_R   0.064832 0.438468 0.374006 -0.160977
C6    C     C_R   0.938547 0.457814 0.363767 -0.167946
C7    C     C_1   0.500079 0.065176 0.499998 -0.167985
C8    C     C_1   0.499886 0.934801 0.499979 -0.156289
C9    C     C_R   0.499637 0.782014 0.499979 0.973981
C10   C     C_R   0.258643 0.490917 0.504615 0.886951
C11   C     C_R   0.740071 0.513782 0.497144 0.949700
C12   C     C_R   0.097687 0.547297 0.818602 0.314933
C13   C     C_R   0.877043 0.696131 0.738880 0.362668
C14   C     C_R   0.042672 0.650651 0.932388 0.198972
C15   C     C_R   0.933402 0.728286 0.890260 0.337574
C16   C     C_R   0.933971 0.591592 0.628003 -0.107611
H1    H     H_    0.116105 0.387165 0.271423 0.155699
H2    H     H_    0.892049 0.412571 0.257854 0.169813
H3    H     H_    0.168763 0.425415 0.992034 0.334912
H4    H     H_    0.741247 0.840615 0.778741 0.386522
H5    H     H_    0.185000 0.654321 0.075482 0.354726
H6    H     H_    0.926727 0.844207 0.095836 0.396809
N1    N     N_1   0.500000 0.500000 0.073640 -0.026898
N2    N     N_1   0.500000 0.500000 0.926360 -0.009080
O1    O     O_R   0.500000 0.285350 0.636850 -0.608472
O2    O     O_3   0.772243 0.772932 0.689873 -0.754423
O3    O     O_3   0.094648 0.679182 0.083011 -0.771633
O4    O     O_3   0.877959 0.833136 0.994946 -0.759490
O5    O     O_R   0.500000 0.714650 0.636850 -0.603731
O6    O     O_R   0.500000 0.285360 0.363100 -0.619272
O7    O     O_R   0.500000 0.714640 0.363100 -0.615012
O8    O     O_R   0.316770 0.500000 0.636900 -0.560417
O9    O     O_R   0.683230 0.500000 0.636900 -0.596711
O10   O     O_R   0.316780 0.500000 0.363150 -0.642571
O11   O     O_R   0.683220 0.500000 0.363150 -0.636005
O12   O     O_3   0.177226 0.436332 0.870743 -0.728411
Zn1   Zn    Zn3+2 0.500000 0.500000 0.682780 1.043843
Zn2   Zn    Zn3+2 0.500000 0.500000 0.317220 1.004989

loop_
_geom_bond_atom_site_label_1
_geom_bond_atom_site_label_2
_ccdc_geom_bond_type
C4    C16   A    
N1    N2    T    
C14   O3    S    
C12   O12   S    
N1    Zn2   S    
C2    C16   A    
O7    Zn2   S    
C9    O5    A    
C2    C12   A    
C11   O11   A    
C2    C3    A    
H5    O3    S    
C7    C8    T    
C10   O10   A    
C3    C10   S    
H6    O4    S    
O8    Zn1   S    
C4    C11   S    
C1    O1    A    
C15   O4    S    
H4    O2    S    
C1    O6    A    
C12   C14   A    
N2    Zn1   S    
H3    O12   S    
C13   C15   A    
C5    C6    A    
C6    H2    S    
C13   O2    S    
C5    H1    S    
C9    O7    A    
C10   O8    A    
C11   O9    A    
O11   Zn2   S    
O6    Zn2   S    
C4    C6    A    
C13   C16   A    
O5    Zn1   S    
C14   C15   A    
O1    Zn1   S    
C1    C7    S    
O9    Zn1   S    
C8    C9    S    
C3    C5    A    
O10   Zn2   S    
