data_mof_unit_58264.cif
_audit_creation_date              2013-03-05T15:52:05-0500
_audit_creation_method            fapswitch 2.2
_symmetry_space_group_name_H-M    P1
_symmetry_Int_Tables_number       1
_space_group_crystal_system       triclinic
_cell_length_a                    19.37232
_cell_length_b                    10.85907
_cell_length_c                    9.583014
_cell_angle_alpha                 89.063629
_cell_angle_beta                  89.334718
_cell_angle_gamma                 93.529641
_cell_volume                      2011.6808184

loop_
_atom_site_label
_atom_site_type_symbol
_atom_site_description
_atom_site_fract_x
_atom_site_fract_y
_atom_site_fract_z
_atom_type_partial_charge
O1    O     O_R   0.499990 0.319640 0.618810 -0.597389
O2    O     O_R   0.500000 0.319660 0.381240 -0.584415
C1    C     C_R   0.504124 0.262571 0.502021 0.793029
O3    O     O_R   0.400140 0.499970 0.618820 -0.594793
O4    O     O_R   0.400150 0.500000 0.381250 -0.579052
C2    C     C_R   0.367580 0.501182 0.500830 0.806674
Cu1   Cu    Cu3+1 0.500000 0.499990 0.640660 0.960839
Cu2   Cu    Cu3+1 0.500000 0.500010 0.359340 0.935155
O5    O     O_R   0.500000 0.680340 0.618760 -0.613349
O6    O     O_R   0.500010 0.680360 0.381190 -0.598138
O7    O     O_R   0.599850 0.500000 0.618750 -0.546512
O8    O     O_R   0.599860 0.500030 0.381180 -0.602326
C3    C     C_R   0.495266 0.736913 0.499838 0.800949
C4    C     C_R   0.632579 0.492404 0.499350 0.842755
C5    C     C_R   0.256736 0.521757 0.630347 -0.243364
H1    H     H_    0.285259 0.528167 0.726765 0.185291
C6    C     C_R   0.185013 0.531942 0.634377 0.355341
C7    C     C_R   0.147629 0.524400 0.508361 -0.063306
C8    C     C_R   0.183323 0.512777 0.381402 -0.160712
H2    H     H_    0.155636 0.506511 0.283934 0.202648
C9    C     C_R   0.254733 0.504758 0.378755 -0.162276
H3    H     H_    0.280641 0.494862 0.279158 0.174020
C10   C     C_R   0.291953 0.507941 0.503260 -0.100360
N1    N     N_R   0.037838 0.569973 0.398904 -0.189546
N2    N     N_R   0.969092 0.560678 0.394618 -0.136057
C11   C     C_R   0.931676 0.499157 0.497268 0.484903
N3    N     N_R   0.965499 0.448543 0.605099 -0.182175
N4    N     N_R   0.034181 0.457807 0.609376 -0.145947
C12   C     C_R   0.071605 0.519249 0.506805 0.446834
C13   C     C_R   0.819096 0.491981 0.619488 -0.197979
H4    H     H_    0.847073 0.499656 0.716601 0.229765
C14   C     C_R   0.747084 0.485652 0.623959 0.337193
C15   C     C_R   0.709146 0.478981 0.497672 -0.211893
C16   C     C_R   0.746108 0.460613 0.370123 -0.013023
C17   C     C_R   0.819359 0.470673 0.368197 0.359318
C18   C     C_R   0.855554 0.488182 0.493613 -0.155451
H5    H     H_    0.520488 0.115936 0.283306 0.162765
C19   C     C_R   0.511549 0.109270 0.769738 -0.158557
H6    H     H_    0.540248 0.196129 0.785087 0.210282
C20   C     C_R   0.488830 0.044601 0.890208 -0.146062
H7    H     H_    0.496874 0.086524 0.991017 0.137962
C21   C     C_R   0.453956 0.929004 0.879926 0.210051
C22   C     C_R   0.449525 0.873221 0.749691 -0.163505
H8    H     H_    0.421188 0.784492 0.744059 0.168434
C23   C     C_R   0.479498 0.932740 0.628840 0.067764
C24   C     C_R   0.500129 0.058968 0.635690 0.104136
C25   C     C_R   0.508254 0.128085 0.508111 -0.094928
C26   C     C_R   0.512087 0.066007 0.381453 -0.190388
H9    H     H_    0.515172 0.893246 0.281448 0.167465
C27   C     C_R   0.506652 0.938582 0.379425 -0.198218
C28   C     C_R   0.490430 0.870677 0.501894 -0.082352
H10   H     H_    0.420821 0.362165 0.138328 0.148825
C29   C     C_R   0.589830 0.669086 0.139434 -0.241373
H11   H     H_    0.595380 0.673187 0.249338 0.228749
C30   C     C_R   0.631648 0.756217 0.065539 -0.249510
H12   H     H_    0.664427 0.821617 0.122683 0.207689
C31   C     C_R   0.631984 0.758439 0.920691 0.365426
C32   C     C_R   0.590242 0.670030 0.851239 -0.155712
H13   H     H_    0.595778 0.672675 0.741308 0.223392
C33   C     C_R   0.544753 0.582847 0.922814 0.137206
C34   C     C_R   0.544576 0.582718 0.072264 0.187916
N5    N     N_R   0.500660 0.501210 0.147910 -0.207942
C35   C     C_R   0.456428 0.423716 0.078446 -0.056682
C36   C     C_R   0.455383 0.423347 0.930962 0.248299
N6    N     N_R   0.500680 0.501290 0.852040 -0.186039
C37   C     C_3   0.422965 0.863122 0.006766 -0.853855
H14   H     H_    0.428595 0.920777 0.101017 0.227918
H15   H     H_    0.366961 0.840898 0.990427 0.248259
H16   H     H_    0.448865 0.776137 0.025300 0.233339
N7    N     N_R   0.675321 0.849204 0.843793 0.151537
O9    O     O_R   0.715497 0.929053 0.909020 -0.295527
O10   O     O_R   0.673924 0.854822 0.708060 -0.354679
N8    N     N_R   0.151839 0.554967 0.765623 0.134962
O11   O     O_R   0.105459 0.636463 0.772986 -0.300303
O12   O     O_R   0.175303 0.509266 0.880868 -0.346805
C38   C     C_3   0.399937 0.338050 0.869676 -0.795597
H17   H     H_    0.404041 0.324713 0.757422 0.280537
H18   H     H_    0.401155 0.245071 0.919094 0.200484
H19   H     H_    0.348583 0.373789 0.892364 0.221958
N9    N     N_R   0.714121 0.478644 0.759059 0.133015
O13   O     O_R   0.676014 0.379970 0.794670 -0.341170
O14   O     O_R   0.736645 0.552150 0.856666 -0.325609
C39   C     C_3   0.708954 0.418876 0.238952 -0.594919
H20   H     H_    0.667050 0.347524 0.265053 0.213419
H21   H     H_    0.687983 0.498950 0.184490 0.255730
H22   H     H_    0.743103 0.373683 0.164403 0.268273
N10   N     N_R   0.856883 0.459600 0.239288 0.130236
O15   O     O_R   0.899157 0.372009 0.224387 -0.298934
O16   O     O_R   0.847086 0.534578 0.135022 -0.274018

loop_
_geom_bond_atom_site_label_1
_geom_bond_atom_site_label_2
_geom_bond_distance
_ccdc_geom_bond_type
C37   H15   1.110296 S    
N10   O15   1.301312 A    
N8    O11   1.301511 A    
C17   C18   1.408157 A    
C38   H19   1.110346 S    
C30   H12   1.082921 S    
C4    C15   1.499264 S    
Cu1   Cu2   2.695890 S    
C29   H11   1.061308 S    
Cu1   O7    1.943254 S    
C11   N3    1.356728 A    
N4    C12   1.356240 A    
C8    C9    1.391430 A    
C38   H18   1.109876 S    
C7    C8    1.403750 A    
C13   H4    1.084179 S    
O7    C4    1.307937 A    
C37   H16   1.109258 S    
Cu1   N6    2.026127 S    
C23   C28   1.420352 A    
C32   C33   1.416088 A    
C5    H1    1.083095 S    
Cu1   O5    1.966233 S    
C16   C17   1.416398 A    
C1    C25   1.467744 S    
O5    C3    1.292691 A    
N1    C12   1.357189 A    
C3    C28   1.461746 S    
C17   N10   1.436561 S    
C25   C26   1.401419 A    
N7    O9    1.301624 A    
C31   N7    1.441986 S    
C5    C10   1.403727 A    
C37   H14   1.109967 S    
C19   C20   1.394016 A    
C9    H3    1.083170 S    
C6    N8    1.438300 S    
N8    O12   1.301579 A    
C29   C34   1.412133 A    
O3    Cu1   1.948212 S    
C6    C7    1.416244 A    
C29   C30   1.386851 A    
C19   H6    1.078072 S    
C38   H17   1.090413 S    
N9    O14   1.301324 A    
N9    O13   1.301670 A    
C27   C28   1.398035 A    
N2    C11   1.357090 A    
C23   C24   1.406770 A    
H10   C35   1.083219 S    
C33   C34   1.432125 A    
O1    C1    1.292184 A    
C22   H8    1.081614 S    
N5    C35   1.352136 A    
C14   N9    1.435727 S    
C39   H20   1.110581 S    
Cu2   O8    1.948210 S    
C15   C16   1.432395 A    
C36   C38   1.505491 S    
C7    C12   1.470634 S    
N1    N2    1.330551 A    
H5    C26   1.083509 S    
C22   C23   1.417689 A    
C11   C18   1.472995 S    
C20   H7    1.083475 S    
C39   H21   1.107737 S    
O8    C4    1.308079 A    
C33   N6    1.383212 A    
C30   C31   1.387822 A    
O3    C2    1.301392 A    
C21   C22   1.397391 A    
C5    C6    1.400752 A    
C24   C25   1.426115 A    
O1    Cu1   1.972983 S    
O2    Cu2   1.966233 S    
C20   C21   1.393927 A    
O6    C3    1.306032 A    
O4    Cu2   1.943258 S    
C13   C18   1.393215 A    
C36   N6    1.389469 A    
C8    H2    1.083484 S    
C9    C10   1.401040 A    
O2    C1    1.309648 A    
C32   H13   1.057423 S    
C14   C15   1.423712 A    
C13   C14   1.392633 A    
C31   C32   1.398699 A    
O4    C2    1.302354 A    
C2    C10   1.471346 S    
C26   C27   1.381702 A    
C34   N5    1.380100 A    
C19   C24   1.418500 A    
C35   C36   1.413787 A    
C39   H22   1.108744 S    
Cu2   O6    1.972983 S    
H9    C27   1.082909 S    
C16   C39   1.517569 S    
N3    N4    1.329310 A    
C21   C37   1.500478 S    
N10   O16   1.301591 A    
N7    O10   1.301840 A    
Cu2   N5    2.025852 S    
