data_mof_unit_29118.cif
_audit_creation_date              2013-03-05T16:07:57-0500
_audit_creation_method            fapswitch 2.2
_symmetry_space_group_name_H-M    P1
_symmetry_Int_Tables_number       1
_space_group_crystal_system       triclinic
_cell_length_a                    6.95644
_cell_length_b                    14.533533
_cell_length_c                    15.99488
_cell_angle_alpha                 90.247092
_cell_angle_beta                  89.979647
_cell_angle_gamma                 89.965853
_cell_volume                      1617.09333602

loop_
_atom_site_label
_atom_site_type_symbol
_atom_site_description
_atom_site_fract_x
_atom_site_fract_y
_atom_site_fract_z
_atom_type_partial_charge
O1    O     O_R   0.494380 0.415640 0.412830 -0.607861
O2    O     O_R   0.823960 0.405540 0.586560 -0.612872
O3    O     O_R   0.994270 0.584360 0.587170 -0.576910
C1    C     C_R   0.655298 0.383585 0.615220 0.976738
O4    O     O_R   0.824090 0.404620 0.413450 -0.567882
O5    O     O_R   0.994400 0.583430 0.412820 -0.566310
C2    C     C_R   0.655523 0.382703 0.384287 1.024831
O6    O     O_R   0.494250 0.416570 0.587180 -0.602519
O7    O     O_3   0.660800 0.558670 0.500000 -0.237867
V1    V     V_3+5 0.935650 0.489120 0.500000 1.230948
O8    O     O_R   0.324110 0.594460 0.413440 -0.590347
C3    C     C_R   0.155088 0.616305 0.384497 1.020773
O9    O     O_R   0.323980 0.595380 0.586550 -0.594287
C4    C     C_R   0.155208 0.616101 0.616640 0.945474
V2    V     V_3+5 0.435660 0.510880 0.500000 1.223406
O10   O     O_3   0.160640 0.441330 0.500000 -0.288393
C5    C     C_3   0.981349 0.659887 0.750658 -0.456252
H1    H     H_    0.840221 0.653593 0.718773 0.171750
H2    H     H_    0.012034 0.590890 0.777513 0.193752
C6    C     C_3   0.965890 0.732127 0.822075 0.707559
H3    H     H_    0.820694 0.764227 0.819641 0.031737
H4    H     H_    0.948304 0.889790 0.726397 0.210596
C7    C     C_3   0.110668 0.785211 0.653564 0.239192
C8    C     C_3   0.333967 0.687516 0.738906 -0.428396
C9    C     C_3   0.143626 0.685741 0.687733 -0.133129
H5    H     H_    0.457480 0.704628 0.697665 0.214482
H6    H     H_    0.363059 0.618276 0.765569 0.184852
C10   C     C_3   0.122607 0.807752 0.812537 -0.170847
C11   C     C_3   0.091416 0.855576 0.727023 -0.541926
C12   C     C_3   0.322880 0.759516 0.810440 -0.282497
H7    H     H_    0.351240 0.725262 0.871281 0.213584
H8    H     H_    0.438377 0.811456 0.801084 0.171584
H9    H     H_    0.241499 0.804254 0.617235 0.121112
H10   H     H_    0.200322 0.910856 0.718993 0.233636
C13   C     C_R   0.274016 0.815351 0.239424 -0.019526
C14   C     C_R   0.118797 0.815702 0.183639 -0.131735
C15   C     C_R   0.968900 0.753046 0.198649 -0.139408
H11   H     H_    0.849045 0.749514 0.156164 0.203099
C16   C     C_R   0.979516 0.689475 0.264669 0.007330
H12   H     H_    0.865580 0.639505 0.271611 0.137493
C17   C     C_R   0.141574 0.686096 0.317401 -0.246470
C18   C     C_R   0.285106 0.752201 0.304941 0.052371
C19   C     C_3   0.494833 0.737632 0.291511 0.462750
C20   C     C_3   0.482399 0.805581 0.219975 0.408442
H13   H     H_    0.531433 0.666017 0.272764 0.049071
H14   H     H_    0.565506 0.870136 0.229219 0.098036
C21   C     C_R   0.511296 0.242741 0.680717 0.032218
C22   C     C_R   0.647964 0.313434 0.681767 -0.214659
C23   C     C_R   0.783488 0.313535 0.747268 -0.324805
H15   H     H_    0.893486 0.366200 0.749856 0.163741
C24   C     C_R   0.768778 0.250276 0.813666 0.901757
C25   C     C_R   0.623511 0.182493 0.814084 -0.426142
C26   C     C_R   0.501191 0.177904 0.744592 -0.121146
C27   C     C_3   0.286951 0.177419 0.740938 1.360372
C28   C     C_3   0.298165 0.247556 0.671032 -0.641319
H16   H     H_    0.238475 0.316048 0.688390 0.198934
H17   H     H_    0.249973 0.220275 0.609471 0.210631
C29   C     C_R   0.504985 0.244819 0.314411 0.002278
C30   C     C_R   0.648508 0.312456 0.316727 -0.375623
C31   C     C_R   0.790638 0.309019 0.253629 0.740139
C32   C     C_R   0.779449 0.243783 0.188152 -0.223128
H18   H     H_    0.887178 0.245057 0.139292 0.174937
C33   C     C_R   0.623549 0.182071 0.182436 -0.343047
C34   C     C_R   0.492219 0.181726 0.248800 0.085547
C35   C     C_3   0.278087 0.186046 0.248415 0.651763
C36   C     C_3   0.292113 0.254148 0.320691 -0.514098
H19   H     H_    0.217379 0.215098 0.189961 0.033368
H20   H     H_    0.235665 0.227052 0.380771 0.229619
H21   H     H_    0.243567 0.324589 0.304603 0.225651
O11   O     O_R   0.771490 0.080820 0.910070 -0.557376
O12   O     O_R   0.441590 0.092730 0.083780 -0.608353
O13   O     O_R   0.271350 0.913900 0.084390 -0.569595
C37   C     C_R   0.610552 0.115048 0.112560 1.007836
O14   O     O_R   0.441780 0.091820 0.910670 -0.562037
O15   O     O_R   0.271540 0.912980 0.910040 -0.602416
C38   C     C_R   0.610777 0.114483 0.882522 1.031452
O16   O     O_R   0.771300 0.081740 0.084420 -0.587672
O17   O     O_3   0.604960 0.938700 0.997240 -0.271408
V3    V     V_3+5 0.330090 0.008230 0.997220 1.280573
O18   O     O_R   0.941820 0.901930 0.910640 -0.607075
C39   C     C_R   0.111133 0.878439 0.882785 0.998914
O19   O     O_R   0.941630 0.902840 0.083750 -0.599111
C40   C     C_R   0.110473 0.880920 0.112640 1.018160
V4    V     V_3+5 0.830090 0.986410 0.997190 1.269546
O20   O     O_3   0.105080 0.055990 0.997200 -0.240773
F1    F     F_    0.601326 0.771237 0.358030 -0.638291
F2    F     F_    0.509434 0.763884 0.142816 -0.697649
F3    F     F_    0.885567 0.260433 0.880985 -0.643808
F4    F     F_    0.204377 0.211391 0.813251 -0.667099
F5    F     F_    0.212702 0.093437 0.715845 -0.732713
F6    F     F_    0.930745 0.373765 0.250965 -0.728824
F7    F     F_    0.197464 0.103113 0.272127 -0.672415
F8    F     F_    0.983720 0.689013 0.898869 -0.689446
N1    N     N_R   0.945269 0.790614 0.596741 0.251939
O21   O     O_R   0.770105 0.783821 0.624588 -0.416193
O22   O     O_R   0.973012 0.806586 0.517669 -0.332319

loop_
_geom_bond_atom_site_label_1
_geom_bond_atom_site_label_2
_geom_bond_distance
_ccdc_geom_bond_type
C35   F7    1.384109 S    
C36   H20   1.111712 S    
C6    F8    1.386862 S    
H4    C11   1.112624 S    
C17   C18   1.400832 A    
C13   C14   1.401003 A    
C8    H6    1.113112 S    
C1    O6    1.299093 A    
O12   V3    2.003479 S    
C16   C17   1.409139 A    
C26   C27   1.491534 S    
C3    C17   1.482822 S    
O14   C38   1.301780 A    
C7    C11   1.560026 S    
C14   C15   1.406067 A    
C8    H5    1.111969 S    
C27   F5    1.383572 S    
O13   V3    2.001804 S    
O5    C3    1.298138 A    
C12   H7    1.112647 S    
C36   H21   1.109177 S    
C35   H19   1.110972 S    
C14   C40   1.483457 S    
V2    O10   2.164305 S    
C5    C6    1.551829 S    
C32   C33   1.410483 A    
C13   C18   1.398123 A    
O8    V2    2.002181 S    
C29   C36   1.490263 S    
C7    H9    1.115299 S    
O1    V2    2.002267 S    
C20   F2    1.385273 S    
O11   V4    2.001715 S    
O7    V1    2.162195 S    
O18   V4    2.002866 S    
C21   C26   1.394650 A    
C30   C31   1.413306 A    
O9    C4    1.303320 A    
C32   H18   1.082793 S    
C2    C30   1.484247 S    
C20   H14   1.111686 S    
C29   C34   1.393516 A    
C24   C25   1.411724 A    
C8    C9    1.557068 S    
C27   F4    1.380500 S    
C16   H12   1.081331 S    
O4    C2    1.301403 A    
O17   V3    2.162183 S    
O15   C39   1.298585 A    
C6    C10   1.556460 S    
O16   V4    2.003930 S    
C23   C24   1.411409 A    
C29   C30   1.401917 A    
C11   H10   1.112409 S    
O19   C40   1.302225 A    
C31   C32   1.411873 A    
O2    C1    1.299954 A    
C19   C20   1.517109 S    
C15   H11   1.076909 S    
C21   C22   1.400267 A    
C28   H16   1.112406 S    
C5    H1    1.110117 S    
V4    O20   2.164323 S    
N1    O22   1.301195 A    
C13   C20   1.489075 S    
C19   H13   1.111298 S    
O3    C4    1.299046 A    
C22   C23   1.409662 A    
C23   H15   1.083297 S    
O6    V2    2.001372 S    
O19   V4    2.002064 S    
O14   V3    2.002715 S    
C28   H17   1.111823 S    
O11   C38   1.298063 A    
C18   C19   1.489474 S    
O2    V1    2.002737 S    
V3    O20   1.711892 S    
C25   C26   1.401454 A    
C21   C28   1.492394 S    
C1    C22   1.477983 S    
C31   F6    1.355962 S    
C27   C28   1.518312 S    
C10   C11   1.552175 S    
C10   C39   1.521226 S    
O1    C2    1.300492 A    
C19   F1    1.384149 S    
O18   C39   1.303901 A    
C25   C38   1.480692 S    
C24   F3    1.356711 S    
O5    V1    2.001732 S    
O8    C3    1.303380 A    
C33   C37   1.482213 S    
C7    N1    1.468791 S    
C5    C9    1.559330 S    
C34   C35   1.490892 S    
O9    V2    2.002905 S    
O7    V2    1.713652 S    
O4    V1    2.003531 S    
C15   C16   1.408028 A    
O3    V1    2.002663 S    
V1    O10   1.711941 S    
C12   H8    1.113261 S    
C10   C12   1.559539 S    
C5    H2    1.113167 S    
C7    C9    1.564510 S    
C4    C9    1.521128 S    
N1    O21   1.301177 A    
C8    C12   1.549068 S    
O13   C40   1.299429 A    
C33   C34   1.400286 A    
O17   V4    1.713119 S    
C6    H3    1.113092 S    
C35   C36   1.521817 S    
O12   C37   1.303137 A    
C37   O16   1.297881 A    
O15   V3    2.002775 S    
