data_mof_unit_49757.cif
_audit_creation_date              2012-10-26T20:03:18-0400
_audit_creation_method            fapswitch 2.2
_symmetry_space_group_name_H-M    P1
_symmetry_Int_Tables_number       1
_space_group_crystal_system       triclinic
_cell_length_a                    10.605219
_cell_length_b                    12.327952
_cell_length_c                    13.18755
_cell_angle_alpha                 116.655046
_cell_angle_beta                  77.765433
_cell_angle_gamma                 101.050848
_cell_volume                      1496.6746975

loop_
_atom_site_label
_atom_site_type_symbol
_atom_type_description
_atom_site_fract_x
_atom_site_fract_y
_atom_site_fract_z
_atom_type_partial_charge
C1    C     C_R   0.511556 0.854883 0.286606 0.526474
C2    C     C_R   0.499713 0.566528 0.009319 0.031845
C3    C     C_R   0.460490 0.650498 0.123446 0.023992
C4    C     C_R   0.740343 0.999179 0.499666 0.548178
C5    C     C_R   0.457043 0.440207 0.975880 0.028222
C6    C     C_R   0.366463 0.401447 0.052455 0.051334
C7    C     C_R   0.317420 0.487371 0.159182 -0.141302
C8    C     C_R   0.362195 0.610145 0.193628 -0.124831
C9    C     C_R   0.502500 0.350801 0.868709 -0.136488
C10   C     C_R   0.365974 0.190729 0.911249 -0.138893
C11   C     C_R   0.519651 0.772992 0.163555 -0.002722
C12   C     C_3   0.018225 0.013633 0.602687 -0.124633
C13   C     C_R   0.707356 0.346533 0.329151 -0.149024
C14   C     C_R   0.324198 0.759678 0.645061 0.050111
C15   C     C_R   0.286124 0.663250 0.676582 -0.160775
C16   C     C_R   0.480755 0.145111 0.713357 0.544090
C17   C     C_R   0.352270 0.559773 0.621933 -0.137463
C18   C     C_R   0.458154 0.551538 0.534570 -0.006050
C19   C     C_R   0.493868 0.653038 0.505434 0.180025
C20   C     C_R   0.529965 0.447101 0.475302 -0.013551
C21   C     C_R   0.635341 0.446753 0.388689 0.037267
C22   C     C_R   0.668686 0.546451 0.361958 -0.176217
C23   C     C_3   0.933425 0.906183 0.521442 -0.115453
C24   C     C_R   0.599833 0.647187 0.419105 -0.099885
C25   C     C_R   0.502473 0.342156 0.497745 0.038884
C26   C     C_R   0.675360 0.246582 0.355396 0.042789
C27   C     C_R   0.259686 0.000532 0.499952 0.547436
C28   C     C_3   0.981790 0.985470 0.396388 -0.127088
C29   C     C_3   0.040433 0.893554 0.418166 -0.125912
C30   C     C_3   0.122893 0.000974 0.499430 0.046493
C31   C     C_3   0.066588 0.092927 0.477623 -0.112295
C32   C     C_3   0.959645 0.105558 0.580915 -0.121479
C33   C     C_3   0.877149 0.998209 0.499683 0.045006
C34   C     C_R   0.323421 0.277051 0.020247 -0.132831
C35   C     C_R   0.453375 0.228174 0.834415 -0.002218
C36   C     C_R   0.598987 0.814663 0.085680 -0.135212
C37   C     C_R   0.625386 0.735521 0.970895 -0.142382
C38   C     C_R   0.578805 0.612519 0.932955 -0.122077
Cu1   Cu    Cu3+1 0.529830 0.098270 0.475420 0.920386
Cu2   Cu    Cu3+1 0.470170 0.901730 0.524580 0.908516
H1    H     H_    0.076883 0.806992 0.351579 0.103034
H2    H     H_    0.424200 0.334396 0.561948 0.118497
H3    H     H_    0.272366 0.839661 0.687999 0.122292
H4    H     H_    0.963505 0.973768 0.312041 0.103194
H5    H     H_    0.318604 0.487952 0.649814 0.098483
H6    H     H_    0.205051 0.668728 0.743621 0.100114
H7    H     H_    0.633776 0.718681 0.392500 0.184037
H8    H     H_    0.123763 0.169440 0.459750 0.118980
H9    H     H_    0.923287 0.192130 0.647534 0.109999
H10   H     H_    0.036504 0.025322 0.687035 0.103549
H11   H     H_    0.876168 0.829617 0.539195 0.121839
H12   H     H_    0.575453 0.373914 0.808965 0.117034
H13   H     H_    0.326571 0.095899 0.885544 0.119000
H14   H     H_    0.244025 0.459596 0.216506 0.105161
H15   H     H_    0.254000 0.247019 0.078222 0.103096
H16   H     H_    0.643566 0.908261 0.113982 0.125008
H17   H     H_    0.604098 0.556724 0.842793 0.104078
H18   H     H_    0.685835 0.768970 0.911385 0.116249
H19   H     H_    0.315829 0.672882 0.274855 0.147372
H20   H     H_    0.730503 0.168860 0.309787 0.116777
H21   H     H_    0.749423 0.546879 0.296004 0.107613
H22   H     H_    0.787985 0.345603 0.262784 0.088330
N1    N     N_R   0.575030 0.246270 0.438190 -0.232979
N2    N     N_R   0.425760 0.754330 0.561190 -0.235442
O1    O     O_R   0.537510 0.972500 0.318130 -0.502775
O2    O     O_R   0.487140 0.806530 0.359650 -0.527446
O3    O     O_R   0.708330 0.082950 0.479220 -0.501923
O4    O     O_R   0.657960 0.916980 0.520740 -0.522330
O5    O     O_R   0.512860 0.193470 0.640350 -0.508919
O6    O     O_R   0.462490 0.027500 0.681870 -0.503812
O7    O     O_R   0.342040 0.083020 0.479260 -0.506606
O8    O     O_R   0.291670 0.917050 0.520780 -0.513767

loop_
_geom_bond_atom_site_label_1
_geom_bond_atom_site_label_2
_ccdc_geom_bond_type
C1    C11   S    
C7    C8    A    
C12   C23   S    
C37   C38   A    
Cu2   O6    S    
C23   C29   S    
C36   C37   A    
C17   H5    S    
C8    H19   S    
C5    C6    A    
C20   C25   A    
C18   C19   A    
C25   N1    A    
C10   H13   S    
C13   H22   S    
C23   C33   S    
C1    O1    A    
C10   C35   A    
C37   H18   S    
C12   C30   S    
C34   H15   S    
Cu2   O2    S    
C21   C22   A    
C12   C32   S    
C27   C30   S    
Cu1   O1    S    
C9    H12   S    
C17   C18   A    
C16   O6    A    
C3    C8    A    
Cu1   Cu2   S    
C4    O4    A    
C28   H4    S    
C6    C34   A    
C11   C36   A    
C26   N1    A    
C5    C9    A    
C29   C30   S    
C36   H16   S    
C38   H17   S    
C2    C38   A    
C23   H11   S    
C31   C32   S    
C19   N2    A    
C14   N2    A    
C1    O2    A    
Cu1   O5    S    
C13   C21   A    
C10   C34   A    
C28   C33   S    
C31   H8    S    
C22   C24   A    
C13   C26   A    
C2    C5    A    
C27   O7    A    
C15   C17   A    
C4    C33   S    
C28   C29   S    
Cu2   O8    S    
C29   H1    S    
C24   H7    S    
Cu1   O3    S    
C28   C31   S    
C16   O5    A    
Cu2   N2    S    
C25   H2    S    
C4    O3    A    
C12   H10   S    
C6    C7    A    
Cu1   N1    S    
C15   H6    S    
C32   C33   S    
C19   C24   A    
C16   C35   S    
C22   H21   S    
C30   C31   S    
C2    C3    A    
C18   C20   A    
C32   H9    S    
C3    C11   A    
C20   C21   A    
Cu2   O4    S    
C9    C35   A    
Cu1   O7    S    
C14   C15   A    
C7    H14   S    
C26   H20   S    
C27   O8    A    
C14   H3    S    
