data_mof_unit_60367.cif
_audit_creation_date              2012-12-10T18:16:16-0500
_audit_creation_method            fapswitch 2.2
_symmetry_space_group_name_H-M    P1
_symmetry_Int_Tables_number       1
_space_group_crystal_system       triclinic
_cell_length_a                    42.358143
_cell_length_b                    29.208642
_cell_length_c                    29.202782
_cell_angle_alpha                 89.999621
_cell_angle_beta                  133.824843
_cell_angle_gamma                 89.997743
_cell_volume                      26066.6243056

loop_
_atom_site_label
_atom_site_type_symbol
_atom_type_description
_atom_site_fract_x
_atom_site_fract_y
_atom_site_fract_z
_atom_type_partial_charge
C1    C     C_R   0.499982 0.586678 0.500002 0.909719
C2    C     C_1   0.834494 0.999944 0.336514 0.065692
C3    C     C_3   0.760796 0.962936 0.242162 0.646357
C4    C     C_1   0.372532 0.499833 0.373480 -0.158433
C5    C     C_1   0.872523 0.999973 0.373448 -0.158556
C6    C     C_1   0.121251 0.499971 0.122309 -0.194444
C7    C     C_1   0.621243 0.999991 0.122147 -0.194557
C8    C     C_3   0.261405 0.496990 0.308337 -0.317002
C9    C     C_3   0.761337 0.999682 0.308086 -0.317111
C10   C     C_3   0.288994 0.499589 0.292361 -0.038152
C11   C     C_3   0.788982 0.999930 0.292134 -0.038053
C12   C     C_1   0.159280 0.499888 0.161750 0.011251
C13   C     C_1   0.659263 0.999975 0.161435 0.011210
C14   C     C_1   0.499969 0.637261 0.499963 -0.209306
C15   C     C_1   0.499967 0.362739 0.499962 -0.209940
C16   C     C_1   0.999969 0.137261 0.499963 -0.209592
C17   C     C_1   0.999967 0.862739 0.499962 -0.209640
C18   C     C_1   0.499962 0.679399 0.499949 0.014404
C19   C     C_1   0.499958 0.320601 0.499946 0.013879
C20   C     C_1   0.999962 0.179399 0.499949 0.014162
C21   C     C_R   0.499981 0.413322 0.500001 0.909483
C22   C     C_1   0.999958 0.820601 0.499947 0.014135
C23   C     C_1   0.499957 0.729134 0.499947 0.015523
C24   C     C_1   0.499951 0.270866 0.499942 0.015108
C25   C     C_1   0.999956 0.229134 0.499947 0.015330
C26   C     C_1   0.999951 0.770866 0.499942 0.015312
C27   C     C_1   0.499955 0.771271 0.499951 0.013886
C28   C     C_1   0.499948 0.228729 0.499945 0.013581
C29   C     C_1   0.999955 0.271271 0.499951 0.013744
C30   C     C_1   0.999948 0.728729 0.499945 0.013732
C31   C     C_1   0.499954 0.821006 0.499962 0.010652
C32   C     C_R   0.999981 0.086678 0.500001 0.909605
C33   C     C_1   0.499947 0.178994 0.499954 0.010441
C34   C     C_1   0.999954 0.321006 0.499962 0.010553
C35   C     C_1   0.999947 0.678994 0.499954 0.010547
C36   C     C_1   0.499955 0.863144 0.499972 -0.207964
C37   C     C_1   0.499949 0.136856 0.499965 -0.208111
C38   C     C_1   0.999955 0.363144 0.499972 -0.208032
C39   C     C_1   0.999949 0.636856 0.499965 -0.208037
C40   C     C_R   0.417104 0.500053 0.417343 0.946777
C41   C     C_R   0.917101 0.000011 0.417338 0.946778
C42   C     C_1   0.635840 0.500001 0.635444 -0.216271
C43   C     C_R   0.999981 0.913322 0.500002 0.909611
C44   C     C_1   0.135840 0.000001 0.635444 -0.216271
C45   C     C_1   0.677113 0.500001 0.676691 0.020144
C46   C     C_1   0.177113 0.000001 0.676691 0.020143
C47   C     C_1   0.726259 0.500002 0.725906 0.007230
C48   C     C_1   0.226259 0.000002 0.725906 0.007229
C49   C     C_1   0.767533 0.500003 0.767272 0.007286
C50   C     C_1   0.267533 0.000003 0.767272 0.007285
C51   C     C_1   0.816679 0.500003 0.816542 0.020388
C52   C     C_1   0.316679 0.000003 0.816542 0.020387
C53   C     C_1   0.857953 0.500003 0.857919 -0.217029
C54   C     C_3   0.204801 0.499766 0.208080 0.015654
C55   C     C_1   0.357953 0.000003 0.857919 -0.217031
C56   C     C_R   0.994869 0.500000 0.081687 0.909092
C57   C     C_R   0.494869 1.000000 0.081686 0.908963
C58   C     C_R   0.076699 0.499997 0.076015 0.946446
C59   C     C_R   0.576705 0.999998 0.076064 0.946462
C60   C     C_R   0.992977 0.500000 0.906347 0.906111
C61   C     C_R   0.492977 0.000000 0.906348 0.906247
C62   C     C_R   0.907987 0.500001 0.908066 0.889381
C63   C     C_R   0.407987 0.000001 0.908066 0.889380
C64   C     C_R   0.585807 0.500000 0.585678 0.886831
C65   C     C_3   0.704789 0.999954 0.207723 0.015729
C66   C     C_R   0.085807 0.000000 0.585678 0.886828
C67   C     C_R   0.499087 0.000000 0.412895 0.896617
C68   C     C_R   0.999087 0.500000 0.412895 0.896620
C69   C     C_R   0.499958 0.913727 0.499985 0.896361
C70   C     C_R   0.499956 0.086273 0.499982 0.896322
C71   C     C_R   0.999958 0.413727 0.499985 0.896341
C72   C     C_R   0.999956 0.586273 0.499982 0.896341
C73   C     C_R   0.500759 0.000000 0.587049 0.896171
C74   C     C_R   0.000759 0.500000 0.587049 0.896167
C75   C     C_1   0.995633 0.500000 0.133021 -0.216867
C76   C     C_3   0.232193 0.502377 0.191713 -0.313992
C77   C     C_1   0.495633 1.000000 0.133020 -0.216864
C78   C     C_1   0.996282 0.499999 0.175802 0.009081
C79   C     C_1   0.496282 0.999999 0.175801 0.009059
C80   C     C_1   0.997040 0.499999 0.226283 0.011800
C81   C     C_1   0.497039 1.000000 0.226283 0.011784
C82   C     C_1   0.497653 1.000000 0.269028 0.011411
C83   C     C_1   0.997654 0.500000 0.269029 0.011422
C84   C     C_1   0.498314 1.000000 0.319413 0.009156
C85   C     C_1   0.998314 0.500000 0.319414 0.009166
C86   C     C_1   0.498767 1.000000 0.362001 -0.208748
C87   C     C_3   0.732233 0.000204 0.191369 -0.313968
C88   C     C_1   0.998767 0.500000 0.362001 -0.208738
C89   C     C_1   0.994022 0.500000 0.856795 -0.214215
C90   C     C_1   0.494022 0.000000 0.856796 -0.214233
C91   C     C_3   0.232533 0.536170 0.260032 -0.194449
C92   C     C_3   0.232393 0.460575 0.255277 -0.194795
C93   C     C_3   0.732439 0.037684 0.257590 -0.194686
C94   C     C_3   0.732415 0.961951 0.257120 -0.194633
C95   C     C_1   0.995241 0.500000 0.815881 0.011052
C96   C     C_1   0.495242 0.000000 0.815881 0.011067
C97   C     C_1   0.996861 0.500000 0.767772 0.013249
C98   C     C_1   0.334505 0.499662 0.336627 0.065730
C99   C     C_1   0.496861 0.000000 0.767772 0.013256
C100  C     C_1   0.498227 0.000000 0.727010 0.012552
C101  C     C_1   0.998227 0.500000 0.727010 0.012549
C102  C     C_1   0.499670 0.000000 0.678717 0.010206
C103  C     C_1   0.999671 0.500000 0.678717 0.010201
C104  C     C_1   0.500534 0.000000 0.637436 -0.208472
C105  C     C_1   0.000534 0.500000 0.637436 -0.208475
C106  C     C_3   0.260858 0.538016 0.245005 0.646266
C107  C     C_3   0.260726 0.463897 0.240345 0.646350
C108  C     C_3   0.760820 0.037192 0.242623 0.646275
F1    F     F_    0.277233 0.577522 0.241784 -0.642016
F2    F     F_    0.276964 0.427002 0.232328 -0.641693
F3    F     F_    0.777166 0.075590 0.237256 -0.641860
F4    F     F_    0.777117 0.924789 0.236322 -0.641833
H1    H     H_    0.219395 0.565936 0.266076 0.167838
H2    H     H_    0.219138 0.428752 0.257447 0.167979
H3    H     H_    0.719238 0.068440 0.261883 0.167919
H4    H     H_    0.719193 0.930998 0.261031 0.167910
H5    H     H_    0.219025 0.504570 0.143118 0.178564
H6    H     H_    0.719112 0.000417 0.142738 0.178592
H7    H     H_    0.274876 0.494806 0.357108 0.187181
H8    H     H_    0.774758 0.999470 0.356891 0.187202
O1    O     O_R   0.500400 0.563130 0.536080 -0.597378
O2    O     O_R   0.963990 0.500000 0.400890 -0.591901
O3    O     O_R   0.534410 0.000000 0.471310 -0.593602
O4    O     O_R   0.034410 0.500000 0.471310 -0.593600
O5    O     O_R   0.464750 0.936830 0.464780 -0.591933
O6    O     O_R   0.464750 0.063170 0.464780 -0.592067
O7    O     O_R   0.964750 0.436830 0.464780 -0.591993
O8    O     O_R   0.964750 0.563170 0.464780 -0.592004
O9    O     O_R   0.535170 0.936820 0.535200 -0.593237
O10   O     O_R   0.535170 0.063180 0.535200 -0.593195
O11   O     O_R   0.035170 0.436820 0.535200 -0.593219
O12   O     O_R   0.500400 0.436870 0.536080 -0.597614
O13   O     O_R   0.035170 0.563180 0.535200 -0.593213
O14   O     O_R   0.465520 0.000000 0.528690 -0.592933
O15   O     O_R   0.965520 0.500000 0.528690 -0.592935
O16   O     O_R   0.535930 0.000000 0.599110 -0.592053
O17   O     O_R   0.035930 0.500000 0.599110 -0.592054
O18   O     O_R   0.499540 0.563080 0.463930 -0.593739
O19   O     O_R   0.499540 0.436920 0.463930 -0.593483
O20   O     O_R   0.999540 0.063080 0.463930 -0.593620
O21   O     O_R   0.999540 0.936920 0.463930 -0.593570
O22   O     O_R   0.438030 0.500000 0.473700 -0.618190
O23   O     O_R   0.000400 0.063130 0.536080 -0.597495
O24   O     O_R   0.938030 0.000000 0.473700 -0.618204
O25   O     O_R   0.437170 0.500000 0.401550 -0.599047
O26   O     O_R   0.937170 0.000000 0.401550 -0.598999
O27   O     O_R   0.562760 0.500000 0.598450 -0.591973
O28   O     O_R   0.062760 0.000000 0.598450 -0.591977
O29   O     O_R   0.561900 0.500000 0.526300 -0.592480
O30   O     O_R   0.061900 0.000000 0.526300 -0.592479
O31   O     O_R   0.994600 0.535610 0.057840 -0.595694
O32   O     O_R   0.994600 0.464390 0.057840 -0.595818
O33   O     O_R   0.494600 0.035610 0.057840 -0.595783
O34   O     O_R   0.000400 0.936870 0.536080 -0.597519
O35   O     O_R   0.494600 0.964390 0.057840 -0.595800
O36   O     O_R   0.056200 0.535620 0.056290 -0.610571
O37   O     O_R   0.056200 0.464380 0.056290 -0.610875
O38   O     O_R   0.556200 0.035620 0.056290 -0.610690
O39   O     O_R   0.556200 0.964380 0.056290 -0.610716
O40   O     O_R   0.993060 0.535640 0.930020 -0.596026
O41   O     O_R   0.993060 0.464360 0.930020 -0.596014
O42   O     O_R   0.493060 0.035640 0.930020 -0.595995
O43   O     O_R   0.493060 0.964360 0.930020 -0.595961
O44   O     O_R   0.931470 0.535630 0.931560 -0.591268
O45   O     O_R   0.931470 0.464370 0.931560 -0.591290
O46   O     O_R   0.431470 0.035630 0.931560 -0.591285
O47   O     O_R   0.431470 0.964370 0.931560 -0.591272
O48   O     O_R   0.463990 0.000000 0.400890 -0.591904
Zn1   Zn    Zn3+2 0.500540 0.500000 0.548170 0.979522
Zn2   Zn    Zn3+2 0.952950 0.500000 0.452980 0.980767
Zn3   Zn    Zn3+2 0.546980 0.000000 0.547020 0.977875
Zn4   Zn    Zn3+2 0.046980 0.500000 0.547020 0.977880
Zn5   Zn    Zn3+2 0.000540 0.000000 0.548170 0.979486
Zn6   Zn    Zn3+2 0.499390 0.500000 0.451830 0.996497
Zn7   Zn    Zn3+2 0.999390 0.000000 0.451830 0.996547
Zn8   Zn    Zn3+2 0.993830 0.547580 0.993940 0.981438
Zn9   Zn    Zn3+2 0.993830 0.452420 0.993940 0.981038
Zn10  Zn    Zn3+2 0.493830 0.047580 0.993940 0.981237
Zn11  Zn    Zn3+2 0.493830 0.952420 0.993940 0.981239
Zn12  Zn    Zn3+2 0.452950 0.000000 0.452980 0.980761

loop_
_geom_bond_atom_site_label_1
_geom_bond_atom_site_label_2
_ccdc_geom_bond_type
C67   O48   A    
O1    Zn1   S    
O8    Zn2   S    
C4    C98   T    
O45   Zn9   S    
C6    C58   S    
C44   C66   S    
C68   O4    A    
C81   C82   T    
C47   C49   T    
C13   C65   S    
C60   C89   S    
C36   C69   S    
O7    Zn2   S    
C15   C19   T    
C57   O35   A    
C40   O25   A    
C72   O8    A    
O13   Zn4   S    
C84   C86   T    
C66   O30   A    
C40   O22   A    
O20   Zn7   S    
C93   C108  S    
C6    C12   T    
C59   O38   A    
C78   C80   S    
C20   C25   S    
C96   C99   S    
C70   O10   A    
O29   Zn6   S    
C93   H3    S    
O15   Zn2   S    
O32   Zn9   S    
C10   C98   S    
C14   C18   T    
O17   Zn4   S    
C38   C71   S    
C59   O39   A    
C73   C104  S    
C62   O44   A    
C87   C108  S    
C4    C40   S    
O35   Zn11  S    
O2    Zn2   S    
C55   C63   S    
O24   Zn5   S    
O18   Zn6   S    
C50   C52   S    
C39   C72   S    
O16   Zn3   S    
O6    Zn12  S    
O46   Zn10  S    
C23   C27   T    
C56   O32   A    
C43   O34   A    
C24   C28   T    
C3    F4    S    
C66   O28   A    
C52   C55   T    
C70   O6    A    
C63   O47   A    
O30   Zn7   S    
C69   O5    A    
C101  C103  S    
C56   C75   S    
C34   C38   T    
C37   C70   S    
C74   O15   A    
O40   Zn8   S    
C91   C106  S    
C71   O7    A    
C10   C107  S    
C80   C83   T    
C2    C11   S    
C7    C59   S    
C75   C78   T    
C44   C46   T    
C65   C87   S    
C63   O46   A    
C25   C29   T    
C74   O17   A    
C46   C48   S    
O11   Zn4   S    
C41   O26   A    
C3    C87   S    
C61   O42   A    
C60   O40   A    
C41   O24   A    
C68   O2    A    
C79   C81   S    
C94   H4    S    
C49   C51   S    
O48   Zn12  S    
C27   C31   S    
C29   C34   S    
C33   C37   T    
C91   H1    S    
C51   C53   T    
C42   C45   T    
C89   C95   T    
C35   C39   T    
C17   C43   S    
C21   O12   A    
C54   C92   S    
C57   C77   S    
C53   C62   S    
C92   C107  S    
C99   C100  T    
O4    Zn4   S    
C73   O16   A    
C7    C13   T    
O10   Zn3   S    
C16   C20   T    
C12   C54   S    
C97   C101  T    
O26   Zn7   S    
O5    Zn12  S    
C100  C102  S    
C60   O41   A    
C77   C79   T    
C103  C105  T    
C8    C91   S    
O37   Zn9   S    
C73   O14   A    
C56   O31   A    
C102  C104  T    
C9    C11   S    
C58   O36   A    
C87   H6    S    
O22   Zn1   S    
C8    C92   S    
C30   C35   S    
C8    C10   S    
C65   C94   S    
C83   C85   S    
C28   C33   S    
C26   C30   T    
C76   C107  S    
C82   C84   S    
C64   O27   A    
O43   Zn11  S    
C68   C88   S    
C107  F2    S    
C54   C76   S    
C10   C106  S    
C2    C5    T    
O12   Zn1   S    
O23   Zn5   S    
O41   Zn9   S    
C9    C93   S    
C61   C90   S    
C85   C88   T    
C5    C41   S    
O33   Zn10  S    
O36   Zn8   S    
C67   C86   S    
C76   C106  S    
O31   Zn8   S    
O34   Zn5   S    
C61   O43   A    
O9    Zn3   S    
C17   C22   T    
O39   Zn11  S    
C58   O37   A    
C67   O3    A    
C42   C64   S    
C95   C97   S    
C90   C96   T    
C16   C32   S    
O28   Zn5   S    
C108  F3    S    
C64   O29   A    
C19   C24   S    
O38   Zn10  S    
C54   C91   S    
O47   Zn11  S    
C74   C105  S    
C32   O23   A    
C72   O13   A    
C57   O33   A    
C18   C23   S    
C48   C50   T    
C65   C93   S    
O44   Zn8   S    
C3    C94   S    
C32   O20   A    
C76   H5    S    
C1    O1    A    
O42   Zn10  S    
C3    C11   S    
C71   O11   A    
C15   C21   S    
C62   O45   A    
C45   C47   S    
O25   Zn6   S    
C8    H7    S    
C69   O9    A    
C22   C26   S    
C11   C108  S    
O21   Zn7   S    
C9    H8    S    
C21   O19   A    
C31   C36   T    
O19   Zn6   S    
C1    C14   S    
O14   Zn12  S    
C92   H2    S    
C9    C94   S    
O3    Zn3   S    
C1    O18   A    
O27   Zn1   S    
C43   O21   A    
C106  F1    S    
