data_mof_unit_8281.cif
_audit_creation_date              2012-12-11T14:29:45-0500
_audit_creation_method            fapswitch 2.2
_symmetry_space_group_name_H-M    P1
_symmetry_Int_Tables_number       1
_space_group_crystal_system       triclinic
_cell_length_a                    6.937875
_cell_length_b                    14.733449
_cell_length_c                    16.271997
_cell_angle_alpha                 90.560844
_cell_angle_beta                  89.769657
_cell_angle_gamma                 90.180773
_cell_volume                      1663.20325425

loop_
_atom_site_label
_atom_site_type_symbol
_atom_type_description
_atom_site_fract_x
_atom_site_fract_y
_atom_site_fract_z
_atom_type_partial_charge
O1    O     O_R   0.494400 0.416610 0.413880 -0.543421
O2    O     O_R   0.823920 0.406790 0.585520 -0.540142
O3    O     O_R   0.994250 0.583390 0.586120 -0.535699
C1    C     C_R   0.654130 0.384903 0.613326 0.770980
O4    O     O_R   0.824110 0.405730 0.414490 -0.541190
O5    O     O_R   0.994440 0.582310 0.413870 -0.547102
C2    C     C_R   0.654936 0.383725 0.386300 0.741819
O6    O     O_R   0.494210 0.417690 0.586130 -0.546984
O7    O     O_3   0.660810 0.557940 0.500000 -0.370212
V1    V     V_3+5 0.935650 0.489250 0.500000 1.406874
O8    O     O_R   0.324160 0.593210 0.414480 -0.542367
C3    C     C_R   0.156445 0.613022 0.384887 0.675393
O9    O     O_R   0.323970 0.594270 0.585510 -0.538448
C4    C     C_R   0.155061 0.616333 0.613710 0.698119
V2    V     V_3+5 0.435660 0.510750 0.500000 1.405626
O10   O     O_3   0.160630 0.442060 0.500000 -0.373151
H1    H     H_    0.882998 0.902604 0.517502 0.110904
C5    C     C_R   0.286486 0.571315 0.775606 -0.148545
C6    C     C_R   0.347628 0.544983 0.852710 -0.167311
C7    C     C_R   0.330220 0.603744 0.919144 -0.184583
C8    C     C_R   0.252196 0.691049 0.909760 0.350241
C9    C     C_R   0.194766 0.721193 0.830100 0.040297
C10   C     C_R   0.209958 0.658822 0.762330 0.017320
C11   C     C_R   0.119467 0.810147 0.816348 -0.192443
C12   C     C_R   0.055591 0.834197 0.736533 0.039123
C13   C     C_R   0.067496 0.770693 0.670197 0.081279
C14   C     C_R   0.145196 0.683259 0.682935 -0.164967
C15   C     C_R   0.981612 0.921925 0.720840 -0.150794
C16   C     C_R   0.919311 0.945770 0.642735 -0.111589
C17   C     C_R   0.930574 0.883611 0.578220 -0.126657
C18   C     C_R   0.004497 0.797210 0.591328 -0.133499
H2    H     H_    0.299299 0.521500 0.726680 0.120700
H3    H     H_    0.406374 0.477738 0.861261 0.133005
H4    H     H_    0.375669 0.580430 0.978917 0.113899
H5    H     H_    0.971581 0.973451 0.768385 0.137361
H6    H     H_    0.862914 0.013085 0.632188 0.121384
H7    H     H_    0.012941 0.751933 0.538711 0.098334
C19   C     C_2   0.993078 0.714269 0.286280 -0.125889
C20   C     C_2   0.155415 0.671671 0.311040 0.050228
H8    H     H_    0.860101 0.703328 0.320277 0.098607
C21   C     C_2   0.977595 0.773096 0.212323 -0.108378
C22   C     C_2   0.123551 0.824437 0.183749 -0.290156
H9    H     H_    0.837192 0.777346 0.183363 0.132919
H10   H     H_    0.260506 0.826050 0.215392 0.166264
C23   C     C_2   0.785764 0.205697 0.778299 0.375398
C24   C     C_2   0.620198 0.181132 0.817352 -0.318381
H11   H     H_    0.484762 0.213147 0.802478 0.086361
C25   C     C_2   0.792002 0.277954 0.713683 -0.230335
C26   C     C_2   0.637133 0.315822 0.678289 -0.351672
H12   H     H_    0.933853 0.299839 0.693299 0.139332
H13   H     H_    0.492395 0.295579 0.695328 0.126535
C27   C     C_2   0.779115 0.209046 0.213821 -0.130558
C28   C     C_2   0.613969 0.181884 0.177383 -0.306307
H14   H     H_    0.914921 0.180369 0.192862 0.134534
H15   H     H_    0.476475 0.209872 0.196191 0.126204
C29   C     C_2   0.791714 0.277533 0.281751 -0.136713
C30   C     C_2   0.638372 0.315507 0.319498 -0.309706
H16   H     H_    0.935729 0.296627 0.301495 0.134660
H17   H     H_    0.493220 0.297079 0.301624 0.128404
O11   O     O_R   0.770210 0.079270 0.910680 -0.507270
O12   O     O_R   0.440150 0.091160 0.082270 -0.552376
O13   O     O_R   0.269970 0.914530 0.082860 -0.534731
C31   C     C_R   0.608754 0.113268 0.110486 0.723887
O14   O     O_R   0.440480 0.090100 0.911240 -0.549085
O15   O     O_R   0.270310 0.913460 0.910610 -0.523361
C32   C     C_R   0.610263 0.111815 0.883000 0.769792
O16   O     O_R   0.769870 0.080340 0.082930 -0.544799
O17   O     O_3   0.603660 0.938980 0.996790 -0.370137
V3    V     V_3+5 0.328750 0.007610 0.996740 1.459299
O18   O     O_R   0.940600 0.902510 0.911180 -0.542979
C33   C     C_R   0.109663 0.879492 0.883685 0.812674
O19   O     O_R   0.940270 0.903570 0.082200 -0.542712
C34   C     C_R   0.108654 0.884358 0.111953 0.769672
V4    V     V_3+5 0.828770 0.986010 0.996670 1.474273
O20   O     O_3   0.103730 0.054750 0.996710 -0.371117
N1    N     N_3   0.328502 0.676364 0.262490 -0.669909
H18   H     H_    0.438540 0.703100 0.299268 0.222938
H19   H     H_    0.367114 0.610308 0.245266 0.225623
O21   O     O_3   0.956147 0.163439 0.799607 -0.639906
H20   H     H_    0.062433 0.187149 0.764986 0.268861
O22   O     O_3   0.226753 0.745575 0.978379 -0.656541
H21   H     H_    0.273739 0.713947 0.027933 0.283002

loop_
_geom_bond_atom_site_label_1
_geom_bond_atom_site_label_2
_ccdc_geom_bond_type
C21   C22   D    
C6    C7    A    
C1    O6    A    
O22   H21   S    
C23   C24   D    
C12   C15   A    
C16   H6    S    
C13   C14   A    
C15   C16   A    
N1    H19   S    
C24   C32   S    
O5    C3    A    
C19   C20   D    
C30   H17   S    
O17   V4    S    
V2    O10   S    
C29   C30   D    
C5    C6    A    
O12   C31   A    
O8    V2    S    
C15   H5    S    
O17   V3    S    
C26   H13   S    
O18   V4    S    
O13   C34   A    
O18   C33   A    
O1    V2    S    
C10   C14   A    
C4    C14   S    
O7    V1    S    
C7    H4    S    
C25   H12   S    
O11   C32   A    
C13   C18   A    
O9    C4    A    
H1    C17   S    
C21   H9    S    
C20   N1    S    
C22   H10   S    
C27   H14   S    
C28   H15   S    
C31   O16   A    
V4    O20   S    
C5    C10   A    
C11   C12   A    
C19   C21   S    
O19   V4    S    
C6    H3    S    
O4    C2    A    
C12   C13   A    
O15   C33   A    
C18   H7    S    
O13   V3    S    
O14   C32   A    
O2    C1    A    
C16   C17   A    
C23   O21   S    
O16   V4    S    
O14   V3    S    
N1    H18   S    
O3    C4    A    
C25   C26   D    
C8    O22   S    
O6    V2    S    
O9    V2    S    
C9    C11   A    
C5    H2    S    
O2    V1    S    
C27   C28   D    
C23   C25   S    
O12   V3    S    
C24   H11   S    
C22   C34   S    
O1    C2    A    
O19   C34   A    
O5    V1    S    
O8    C3    A    
C1    C26   S    
C3    C20   S    
O7    V2    S    
O4    V1    S    
O3    V1    S    
V1    O10   S    
C19   H8    S    
C28   C31   S    
C17   C18   A    
O15   V3    S    
O11   V4    S    
C29   H16   S    
V3    O20   S    
O21   H20   S    
C7    C8    A    
C9    C10   A    
C8    C9    A    
C2    C30   S    
C27   C29   S    
C11   C33   S    
