data_mof_unit_15430.cif
_audit_creation_date              2012-12-10T20:04:52-0500
_audit_creation_method            fapswitch 2.2
_symmetry_space_group_name_H-M    P1
_symmetry_Int_Tables_number       1
_space_group_crystal_system       triclinic
_cell_length_a                    10.815737
_cell_length_b                    18.904668
_cell_length_c                    18.609058
_cell_angle_alpha                 91.711002
_cell_angle_beta                  105.197645
_cell_angle_gamma                 92.132105
_cell_volume                      3666.24693239

loop_
_atom_site_label
_atom_site_type_symbol
_atom_type_description
_atom_site_fract_x
_atom_site_fract_y
_atom_site_fract_z
_atom_type_partial_charge
C1    C     C_R   0.501250 0.364408 0.499394 0.969767
C2    C     C_R   0.651962 0.929947 0.534654 -0.177382
C3    C     C_R   0.597892 0.539710 0.737368 0.319084
C4    C     C_R   0.397681 0.471481 0.255538 0.327824
C5    C     C_R   0.607580 0.547722 0.814205 0.292737
C6    C     C_R   0.397376 0.473262 0.179796 0.354253
C7    C     C_R   0.531149 0.503585 0.847722 -0.038756
C8    C     C_R   0.507897 0.497599 0.160209 -0.106982
C9    C     C_R   0.433076 0.460182 0.797457 0.237409
C10   C     C_R   0.615193 0.522335 0.217087 0.212688
C11   C     C_R   0.416669 0.460781 0.718107 0.378939
C12   C     C_R   0.497425 0.635382 0.500741 0.946100
C13   C     C_R   0.606437 0.527468 0.291893 0.425105
C14   C     C_R   0.532303 0.434976 0.966007 0.342283
C15   C     C_R   0.536185 0.562476 0.048511 0.306039
C16   C     C_R   0.258536 0.501212 0.467876 0.776320
C17   C     C_R   0.741315 0.502024 0.531839 0.833584
C18   C     C_R   0.519165 0.434115 0.040502 0.332645
C19   C     C_R   0.576469 0.561238 0.982628 0.346723
C20   C     C_R   0.512903 0.498093 0.080244 -0.094712
C21   C     C_R   0.549204 0.500377 0.932907 -0.083934
C22   C     C_2   0.119277 0.501382 0.446459 0.107175
C23   C     C_R   0.513521 0.713158 0.507174 -0.389444
C24   C     C_2   0.878810 0.516408 0.551090 0.184951
C25   C     C_2   0.062529 0.525279 0.497837 0.339650
C26   C     C_2   0.941142 0.490598 0.503433 0.409175
C27   C     C_R   0.484867 0.755478 0.444423 0.375093
C28   C     C_R   0.519011 0.250880 0.566776 0.303826
C29   C     C_R   0.519338 0.829035 0.455396 0.263919
C30   C     C_R   0.529015 0.177117 0.566321 0.265466
C31   C     C_R   0.605148 0.854627 0.524108 -0.144319
C32   C     C_R   0.580987 0.144120 0.512513 -0.116137
C33   C     C_R   0.634926 0.809868 0.584583 0.419347
C34   C     C_R   0.513307 0.286676 0.500484 -0.405922
C35   C     C_R   0.553158 0.175463 0.442026 0.388713
C36   C     C_R   0.566769 0.745056 0.578419 0.240459
C37   C     C_R   0.518906 0.246506 0.436133 0.375767
C38   C     C_3   0.654758 0.666141 0.836578 0.201728
C39   C     C_3   0.756734 0.722931 0.873611 -0.764370
C40   C     C_3   0.211177 0.498276 0.096891 0.121563
C41   C     C_3   0.107718 0.468508 0.029635 -0.774898
C42   C     C_3   0.203723 0.433250 0.663971 0.114230
C43   C     C_3   0.111948 0.374267 0.621303 -0.812552
C44   C     C_3   0.713908 0.629590 0.346033 0.050876
C45   C     C_R   0.635443 0.971448 0.595415 0.458887
C46   C     C_3   0.829049 0.659604 0.406439 -0.761435
C47   C     C_3   0.638506 0.351166 0.109129 0.070238
C48   C     C_3   0.633014 0.290621 0.160359 -0.753615
C49   C     C_3   0.792271 0.580932 0.019422 0.205954
C50   C     C_3   0.900906 0.637481 0.036289 -0.806688
C51   C     C_3   0.431034 0.748357 0.313690 0.233458
C52   C     C_3   0.381796 0.691703 0.251813 -0.921033
C53   C     C_3   0.628748 0.280562 0.687101 0.102962
C54   C     C_3   0.636943 0.333277 0.751525 -0.702769
C55   C     C_3   0.410550 0.727416 0.637589 0.166273
C56   C     C_R   0.701334 0.038629 0.476562 0.383757
C57   C     C_3   0.378962 0.704957 0.708653 -0.847393
C58   C     C_3   0.362224 0.260472 0.329585 0.113766
C59   C     C_3   0.343949 0.266008 0.246090 -0.693940
C60   C     C_3   0.465902 0.945604 0.642434 0.125367
C61   C     C_3   0.429500 0.924991 0.712842 -0.764213
C62   C     C_3   0.764699 0.046954 0.364358 0.251163
C63   C     C_3   0.787736 0.103704 0.312279 -0.820874
C64   C     C_R   0.660619 0.043728 0.597128 0.379270
C65   C     C_R   0.704777 0.963189 0.480971 0.263197
C66   C     C_R   0.650573 0.075983 0.528720 -0.208368
H1    H     H_    0.956928 0.399517 0.457069 0.345675
H2    H     H_    0.047670 0.426777 0.046887 0.254054
H3    H     H_    0.045874 0.511406 0.003932 0.200078
H4    H     H_    0.152554 0.445402 0.987537 0.275831
H5    H     H_    0.325145 0.375156 0.793822 0.367820
H6    H     H_    0.799770 0.544571 0.243599 0.385893
H7    H     H_    0.186267 0.482696 0.633706 0.219802
H8    H     H_    0.181340 0.442637 0.718266 0.167771
H9    H     H_    0.129615 0.324296 0.651496 0.263760
H10   H     H_    0.011315 0.388207 0.616163 0.211931
H11   H     H_    0.126719 0.365873 0.564889 0.245159
H12   H     H_    0.178893 0.608879 0.527656 0.313293
H13   H     H_    0.626847 0.650398 0.357922 0.171235
H14   H     H_    0.722267 0.648799 0.291460 0.163909
H15   H     H_    0.918822 0.639331 0.397007 0.269830
H16   H     H_    0.833463 0.718337 0.405367 0.200747
H17   H     H_    0.820407 0.644062 0.462045 0.251933
H18   H     H_    0.512292 0.331996 0.951913 0.371389
H19   H     H_    0.491115 0.623701 0.122736 0.318391
H20   H     H_    0.697755 0.395732 0.143581 0.178013
H21   H     H_    0.686629 0.333072 0.066288 0.151701
H22   H     H_    0.572175 0.245497 0.128651 0.255299
H23   H     H_    0.566652 0.675279 0.855193 0.142343
H24   H     H_    0.731151 0.272527 0.184737 0.212972
H25   H     H_    0.592576 0.308839 0.206343 0.270011
H26   H     H_    0.816299 0.537522 0.984396 0.144303
H27   H     H_    0.788767 0.559137 0.073835 0.171143
H28   H     H_    0.871744 0.685891 0.061635 0.271634
H29   H     H_    0.986426 0.617420 0.076188 0.194176
H30   H     H_    0.928217 0.650425 0.984650 0.256528
H31   H     H_    0.873300 0.581370 0.633122 0.361218
H32   H     H_    0.105785 0.451286 0.351548 0.366877
H33   H     H_    0.536002 0.758334 0.321326 0.119612
H34   H     H_    0.634185 0.674147 0.775916 0.192648
H35   H     H_    0.379847 0.796951 0.294526 0.213823
H36   H     H_    0.276055 0.683732 0.240427 0.271553
H37   H     H_    0.405374 0.708568 0.200146 0.220143
H38   H     H_    0.426135 0.640675 0.267979 0.236153
H39   H     H_    0.713983 0.291246 0.665139 0.124421
H40   H     H_    0.633307 0.226677 0.709662 0.177953
H41   H     H_    0.722821 0.323994 0.797633 0.205533
H42   H     H_    0.646056 0.387886 0.732916 0.245074
H43   H     H_    0.550171 0.326999 0.772434 0.278691
H44   H     H_    0.461390 0.922047 0.422878 0.331374
H45   H     H_    0.851077 0.709562 0.865010 0.259459
H46   H     H_    0.430717 0.166633 0.640054 0.368018
H47   H     H_    0.738959 0.792109 0.684484 0.362772
H48   H     H_    0.508457 0.088486 0.382813 0.317422
H49   H     H_    0.346572 0.695134 0.590597 0.157000
H50   H     H_    0.387196 0.784000 0.629802 0.130535
H51   H     H_    0.433705 0.739641 0.756391 0.228426
H52   H     H_    0.275024 0.710287 0.703161 0.245016
H53   H     H_    0.401813 0.648770 0.718792 0.234635
H54   H     H_    0.301354 0.298958 0.348831 0.126090
H55   H     H_    0.327843 0.205968 0.338942 0.139666
H56   H     H_    0.730068 0.774676 0.848614 0.209870
H57   H     H_    0.397182 0.224274 0.225423 0.247895
H58   H     H_    0.240534 0.258843 0.216619 0.211916
H59   H     H_    0.380349 0.318532 0.233582 0.281102
H60   H     H_    0.415387 0.908100 0.595864 0.101362
H61   H     H_    0.432747 0.999947 0.629220 0.189651
H62   H     H_    0.471150 0.964992 0.758544 0.269560
H63   H     H_    0.323511 0.922357 0.702453 0.204811
H64   H     H_    0.466722 0.872530 0.730337 0.257623
H65   H     H_    0.672435 0.017413 0.336993 0.167468
H66   H     H_    0.846606 0.011619 0.372463 0.189876
H67   H     H_    0.763305 0.728812 0.933901 0.272954
H68   H     H_    0.879222 0.134245 0.337960 0.254352
H69   H     H_    0.793740 0.078408 0.258741 0.199515
H70   H     H_    0.708273 0.140684 0.300542 0.304077
H71   H     H_    0.735087 0.126466 0.658736 0.328337
H72   H     H_    0.770098 0.875080 0.451504 0.353638
H73   H     H_    0.657145 0.593189 0.666494 0.386986
H74   H     H_    0.325750 0.418928 0.321752 0.365287
H75   H     H_    0.263386 0.543115 0.078192 0.114184
H76   H     H_    0.164453 0.518602 0.139566 0.163154
N1    N     N_R   0.500020 0.499980 0.689440 -0.193466
N2    N     N_R   0.499980 0.500020 0.310560 -0.209366
O1    O     O_R   0.500000 0.398180 0.560840 -0.514755
O2    O     O_3   0.119893 0.579729 0.548810 -0.741235
O3    O     O_3   0.698230 0.597267 0.855081 -0.534017
O4    O     O_3   0.293579 0.443862 0.125771 -0.527229
O5    O     O_3   0.352451 0.418266 0.826615 -0.722065
O6    O     O_3   0.727349 0.540240 0.198133 -0.762246
O7    O     O_3   0.330655 0.413257 0.670710 -0.553861
O8    O     O_3   0.710336 0.554928 0.347094 -0.538247
O9    O     O_3   0.540267 0.372723 0.926866 -0.732248
O10   O     O_3   0.542418 0.627274 0.085987 -0.696104
O11   O     O_3   0.512380 0.370679 0.074811 -0.569983
O12   O     O_R   0.500000 0.601820 0.439160 -0.584179
O13   O     O_3   0.674227 0.610020 0.981900 -0.532621
O14   O     O_3   0.938500 0.563504 0.609292 -0.730341
O15   O     O_3   0.047193 0.470936 0.379162 -0.736944
O16   O     O_3   0.401224 0.725903 0.379267 -0.587071
O17   O     O_3   0.512227 0.287254 0.631487 -0.549354
O18   O     O_3   0.464683 0.874338 0.400272 -0.771298
O19   O     O_3   0.481039 0.136777 0.614531 -0.746559
O20   O     O_3   0.725811 0.831430 0.649557 -0.686277
O21   O     O_3   0.541971 0.136799 0.376622 -0.730517
O22   O     O_3   0.541710 0.717433 0.641611 -0.618795
O23   O     O_R   0.499950 0.398180 0.439200 -0.594742
O24   O     O_3   0.492720 0.275956 0.366919 -0.548563
O25   O     O_3   0.599974 0.942331 0.654710 -0.508939
O26   O     O_3   0.762683 0.079443 0.433374 -0.569918
O27   O     O_3   0.692656 0.080525 0.665097 -0.672398
O28   O     O_3   0.754931 0.923367 0.432830 -0.783076
O29   O     O_3   0.695736 0.570900 0.713387 -0.723023
O30   O     O_3   0.293798 0.439132 0.272456 -0.743209
O31   O     O_R   0.500050 0.601820 0.560800 -0.618778
O32   O     O_R   0.317830 0.500010 0.538110 -0.585041
O33   O     O_R   0.682170 0.499990 0.461890 -0.500631
O34   O     O_R   0.317770 0.500000 0.416470 -0.613635
O35   O     O_R   0.682230 0.500000 0.583530 -0.628412
O36   O     O_3   0.887106 0.431395 0.458849 -0.729461
Zn1   Zn    Zn3+2 0.500040 0.500000 0.581220 1.006085
Zn2   Zn    Zn3+2 0.499960 0.500000 0.418780 1.020169

loop_
_geom_bond_atom_site_label_1
_geom_bond_atom_site_label_2
_ccdc_geom_bond_type
C19   C21   A    
C52   H37   S    
C5    O3    S    
C40   H76   S    
C27   C29   A    
C34   C37   A    
C14   C18   A    
C1    O1    A    
C54   H42   S    
C2    C65   A    
C50   H30   S    
H44   O18   S    
C53   C54   S    
C15   C19   A    
C12   C23   S    
C52   H36   S    
C44   O8    S    
C39   H56   S    
C47   O11   S    
C54   H41   S    
C60   O25   S    
N1    Zn1   S    
C14   C21   A    
C41   H3    S    
C35   C37   A    
C24   C26   D    
H1    O36   S    
C38   C39   S    
C8    C10   A    
C24   O14   S    
C50   H29   S    
O23   Zn2   S    
C55   H50   S    
C1    O23   A    
O33   Zn2   S    
O1    Zn1   S    
C51   O16   S    
C59   H58   S    
C33   C36   A    
C38   O3    S    
C27   O16   S    
C13   N2    A    
C15   O10   S    
C46   H16   S    
C53   H40   S    
C3    O29   S    
C44   C46   S    
C42   H7    S    
C22   C25   D    
C28   O17   S    
C48   H22   S    
C25   O2    S    
C23   C27   A    
C37   O24   S    
C58   O24   S    
C61   H63   S    
O31   Zn1   S    
C17   O35   A    
C39   H45   S    
C28   C34   A    
C4    O30   S    
C40   H75   S    
C43   H9    S    
C41   H4    S    
C49   O13   S    
C15   C20   A    
C30   O19   S    
C12   O12   A    
C29   O18   S    
C58   H54   S    
C16   O34   A    
C1    C34   S    
C41   H2    S    
C60   H61   S    
C2    C45   A    
C59   H57   S    
O32   Zn1   S    
C62   O26   S    
N2    Zn2   S    
C42   H8    S    
C17   C24   S    
C31   C33   A    
C40   O4    S    
C65   O28   S    
H72   O28   S    
C51   C52   S    
C19   O13   S    
C32   C35   A    
C62   H66   S    
C44   H14   S    
C33   O20   S    
C3    N1    A    
C4    C6    A    
C5    C7    A    
O12   Zn2   S    
C50   H28   S    
C6    C8    A    
C25   C26   S    
C7    C21   S    
C48   H25   S    
C54   H43   S    
C60   C61   S    
C63   H69   S    
C63   H68   S    
C62   C63   S    
C46   H15   S    
C6    O4    S    
H18   O9    S    
C47   C48   S    
C38   H23   S    
C9    O5    S    
C36   O22   S    
C8    C20   S    
C42   O7    S    
C9    C11   A    
O34   Zn2   S    
C61   H64   S    
C12   O31   A    
C11   O7    S    
C40   C41   S    
C49   C50   S    
H6    O6    S    
C55   C57   S    
C14   O9    S    
H73   O29   S    
C51   H35   S    
C42   C43   S    
C49   H26   S    
C51   H33   S    
H48   O21   S    
C32   C66   S    
C39   H67   S    
C17   O33   A    
C43   H10   S    
C7    C9    A    
H46   O19   S    
C52   H38   S    
C58   H55   S    
C16   C22   S    
C56   O26   S    
C62   H65   S    
C44   H13   S    
C13   O8    S    
C3    C5    A    
C10   C13   A    
C45   O25   S    
C4    N2    A    
C26   O36   S    
C43   H11   S    
C45   C64   A    
C57   H53   S    
H31   O14   S    
C64   O27   S    
C60   H60   S    
C47   H20   S    
C58   C59   S    
C29   C31   A    
C59   H59   S    
C10   O6    S    
H47   O20   S    
C30   C32   A    
C38   H34   S    
C53   O17   S    
H5    O5    S    
C55   H49   S    
C56   C66   A    
C28   C30   A    
C35   O21   S    
C61   H62   S    
C18   C20   A    
H19   O10   S    
C57   H51   S    
H71   O27   S    
C16   O32   A    
H12   O2    S    
C46   H17   S    
C53   H39   S    
H32   O15   S    
H74   O30   S    
C23   C36   A    
C22   O15   S    
C2    C31   S    
C63   H70   S    
C48   H24   S    
C55   O22   S    
C49   H27   S    
C11   N1    A    
C18   O11   S    
C56   C65   A    
C64   C66   A    
C57   H52   S    
O35   Zn1   S    
C47   H21   S    
