data_mof_unit_48400.cif
_audit_creation_date              2013-03-05T16:00:55-0500
_audit_creation_method            fapswitch 2.2
_symmetry_space_group_name_H-M    P1
_symmetry_Int_Tables_number       1
_space_group_crystal_system       triclinic
_cell_length_a                    20.530702
_cell_length_b                    21.954942
_cell_length_c                    14.229224
_cell_angle_alpha                 90.00689
_cell_angle_beta                  89.993649
_cell_angle_gamma                 90.010761
_cell_volume                      6413.82780711

loop_
_atom_site_label
_atom_site_type_symbol
_atom_site_description
_atom_site_fract_x
_atom_site_fract_y
_atom_site_fract_z
_atom_type_partial_charge
O1    O     O_R   0.066090 0.433930 0.580280 -0.631715
O2    O     O_R   0.933910 0.566070 0.419720 -0.632024
O3    O     O_R   0.933910 0.566070 0.580280 -0.631517
O4    O     O_R   0.066090 0.433930 0.419720 -0.631785
O5    O     O_R   0.933910 0.433930 0.419720 -0.632429
O6    O     O_R   0.066090 0.566070 0.580280 -0.632237
O7    O     O_R   0.066090 0.566070 0.419720 -0.632597
O8    O     O_R   0.933910 0.433930 0.580280 -0.632325
O9    O     O_R   0.566090 0.933930 0.580280 -0.631988
O10   O     O_R   0.433910 0.066070 0.419720 -0.631750
O11   O     O_R   0.433910 0.066070 0.580280 -0.631819
O12   O     O_R   0.566090 0.933930 0.419720 -0.631486
O13   O     O_R   0.433910 0.933930 0.419720 -0.632251
O14   O     O_R   0.566090 0.066070 0.580280 -0.632514
O15   O     O_R   0.566090 0.066070 0.419720 -0.632409
O16   O     O_R   0.433910 0.933930 0.580280 -0.632609
C1    C     C_R   0.086620 0.413466 0.499996 0.880592
C2    C     C_R   0.913430 0.586575 0.500007 0.880550
C3    C     C_R   0.912870 0.413914 0.499999 0.879905
C4    C     C_R   0.087127 0.586089 0.499997 0.879806
C5    C     C_R   0.586552 0.913409 0.499992 0.880592
C6    C     C_R   0.413492 0.086630 0.500005 0.880589
C7    C     C_R   0.412873 0.913912 0.500002 0.879860
C8    C     C_R   0.587124 0.086091 0.500001 0.879785
Zn1   Zn    Zn3+2 1.000000 0.500000 0.607200 0.937248
Zn2   Zn    Zn3+2 0.000000 0.500000 0.392800 0.936806
Zn3   Zn    Zn3+2 0.500000 0.000000 0.607200 0.936753
Zn4   Zn    Zn3+2 0.500000 0.000000 0.392800 0.937194
C9    C     C_R   0.159769 0.655259 0.415009 -0.235546
C10   C     C_R   0.839954 0.344980 0.415033 -0.235488
C11   C     C_R   0.845433 0.659775 0.415174 -0.235334
C12   C     C_R   0.156215 0.341619 0.415066 -0.235285
C13   C     C_R   0.659991 0.155068 0.584966 -0.235484
C14   C     C_R   0.340231 0.844741 0.584985 -0.235571
C15   C     C_R   0.344960 0.159369 0.584937 -0.235212
C16   C     C_R   0.654391 0.840075 0.584814 -0.235334
C17   C     C_R   0.136612 0.632790 0.499978 -0.083032
C18   C     C_R   0.863371 0.367226 0.499995 -0.083090
C19   C     C_R   0.866303 0.635334 0.500041 -0.081667
C20   C     C_R   0.134015 0.364930 0.499999 -0.081748
C21   C     C_R   0.636594 0.132806 0.500005 -0.083038
C22   C     C_R   0.363388 0.867211 0.500017 -0.083091
C23   C     C_R   0.366722 0.135689 0.500004 -0.081613
C24   C     C_R   0.633585 0.864571 0.499952 -0.081651
C25   C     C_R   0.160415 0.654700 0.584921 -0.235399
C26   C     C_R   0.839807 0.345110 0.584950 -0.235481
C27   C     C_R   0.842667 0.657386 0.584970 -0.235057
C28   C     C_R   0.156693 0.342065 0.584945 -0.235200
C29   C     C_R   0.660137 0.154939 0.415049 -0.235474
C30   C     C_R   0.339585 0.845302 0.415073 -0.235410
C31   C     C_R   0.344477 0.158925 0.415055 -0.235144
C32   C     C_R   0.657155 0.842463 0.415018 -0.235038
C33   C     C_R   0.206787 0.700918 0.586743 0.074044
C34   C     C_R   0.793425 0.298901 0.586777 0.074010
C35   C     C_R   0.796849 0.704060 0.586872 0.073590
C36   C     C_R   0.202762 0.295603 0.586830 0.073438
C37   C     C_R   0.706492 0.201172 0.413220 0.073997
C38   C     C_R   0.293213 0.799083 0.413249 0.074045
C39   C     C_R   0.299068 0.205947 0.413192 0.073513
C40   C     C_R   0.702880 0.795710 0.413113 0.073595
C41   C     C_R   0.227956 0.725930 0.499982 -0.034351
C42   C     C_R   0.772000 0.274109 0.499996 -0.034348
C43   C     C_R   0.773684 0.727352 0.500030 -0.033700
C44   C     C_R   0.227142 0.273357 0.500003 -0.033655
C45   C     C_R   0.727911 0.225968 0.500003 -0.034341
C46   C     C_R   0.272044 0.774071 0.500010 -0.034342
C47   C     C_R   0.274794 0.228305 0.499993 -0.033712
C48   C     C_R   0.726029 0.772402 0.499950 -0.033708
C49   C     C_R   0.206131 0.701485 0.413175 0.073940
C50   C     C_R   0.793574 0.298770 0.413205 0.073988
C51   C     C_R   0.799688 0.706520 0.413351 0.073364
C52   C     C_R   0.202265 0.295139 0.413201 0.073440
C53   C     C_R   0.706343 0.201303 0.586795 0.073976
C54   C     C_R   0.293869 0.798516 0.586818 0.073947
C55   C     C_R   0.299566 0.206410 0.586770 0.073511
C56   C     C_R   0.700041 0.793250 0.586626 0.073382
C57   C     C_R   0.231110 0.723062 0.673430 0.185890
C58   C     C_R   0.769348 0.276549 0.673478 0.185812
C59   C     C_R   0.773420 0.726933 0.673647 0.183385
C60   C     C_R   0.225188 0.271868 0.673601 0.183116
C61   C     C_R   0.730552 0.223540 0.326518 0.185780
C62   C     C_R   0.268892 0.776939 0.326562 0.185858
C63   C     C_R   0.277061 0.230025 0.326454 0.183062
C64   C     C_R   0.726249 0.772788 0.326339 0.183384
C65   C     C_R   0.769646 0.276285 0.326499 0.185724
C66   C     C_R   0.229797 0.724194 0.326458 0.185643
C67   C     C_R   0.224184 0.270926 0.326460 0.183013
C68   C     C_R   0.779124 0.731888 0.326734 0.182742
C69   C     C_R   0.270204 0.775806 0.673535 0.185612
C70   C     C_R   0.730253 0.223804 0.673503 0.185693
C71   C     C_R   0.720546 0.767834 0.673235 0.182739
C72   C     C_R   0.278064 0.230965 0.673469 0.182965
H1    H     H_    0.139582 0.637646 0.350327 0.182246
H2    H     H_    0.859946 0.362761 0.350335 0.182209
H3    H     H_    0.864087 0.640780 0.350478 0.181273
H4    H     H_    0.138338 0.361293 0.350418 0.180996
H5    H     H_    0.640009 0.137276 0.649663 0.182211
H6    H     H_    0.360418 0.862354 0.649668 0.182258
H7    H     H_    0.362525 0.139486 0.649619 0.180975
H8    H     H_    0.635780 0.859100 0.649517 0.181255
H9    H     H_    0.140743 0.636638 0.649637 0.182125
H10   H     H_    0.859683 0.362993 0.649656 0.182179
H11   H     H_    0.859131 0.636503 0.649492 0.180524
H12   H     H_    0.139192 0.362086 0.649563 0.180889
H13   H     H_    0.640272 0.137044 0.350345 0.182183
H14   H     H_    0.359255 0.863367 0.350357 0.182138
H15   H     H_    0.361662 0.138693 0.350407 0.180874
H16   H     H_    0.640733 0.863374 0.350494 0.180511
C73   C     C_R   0.941734 0.501043 0.799136 0.239179
C74   C     C_R   0.058266 0.498929 0.200868 0.238474
C75   C     C_R   0.058267 0.498945 0.799117 0.238886
C76   C     C_R   0.941734 0.501088 0.200888 0.238098
C77   C     C_R   0.441736 0.001158 0.799132 0.238339
C78   C     C_R   0.558265 0.998880 0.200863 0.239150
C79   C     C_R   0.558264 0.998836 0.799112 0.238071
C80   C     C_R   0.441736 0.001142 0.200883 0.238747
N1    N     N_R   1.000000 0.500000 0.750030 -0.109663
N2    N     N_R   1.000000 0.500000 0.249970 -0.109724
N3    N     N_R   0.500000 0.000000 0.750030 -0.109727
N4    N     N_R   0.500000 0.000000 0.249970 -0.109666
C81   C     C_R   0.058971 0.498487 0.899400 0.018037
C82   C     C_R   0.941030 0.501535 0.100605 0.018054
C83   C     C_R   0.941029 0.501506 0.899420 0.018071
C84   C     C_R   0.058971 0.498479 0.100586 0.018093
C85   C     C_R   0.558967 0.998355 0.899395 0.018056
C86   C     C_R   0.441033 0.001638 0.100600 0.018059
C87   C     C_R   0.441033 0.001645 0.899414 0.018114
C88   C     C_R   0.558967 0.998384 0.100580 0.018074
C89   C     C_R   0.000000 0.500000 0.949589 0.023741
C90   C     C_R   0.000000 0.500003 0.050416 0.024033
C91   C     C_R   0.500000 0.000003 0.949584 0.024052
C92   C     C_R   0.500000 0.000006 0.050411 0.023762
C93   C     C_R   0.117543 0.496648 0.951111 -0.196651
C94   C     C_R   0.882458 0.503378 0.048895 -0.197020
C95   C     C_R   0.882458 0.503348 0.951150 -0.196533
C96   C     C_R   0.117543 0.496640 0.048857 -0.196835
C97   C     C_R   0.617533 0.996376 0.951104 -0.197037
C98   C     C_R   0.382466 0.003626 0.048889 -0.196753
C99   C     C_R   0.382467 0.003633 0.951143 -0.196931
C100  C     C_R   0.617534 0.996406 0.048850 -0.196551
H17   H     H_    0.164641 0.495121 0.917289 0.154785
H18   H     H_    0.835362 0.504931 0.082720 0.154816
H19   H     H_    0.835359 0.504863 0.917344 0.154765
H20   H     H_    0.164640 0.495106 0.082666 0.154771
H21   H     H_    0.664624 0.994710 0.917278 0.154806
H22   H     H_    0.335374 0.005278 0.082713 0.154787
H23   H     H_    0.335375 0.005293 0.917332 0.154774
H24   H     H_    0.664628 0.994778 0.082658 0.154754
C101  C     C_3   0.218150 0.688510 0.764149 -0.931970
H25   H     H_    0.224414 0.638829 0.752674 0.232123
H26   H     H_    0.253549 0.699460 0.820438 0.255237
H27   H     H_    0.167953 0.697904 0.789283 0.244619
C102  C     C_3   0.782566 0.310881 0.764327 -0.931851
H28   H     H_    0.776308 0.360592 0.753188 0.232118
H29   H     H_    0.747299 0.299820 0.820746 0.255223
H30   H     H_    0.832819 0.301395 0.789121 0.244583
C103  C     C_3   0.807103 0.710117 0.765247 -0.928535
H31   H     H_    0.860806 0.711944 0.756425 0.240030
H32   H     H_    0.797240 0.742896 0.822707 0.254621
H33   H     H_    0.792280 0.663666 0.787492 0.237830
C104  C     C_3   0.190434 0.287767 0.764778 -0.928033
H34   H     H_    0.136850 0.285557 0.754755 0.239865
H35   H     H_    0.200022 0.254726 0.821955 0.254663
H36   H     H_    0.204573 0.334190 0.788080 0.237868
C105  C     C_3   0.717316 0.189224 0.235659 -0.931787
H37   H     H_    0.723610 0.139513 0.246763 0.232128
H38   H     H_    0.667045 0.198687 0.210919 0.244572
H39   H     H_    0.752546 0.200319 0.179210 0.255221
C106  C     C_3   0.281856 0.811487 0.235841 -0.931912
H40   H     H_    0.275600 0.861169 0.247310 0.232129
H41   H     H_    0.332051 0.802085 0.210706 0.244628
H42   H     H_    0.246454 0.800540 0.179554 0.255225
C107  C     C_3   0.312224 0.214471 0.235476 -0.928165
H43   H     H_    0.365769 0.215612 0.246313 0.239915
H44   H     H_    0.297309 0.168580 0.210718 0.238290
H45   H     H_    0.303748 0.248392 0.179151 0.254504
C108  C     C_3   0.692511 0.789558 0.234764 -0.928567
H46   H     H_    0.638812 0.787878 0.243701 0.240043
H47   H     H_    0.707444 0.835938 0.212320 0.237865
H48   H     H_    0.702218 0.756657 0.177412 0.254605
C109  C     C_3   0.783022 0.310476 0.235579 -0.931660
H49   H     H_    0.747838 0.299342 0.179095 0.255200
H50   H     H_    0.776771 0.360207 0.246535 0.232162
H51   H     H_    0.833310 0.300932 0.210964 0.244558
C110  C     C_3   0.216147 0.690237 0.235405 -0.931527
H52   H     H_    0.251159 0.701518 0.178761 0.255194
H53   H     H_    0.222432 0.640478 0.245993 0.232165
H54   H     H_    0.165785 0.699843 0.211186 0.244498
C111  C     C_3   0.188892 0.286316 0.235524 -0.927854
H55   H     H_    0.198127 0.252943 0.178671 0.254640
H56   H     H_    0.135369 0.284180 0.246258 0.239792
H57   H     H_    0.202905 0.332599 0.211429 0.238009
C112  C     C_3   0.815827 0.717701 0.236486 -0.927518
H58   H     H_    0.807808 0.752087 0.180706 0.254548
H59   H     H_    0.869172 0.719273 0.249108 0.239649
H60   H     H_    0.801859 0.671929 0.210104 0.238461
C113  C     C_3   0.283857 0.809760 0.764589 -0.931479
H61   H     H_    0.248842 0.798482 0.821230 0.255186
H62   H     H_    0.334218 0.800148 0.788808 0.244507
H63   H     H_    0.277579 0.859521 0.754004 0.232176
C114  C     C_3   0.716859 0.189629 0.764432 -0.931599
H64   H     H_    0.752007 0.200797 0.820947 0.255198
H65   H     H_    0.666554 0.199150 0.788992 0.244547
H66   H     H_    0.723148 0.139899 0.753511 0.232173
C115  C     C_3   0.683787 0.781975 0.763450 -0.927553
H67   H     H_    0.691655 0.747469 0.819101 0.254535
H68   H     H_    0.697860 0.827669 0.790034 0.238500
H69   H     H_    0.630449 0.780554 0.750722 0.239664
C116  C     C_3   0.313761 0.215915 0.764197 -0.927986
H70   H     H_    0.305635 0.250164 0.820174 0.254476
H71   H     H_    0.298975 0.170174 0.789752 0.238432
H72   H     H_    0.367240 0.216973 0.752668 0.239837
C117  C     C_3   0.876905 0.501518 0.748876 -0.861100
H73   H     H_    0.879597 0.499886 0.672912 0.292914
H74   H     H_    0.847960 0.461072 0.770145 0.206249
H75   H     H_    0.849866 0.543760 0.766789 0.207316
C118  C     C_3   0.123092 0.498399 0.251139 -0.859886
H76   H     H_    0.120395 0.500109 0.327097 0.293068
H77   H     H_    0.150060 0.456099 0.233314 0.207693
H78   H     H_    0.152104 0.538794 0.229822 0.206043
C119  C     C_3   0.123096 0.498433 0.748834 -0.860620
H79   H     H_    0.150081 0.456147 0.766655 0.207590
H80   H     H_    0.120408 0.500129 0.672875 0.292949
H81   H     H_    0.152089 0.538836 0.770162 0.206090
C120  C     C_3   0.876909 0.501668 0.251182 -0.859330
H82   H     H_    0.850014 0.544028 0.233471 0.208212
H83   H     H_    0.847831 0.461332 0.229789 0.205828
H84   H     H_    0.879603 0.499874 0.327133 0.293106
C121  C     C_3   0.376911 0.001739 0.748860 -0.859776
H85   H     H_    0.379608 0.999881 0.672909 0.293089
H86   H     H_    0.347807 0.961435 0.770323 0.205965
H87   H     H_    0.350041 0.044123 0.766523 0.207952
C122  C     C_3   0.623093 0.998373 0.251123 -0.861069
H88   H     H_    0.620403 0.000122 0.327082 0.292923
H89   H     H_    0.650063 0.956070 0.233336 0.207372
H90   H     H_    0.652105 0.038751 0.229735 0.206218
C123  C     C_3   0.623089 0.998223 0.748819 -0.859302
H91   H     H_    0.620397 0.000135 0.672874 0.293113
H92   H     H_    0.652234 0.038492 0.770331 0.205797
H93   H     H_    0.649914 0.955803 0.766403 0.208275
C124  C     C_3   0.376908 0.001707 0.251168 -0.860502
H94   H     H_    0.379595 0.999860 0.327118 0.292971
H95   H     H_    0.350022 0.044078 0.233509 0.207846
H96   H     H_    0.347820 0.961395 0.229693 0.206008

loop_
_geom_bond_atom_site_label_1
_geom_bond_atom_site_label_2
_geom_bond_distance
_ccdc_geom_bond_type
C113  H63   1.110366 S    
C63   C67   1.408976 A    
C103  H31   1.110384 S    
O8    Zn1   2.022676 S    
O5    Zn2   2.022685 S    
C75   C81   1.427067 A    
C106  H41   1.110187 S    
C114  H64   1.107945 S    
C14   C22   1.389633 A    
C61   C105  1.520760 S    
C23   C31   1.389353 A    
C74   N2    1.385472 A    
C110  H53   1.110361 S    
C104  H34   1.110392 S    
O15   Zn4   2.022672 S    
C29   C37   1.391517 A    
C12   C52   1.391510 A    
C117  H73   1.082907 S    
O10   C6    1.297841 A    
C118  H78   1.110458 S    
C26   H10   1.080884 S    
C99   H23   1.080583 S    
C35   C59   1.417012 A    
C105  H37   1.110361 S    
C7    C22   1.443281 S    
O12   Zn4   2.023106 S    
C54   C69   1.416729 A    
C97   H21   1.080577 S    
C39   C63   1.416788 A    
C53   C70   1.416734 A    
C119  H81   1.110436 S    
C73   C117  1.511063 S    
C101  H26   1.107936 S    
C75   C119  1.511084 S    
C40   C64   1.416961 A    
C108  H48   1.107847 S    
C117  H75   1.110558 S    
O6    Zn1   2.022682 S    
O2    C2    1.297860 A    
C41   C49   1.419306 A    
C46   C54   1.419312 A    
C116  H72   1.110369 S    
C45   C53   1.419320 A    
O13   C7    1.297920 A    
O3    C2    1.297858 A    
C111  H56   1.110397 S    
C124  H94   1.082898 S    
C106  H40   1.110360 S    
O14   C8    1.297889 A    
C113  H62   1.110183 S    
C74   C118  1.511089 S    
C20   C28   1.389300 A    
C82   C94   1.410420 A    
C32   C40   1.391400 A    
C74   C84   1.427048 A    
C77   N3    1.385468 A    
C33   C41   1.419331 A    
C41   C46   1.391419 A    
C38   C46   1.419329 A    
C11   C19   1.389307 A    
C112  H59   1.110390 S    
C35   C43   1.419511 A    
C93   C96   1.390838 A    
C36   C44   1.419623 A    
O13   Zn4   2.022685 S    
O11   Zn3   2.023106 S    
O14   Zn3   2.022682 S    
C102  H29   1.107944 S    
C15   C23   1.389342 A    
C122  H88   1.082915 S    
C118  H77   1.110615 S    
C59   C71   1.408975 A    
C61   C65   1.408852 A    
C67   C111  1.521151 S    
C70   C114  1.520759 S    
C39   C47   1.419371 A    
O16   C7    1.297868 A    
C24   C32   1.389294 A    
O16   Zn3   2.022676 S    
C107  H44   1.110317 S    
C62   C106  1.520752 S    
C25   C33   1.391520 A    
C105  H38   1.110183 S    
C80   C86   1.427069 A    
C123  H91   1.082876 S    
C83   C89   1.405966 A    
O1    Zn1   2.022983 S    
C8    C21   1.443276 S    
C114  H65   1.110183 S    
C42   C50   1.419307 A    
C100  H24   1.080583 S    
C72   C116  1.520979 S    
C113  H61   1.107948 S    
C87   C99   1.410417 A    
C15   H7    1.080713 S    
C88   C92   1.405964 A    
C21   C29   1.389620 A    
C104  H36   1.110330 S    
C10   C50   1.391519 A    
C121  H85   1.082889 S    
C120  H82   1.110660 S    
C78   C122  1.511064 S    
C9    C49   1.391505 A    
C109  H50   1.110361 S    
C120  H83   1.110454 S    
C97   C100  1.390846 A    
O8    C3    1.297905 A    
C27   H11   1.080556 S    
C71   C115  1.521036 S    
C9    H1    1.080899 S    
C73   N1    1.385497 A    
C30   C38   1.391533 A    
C44   C47   1.391342 A    
C64   C68   1.408978 A    
O3    Zn1   2.023106 S    
C9    C17   1.389646 A    
C38   C62   1.416729 A    
O2    Zn2   2.022982 S    
Zn4   N4    2.032361 S    
C101  H27   1.110185 S    
C57   C101  1.520748 S    
C79   C123  1.511097 S    
C84   C96   1.410418 A    
C73   C83   1.427063 A    
C110  H54   1.110185 S    
C104  H35   1.107752 S    
C34   C42   1.419305 A    
C85   C97   1.410418 A    
C118  H76   1.082883 S    
C109  H49   1.107950 S    
O12   C5    1.297844 A    
C58   C70   1.408850 A    
C80   N4    1.385497 A    
C83   C95   1.410436 A    
C124  H95   1.110611 S    
C1    C20   1.443172 S    
C60   C72   1.408996 A    
C111  H57   1.110332 S    
C33   C57   1.416728 A    
C2    C19   1.443100 S    
C76   C82   1.427052 A    
C119  H79   1.110592 S    
C3    C18   1.443289 S    
C94   H18   1.080574 S    
C5    C24   1.443093 S    
C78   C88   1.427064 A    
C85   C91   1.405974 A    
O4    Zn2   2.023106 S    
C6    C23   1.443101 S    
C86   C92   1.405965 A    
C112  H60   1.110345 S    
C57   C69   1.408843 A    
C26   C34   1.391518 A    
C116  H70   1.107935 S    
C84   C90   1.405975 A    
C16   H8    1.080734 S    
C48   C56   1.419550 A    
C102  H30   1.110183 S    
C122  H89   1.110555 S    
C40   C48   1.419471 A    
C25   H9    1.080880 S    
C55   C72   1.416773 A    
C22   C30   1.389618 A    
C77   C87   1.427052 A    
O4    C1    1.297910 A    
C13   C53   1.391516 A    
O15   C8    1.297901 A    
C12   H4    1.080602 S    
C43   C51   1.419583 A    
O7    C4    1.297859 A    
C105  H39   1.107938 S    
C79   N3    1.385469 A    
C12   C20   1.389253 A    
C123  H92   1.110466 S    
C121  H86   1.110469 S    
C114  H66   1.110365 S    
C37   C61   1.416732 A    
C15   C55   1.391483 A    
C31   C39   1.391402 A    
C103  H32   1.107820 S    
C120  H84   1.082866 S    
C52   C67   1.417141 A    
C69   C113  1.520759 S    
O9    Zn3   2.022983 S    
C19   C27   1.389277 A    
C89   C90   1.434700 A    
C115  H68   1.110342 S    
C115  H69   1.110387 S    
O10   Zn4   2.022982 S    
C111  H55   1.107750 S    
C28   C36   1.391488 A    
C115  H67   1.107838 S    
C80   C124  1.511078 S    
C86   C98   1.410440 A    
C65   C109  1.520748 S    
C76   C120  1.511097 S    
C109  H51   1.110182 S    
C42   C45   1.391434 A    
O1    C1    1.297839 A    
C68   C112  1.521063 S    
Zn2   N2    2.032361 S    
C81   C89   1.405966 A    
Zn1   N1    2.032360 S    
C59   C103  1.521108 S    
C29   H13   1.080883 S    
C107  H45   1.107928 S    
C77   C121  1.511084 S    
C94   C95   1.390838 A    
O5    C3    1.297890 A    
Zn3   N3    2.032360 S    
C103  H33   1.110326 S    
C121  H87   1.110631 S    
O6    C4    1.297934 A    
C43   C48   1.391351 A    
O11   C6    1.297884 A    
C93   H17   1.080577 S    
C36   C60   1.417167 A    
C75   N1    1.385500 A    
C119  H80   1.082893 S    
C124  H96   1.110449 S    
C13   C21   1.389626 A    
C63   C107  1.520993 S    
C88   C100  1.410436 A    
C117  H74   1.110440 S    
C96   H20   1.080583 S    
C62   C66   1.408855 A    
C101  H25   1.110359 S    
C76   N2    1.385471 A    
C4    C17   1.443290 S    
C58   C102  1.520748 S    
O9    C5    1.297873 A    
C110  H52   1.107949 S    
O7    Zn2   2.022672 S    
C98   H22   1.080575 S    
C11   H3    1.080720 S    
C79   C85   1.427054 A    
C95   H19   1.080582 S    
C14   H6    1.080909 S    
C34   C58   1.416717 A    
C108  H47   1.110326 S    
C13   H5    1.080896 S    
C44   C52   1.419671 A    
C64   C108  1.521086 S    
C122  H90   1.110453 S    
C87   C91   1.405973 A    
C60   C104  1.521165 S    
C18   C26   1.389625 A    
C16   C24   1.389307 A    
C98   C99   1.390850 A    
C108  H46   1.110377 S    
C56   C71   1.416927 A    
C107  H43   1.110372 S    
C51   C68   1.416982 A    
C27   C35   1.391404 A    
C16   C56   1.391517 A    
C47   C55   1.419411 A    
C32   H16   1.080563 S    
C66   C110  1.520755 S    
C31   H15   1.080679 S    
C112  H58   1.107813 S    
C123  H93   1.110656 S    
C10   H2    1.080895 S    
C30   H14   1.080882 S    
C116  H71   1.110321 S    
C14   C54   1.391488 A    
C106  H42   1.107939 S    
C10   C18   1.389634 A    
C81   C93   1.410440 A    
C102  H28   1.110357 S    
C50   C65   1.416719 A    
C17   C25   1.389607 A    
C82   C90   1.405976 A    
C78   N4    1.385494 A    
C49   C66   1.416732 A    
C91   C92   1.434700 A    
C11   C51   1.391531 A    
C37   C45   1.419318 A    
C28   H12   1.080555 S    
