data_mof_unit_57647.cif
_audit_creation_date              2012-12-10T17:20:34-0500
_audit_creation_method            fapswitch 2.2
_symmetry_space_group_name_H-M    P1
_symmetry_Int_Tables_number       1
_space_group_crystal_system       triclinic
_cell_length_a                    10.228624
_cell_length_b                    10.274406
_cell_length_c                    13.599236
_cell_angle_alpha                 92.633747
_cell_angle_beta                  75.726545
_cell_angle_gamma                 94.725858
_cell_volume                      1379.87091391

loop_
_atom_site_label
_atom_site_type_symbol
_atom_type_description
_atom_site_fract_x
_atom_site_fract_y
_atom_site_fract_z
_atom_type_partial_charge
C1    C     C_R   0.554645 0.736152 0.497111 0.911466
C2    C     C_2   0.077010 0.498925 0.481902 0.171885
C3    C     C_1   0.459023 0.543077 0.879880 -0.036038
C4    C     C_1   0.558329 0.521725 0.118391 -0.024756
C5    C     C_2   0.577828 0.876979 0.511927 -0.064319
C6    C     C_2   0.416035 0.125637 0.533879 -0.067775
C7    C     C_2   0.496093 0.932985 0.594409 0.352751
C8    C     C_2   0.481928 0.076693 0.597675 0.359516
C9    C     C_3   0.209941 0.547693 0.041947 -0.790742
C10   C     C_3   0.815703 0.506891 0.976557 -0.791305
C11   C     C_3   0.602346 0.104431 0.725438 0.076478
C12   C     C_R   0.444406 0.264009 0.509722 0.925433
C13   C     C_3   0.673696 0.210265 0.780298 -0.314963
C14   C     C_3   0.744340 0.150984 0.852323 -0.958001
C15   C     C_3   0.301484 0.886202 0.721158 0.072521
C16   C     C_3   0.240688 0.797111 0.810465 -0.317772
C17   C     C_3   0.097797 0.830970 0.864583 -0.993756
C18   C     C_3   0.195151 0.049459 0.512138 -0.823824
C19   C     C_3   0.782749 0.015105 0.448883 -0.789234
C20   C     C_3   0.131411 0.446681 0.298631 -0.806168
C21   C     C_3   0.837473 0.637152 0.660486 -0.750429
C22   C     C_R   0.477867 0.504842 0.687997 0.972178
C23   C     C_R   0.522719 0.497493 0.311887 0.884500
C24   C     C_1   0.542016 0.508887 0.206953 -0.225021
C25   C     C_1   0.466154 0.523846 0.792189 -0.233883
C26   C     C_2   0.570463 0.536512 0.013059 0.165226
C27   C     C_2   0.458271 0.562417 0.983935 0.165612
C28   C     C_2   0.929944 0.525822 0.498999 0.203420
H1    H     H_    0.109272 0.613546 0.598150 0.152424
H2    H     H_    0.839589 0.604769 0.008754 0.242310
H3    H     H_    0.679018 0.037842 0.683695 0.150174
H4    H     H_    0.523666 0.049343 0.783054 0.170586
H5    H     H_    0.749900 0.269059 0.723551 0.226863
H6    H     H_    0.598377 0.276367 0.824377 0.236448
H7    H     H_    0.669525 0.093970 0.911026 0.266523
H8    H     H_    0.795373 0.230137 0.890695 0.281362
H9    H     H_    0.821721 0.086012 0.809581 0.259257
H10   H     H_    0.239918 0.868701 0.664227 0.163177
H11   H     H_    0.297481 0.989244 0.750155 0.140724
H12   H     H_    0.882395 0.362498 0.425232 0.165898
H13   H     H_    0.236958 0.693951 0.782545 0.239603
H14   H     H_    0.305498 0.807051 0.865490 0.239497
H15   H     H_    0.099293 0.932441 0.896431 0.271094
H16   H     H_    0.055889 0.763054 0.927744 0.270997
H17   H     H_    0.031043 0.821635 0.811088 0.259044
H18   H     H_    0.373808 0.052755 0.400910 0.224662
H19   H     H_    0.143648 0.968204 0.476049 0.241459
H20   H     H_    0.165415 0.143404 0.490264 0.247172
H21   H     H_    0.160628 0.041005 0.595800 0.236374
H22   H     H_    0.676100 0.902004 0.361088 0.218747
H23   H     H_    0.343199 0.627829 0.127474 0.228626
H24   H     H_    0.841281 0.066118 0.379735 0.236091
H25   H     H_    0.845809 0.941664 0.468172 0.235510
H26   H     H_    0.760241 0.089468 0.511105 0.264435
H27   H     H_    0.207580 0.355459 0.406479 0.273342
H28   H     H_    0.236692 0.457549 0.251528 0.258928
H29   H     H_    0.083722 0.539958 0.297947 0.241193
H30   H     H_    0.075164 0.367943 0.263876 0.231168
H31   H     H_    0.946558 0.725390 0.527295 0.191676
H32   H     H_    0.740744 0.684603 0.685728 0.255333
H33   H     H_    0.911846 0.691343 0.697284 0.191086
H34   H     H_    0.126934 0.592171 0.098660 0.237060
H35   H     H_    0.821997 0.534743 0.686602 0.236385
H36   H     H_    0.202876 0.440927 0.054201 0.242779
H37   H     H_    0.196259 0.565534 0.965318 0.255171
H38   H     H_    0.710004 0.549590 0.871050 0.227789
H39   H     H_    0.901678 0.482922 0.912325 0.232677
H40   H     H_    0.803693 0.431633 0.034829 0.256619
N1    N     N_2   0.847200 0.448220 0.460120 -0.193612
N2    N     N_2   0.152800 0.551780 0.539880 -0.215667
N3    N     N_2   0.339236 0.606229 0.053494 -0.309071
N4    N     N_2   0.693613 0.507136 0.940637 -0.308476
N5    N     N_2   0.340067 0.042211 0.478299 -0.337342
N6    N     N_2   0.659155 0.951952 0.430111 -0.337114
N7    N     N_2   0.131520 0.411205 0.400518 -0.307617
N8    N     N_2   0.883737 0.643169 0.551017 -0.258611
O1    O     O_R   0.430150 0.692610 0.508030 -0.580779
O2    O     O_3   0.435906 0.855476 0.677614 -0.678066
O3    O     O_R   0.569850 0.307390 0.491970 -0.570951
O4    O     O_R   0.653100 0.659360 0.482430 -0.580566
O5    O     O_R   0.346900 0.340640 0.517570 -0.631328
O6    O     O_R   0.372470 0.518990 0.654990 -0.608922
O7    O     O_R   0.627530 0.481010 0.345010 -0.603573
O8    O     O_R   0.595430 0.485740 0.629390 -0.582280
O9    O     O_R   0.404570 0.514260 0.370610 -0.605168
O10   O     O_3   0.541930 0.164920 0.658305 -0.663738
Zn1   Zn    Zn3+2 0.351130 0.522200 0.517090 0.935480
Zn2   Zn    Zn3+2 0.648870 0.477800 0.482910 0.964141

loop_
_geom_bond_atom_site_label_1
_geom_bond_atom_site_label_2
_ccdc_geom_bond_type
C9    H36   S    
C26   N4    S    
C28   N1    D    
C20   H28   S    
C18   H19   S    
C7    C8    S    
C10   H39   S    
C21   N8    S    
C26   C27   D    
C23   O7    A    
C1    C5    S    
C22   O6    A    
C17   H17   S    
H22   N6    S    
C14   H8    S    
C4    C24   T    
C15   O2    S    
C11   O10   S    
C15   C16   S    
C12   O3    A    
C1    O1    A    
C5    N6    S    
C19   H24   S    
H38   N4    S    
C16   C17   S    
C22   C25   S    
C23   C24   S    
C21   H33   S    
H27   N7    S    
C19   H25   S    
O7    Zn2   S    
C11   H3    S    
C13   C14   S    
H23   N3    S    
N2    Zn1   S    
O3    Zn2   S    
O9    Zn1   S    
H12   N1    S    
C9    H34   S    
C9    N3    S    
C3    C25   T    
C21   H32   S    
C14   H7    S    
C5    C7    D    
C6    C8    D    
C20   N7    S    
C22   O8    A    
C17   H15   S    
C15   H10   S    
C13   H5    S    
C10   H2    S    
C15   H11   S    
O5    Zn1   S    
N1    Zn2   S    
C7    O2    S    
C19   H26   S    
C11   H4    S    
C18   N5    S    
C20   H30   S    
C28   N8    S    
C16   H14   S    
C27   N3    S    
C6    N5    S    
H1    N2    S    
C19   N6    S    
O8    Zn2   S    
C18   H20   S    
C4    C26   S    
C10   H40   S    
C3    C27   S    
C17   H16   S    
C13   H6    S    
O4    Zn2   S    
C14   H9    S    
C6    C12   S    
C11   C13   S    
H31   N8    S    
C12   O5    A    
C8    O10   S    
C9    H37   S    
C21   H35   S    
O1    Zn1   S    
C23   O9    A    
C1    O4    A    
C2    C28   S    
C20   H29   S    
C2    N2    D    
C16   H13   S    
H18   N5    S    
C2    N7    S    
O6    Zn1   S    
C18   H21   S    
C10   N4    S    
