data_mof_unit_48023.cif
_audit_creation_date              2012-12-10T17:28:39-0500
_audit_creation_method            fapswitch 2.2
_symmetry_space_group_name_H-M    P1
_symmetry_Int_Tables_number       1
_space_group_crystal_system       triclinic
_cell_length_a                    10.626094
_cell_length_b                    12.026359
_cell_length_c                    12.911091
_cell_angle_alpha                 92.255163
_cell_angle_beta                  88.957571
_cell_angle_gamma                 89.523741
_cell_volume                      1648.3318476

loop_
_atom_site_label
_atom_site_type_symbol
_atom_type_description
_atom_site_fract_x
_atom_site_fract_y
_atom_site_fract_z
_atom_type_partial_charge
C1    C     C_R   0.498639 0.521326 0.700105 0.879489
C2    C     C_R   0.490707 0.561179 0.131915 -0.249448
C3    C     C_R   0.506770 0.446563 0.974977 0.100171
C4    C     C_R   0.493250 0.553428 0.025021 0.100179
C5    C     C_R   0.387786 0.951778 0.399356 -0.123700
C6    C     C_R   0.612212 0.048222 0.600644 -0.123701
C7    C     C_R   0.397766 0.835701 0.409746 0.087135
C8    C     C_R   0.602233 0.164299 0.590254 0.087135
C9    C     C_R   0.547122 0.859597 0.542987 -0.050051
C10   C     C_R   0.452878 0.140403 0.457013 -0.050051
C11   C     C_R   0.540411 0.976711 0.536499 0.015977
C12   C     C_R   0.501363 0.478673 0.299894 0.879484
C13   C     C_R   0.459588 0.023289 0.463501 0.015977
C14   C     C_R   0.739527 0.503479 0.492566 0.880617
C15   C     C_R   0.260473 0.496521 0.507434 0.880620
C16   C     C_R   0.858377 0.537969 0.685818 -0.126622
C17   C     C_R   0.141623 0.462030 0.314181 -0.126623
C18   C     C_R   0.912840 0.527113 0.781976 -0.137095
C19   C     C_R   0.087160 0.472887 0.218024 -0.137096
C20   C     C_R   0.034624 0.485486 0.787545 -0.154046
C21   C     C_R   0.965377 0.514517 0.212455 -0.154044
C22   C     C_R   0.105236 0.460724 0.696845 -0.012719
C23   C     C_R   0.501934 0.466027 0.188944 -0.083982
C24   C     C_R   0.894765 0.539278 0.303155 -0.012720
C25   C     C_R   0.056233 0.486722 0.598352 0.017484
C26   C     C_R   0.943767 0.513278 0.401648 0.017484
C27   C     C_R   0.928472 0.514460 0.593095 0.077493
C28   C     C_R   0.071528 0.485540 0.406905 0.077493
C29   C     C_R   0.127508 0.483079 0.504652 -0.180229
C30   C     C_R   0.872492 0.516921 0.495347 -0.180228
C31   C     C_1   0.304391 0.996258 0.322996 0.150838
C32   C     C_1   0.695603 0.003741 0.677007 0.150839
C33   C     C_1   0.208843 0.384124 0.707084 0.167715
C34   C     C_R   0.498076 0.533968 0.811055 -0.083979
C35   C     C_1   0.791158 0.615878 0.292917 0.167716
C36   C     C_1   0.469125 0.760602 0.014378 0.157959
C37   C     C_1   0.530908 0.239388 0.985621 0.157960
C38   C     C_1   0.677122 0.237417 0.654977 0.264877
C39   C     C_1   0.322876 0.762583 0.345024 0.264880
C40   C     C_R   0.482864 0.649994 0.966899 -0.002007
C41   C     C_R   0.517161 0.349998 0.033099 -0.002010
C42   C     C_R   0.485449 0.639296 0.859818 -0.239785
C43   C     C_R   0.514570 0.360697 0.140180 -0.239775
C44   C     C_R   0.509305 0.438815 0.868083 -0.249443
H1    H     H_    0.928570 0.533145 0.137235 0.140061
H2    H     H_    0.477031 0.713104 0.814680 0.176071
H3    H     H_    0.391793 0.179038 0.402493 0.145589
H4    H     H_    0.608207 0.820962 0.597506 0.145589
H5    H     H_    0.071432 0.466860 0.862765 0.140061
H6    H     H_    0.761440 0.565792 0.684625 0.133806
H7    H     H_    0.238559 0.434206 0.315375 0.133806
H8    H     H_    0.857981 0.544954 0.852254 0.148056
H9    H     H_    0.142019 0.455047 0.147746 0.148056
H10   H     H_    0.480676 0.641949 0.171238 0.186336
H11   H     H_    0.519330 0.358046 0.828760 0.186337
H12   H     H_    0.522990 0.286892 0.185319 0.176070
N1    N     N_R   0.523130 0.207800 0.519340 -0.127692
N2    N     N_1   0.261887 0.705379 0.292532 -0.205828
N3    N     N_R   0.476870 0.792200 0.480660 -0.127692
N4    N     N_1   0.237972 0.031680 0.262089 -0.179534
N5    N     N_1   0.762018 0.968318 0.737916 -0.179533
N6    N     N_1   0.288687 0.319610 0.716784 -0.169197
N7    N     N_1   0.711314 0.680392 0.283217 -0.169195
N8    N     N_1   0.458125 0.849016 0.052367 -0.173769
N9    N     N_1   0.541915 0.150973 0.947635 -0.173766
N10   N     N_1   0.738111 0.294621 0.707470 -0.205829
O1    O     O_R   0.506170 0.421700 0.658830 -0.615415
O2    O     O_R   0.493830 0.578300 0.341170 -0.615413
O3    O     O_R   0.491330 0.609310 0.646410 -0.635827
O4    O     O_R   0.508670 0.390690 0.353590 -0.635827
O5    O     O_R   0.690650 0.406190 0.506220 -0.607817
O6    O     O_R   0.309350 0.593810 0.493780 -0.607817
O7    O     O_R   0.675800 0.593810 0.493800 -0.618917
O8    O     O_R   0.324200 0.406190 0.506200 -0.618916
Zn1   Zn    Zn3+2 0.509910 0.374730 0.508290 0.963991
Zn2   Zn    Zn3+2 0.490090 0.625270 0.491710 0.963991

loop_
_geom_bond_atom_site_label_1
_geom_bond_atom_site_label_2
_ccdc_geom_bond_type
C6    C32   S    
C14   O5    A    
C34   C42   A    
O6    Zn2   S    
C17   H7    S    
C18   H8    S    
C15   O6    A    
C12   O2    A    
C12   C23   S    
C28   C29   A    
C19   C21   A    
C16   H6    S    
C32   N5    T    
C23   C43   A    
O3    Zn2   S    
C42   H2    S    
C17   C19   A    
C4    C40   A    
C33   N6    T    
C22   C25   A    
C37   N9    T    
C5    C13   A    
C19   H9    S    
C16   C27   A    
C40   C42   A    
C27   C30   A    
C41   C43   A    
C8    C38   S    
C14   C30   S    
C7    N3    A    
C1    C34   S    
C15   C29   S    
C21   H1    S    
C25   C29   A    
C3    C44   A    
C24   C35   S    
O8    Zn1   S    
C14   O7    A    
C38   N10   T    
C36   C40   S    
C10   N1    A    
C34   C44   A    
C2    H10   S    
C6    C11   A    
C5    C7    A    
C6    C8    A    
C39   N2    T    
C1    O3    A    
C9    N3    A    
C31   N4    T    
C2    C4    A    
C20   H5    S    
C8    N1    A    
C9    C11   A    
C20   C22   A    
C26   C30   A    
O7    Zn2   S    
O2    Zn2   S    
C3    C4    A    
C10   H3    S    
C22   C33   S    
C12   O4    A    
C3    C41   A    
C17   C28   A    
C24   C26   A    
C10   C13   A    
C25   C27   A    
C26   C28   A    
N1    Zn1   S    
O5    Zn1   S    
C11   C13   A    
C44   H11   S    
C1    O1    A    
C18   C20   A    
C37   C41   S    
C43   H12   S    
C15   O8    A    
O1    Zn1   S    
O4    Zn1   S    
C9    H4    S    
C16   C18   A    
C21   C24   A    
C2    C23   A    
C7    C39   S    
C35   N7    T    
C36   N8    T    
N3    Zn2   S    
C5    C31   S    
