data_mof_unit_44214.cif
_audit_creation_date              2012-12-10T18:59:13-0500
_audit_creation_method            fapswitch 2.2
_symmetry_space_group_name_H-M    P1
_symmetry_Int_Tables_number       1
_space_group_crystal_system       triclinic
_cell_length_a                    9.822454
_cell_length_b                    10.72148
_cell_length_c                    16.77993
_cell_angle_alpha                 89.416481
_cell_angle_beta                  94.343922
_cell_angle_gamma                 90.005851
_cell_volume                      1761.9472478

loop_
_atom_site_label
_atom_site_type_symbol
_atom_type_description
_atom_site_fract_x
_atom_site_fract_y
_atom_site_fract_z
_atom_type_partial_charge
C1    C     C_R   0.499952 0.259810 0.500068 0.869113
C2    C     C_R   0.500048 0.740190 0.499929 0.869017
C3    C     C_R   0.376277 0.936307 0.486164 -0.194127
C4    C     C_R   0.623724 0.063692 0.513824 -0.194178
C5    C     C_R   0.500044 0.872605 0.499899 -0.013273
C6    C     C_R   0.499956 0.127394 0.500092 -0.013356
C7    C     C_R   0.065453 0.577005 0.449451 -0.078943
C8    C     C_R   0.934547 0.422996 0.550549 -0.079012
C9    C     C_R   0.921427 0.576973 0.449470 -0.075402
C10   C     C_R   0.078572 0.423028 0.550530 -0.075549
C11   C     C_R   0.517517 0.495121 0.653497 0.888733
C12   C     C_R   0.482480 0.505108 0.346517 0.888656
C13   C     C_R   0.527026 0.480975 0.739785 -0.065615
C14   C     C_R   0.472920 0.520982 0.260343 -0.065439
C15   C     C_R   0.411403 0.442675 0.777548 -0.283256
C16   C     C_R   0.588156 0.561244 0.222944 -0.282873
C17   C     C_R   0.415992 0.434179 0.860359 0.223531
C18   C     C_R   0.583314 0.572169 0.140221 0.223333
C19   C     C_R   0.538811 0.463093 0.905227 0.285228
C20   C     C_R   0.460655 0.543665 0.095105 0.285024
C21   C     C_R   0.656457 0.492730 0.867361 -0.234394
C22   C     C_R   0.343313 0.512125 0.132712 -0.233966
C23   C     C_R   0.650676 0.502618 0.784686 -0.230308
C24   C     C_R   0.349334 0.499880 0.215277 -0.230710
C25   C     C_R   0.376229 0.064076 0.486288 -0.197138
C26   C     C_R   0.623772 0.935923 0.513701 -0.197128
H1    H     H_    0.682338 0.583546 0.257711 0.162817
H2    H     H_    0.317074 0.420109 0.742994 0.162985
H3    H     H_    0.750982 0.513318 0.902263 0.161090
H4    H     H_    0.248949 0.491667 0.097627 0.161513
H5    H     H_    0.741599 0.529806 0.756152 0.167423
H6    H     H_    0.258673 0.471293 0.243569 0.167356
H7    H     H_    0.279941 0.112856 0.475151 0.157133
H8    H     H_    0.720060 0.887143 0.524838 0.157131
H9    H     H_    0.280019 0.887838 0.474931 0.153918
H10   H     H_    0.719982 0.112161 0.525057 0.153923
H11   H     H_    0.114937 0.638508 0.409092 0.123114
H12   H     H_    0.885063 0.361492 0.590908 0.123094
H13   H     H_    0.861470 0.638447 0.409109 0.121435
H14   H     H_    0.138530 0.361555 0.590892 0.121595
N1    N     N_2   0.544721 0.468711 0.988667 -0.163592
N2    N     N_2   0.455063 0.538798 0.011648 -0.163172
N3    N     N_R   0.857210 0.499970 0.500020 -0.077397
N4    N     N_R   0.142790 0.500030 0.499980 -0.077409
O1    O     O_R   0.614620 0.316750 0.500010 -0.624516
O2    O     O_R   0.385380 0.683250 0.499990 -0.624553
O3    O     O_R   0.385290 0.316780 0.500000 -0.628315
O4    O     O_R   0.614710 0.683220 0.500000 -0.628410
O5    O     O_R   0.627460 0.498830 0.616130 -0.622792
O6    O     O_R   0.372540 0.501170 0.383870 -0.622707
O7    O     O_R   0.398130 0.498850 0.616130 -0.619619
O8    O     O_R   0.601870 0.501150 0.383870 -0.619584
Zn1   Zn    Zn3+2 0.653130 0.499980 0.500000 0.944036
Zn2   Zn    Zn3+2 0.346870 0.500020 0.500000 0.944083
N5    N     N_2   0.699541 0.615117 0.102304 -0.297102
H15   H     H_    0.730603 0.702501 0.121283 0.219701
C27   C     C_3   0.812410 0.527966 0.105088 -0.792671
H16   H     H_    0.857715 0.515868 0.167412 0.228666
H17   H     H_    0.892383 0.564306 0.067669 0.233348
H18   H     H_    0.778047 0.435961 0.081349 0.258890
N6    N     N_2   0.299347 0.393084 0.898626 -0.297204
H19   H     H_    0.267345 0.305587 0.880353 0.219675
C28   C     C_3   0.187376 0.481288 0.895124 -0.792829
H20   H     H_    0.142174 0.492429 0.832713 0.228884
H21   H     H_    0.222728 0.573504 0.918058 0.258957
H22   H     H_    0.107046 0.446574 0.932864 0.233139

loop_
_geom_bond_atom_site_label_1
_geom_bond_atom_site_label_2
_ccdc_geom_bond_type
C20   N2    S    
N5    H15   S    
C4    H10   S    
C11   O5    A    
C14   C16   A    
O4    Zn1   S    
N1    N2    D    
C9    H13   S    
C4    C26   A    
C8    N3    A    
C3    H9    S    
C3    C5    A    
O7    Zn2   S    
C2    O4    A    
C7    C9    A    
O2    Zn2   S    
C16   H1    S    
C28   H21   S    
C7    H11   S    
C28   H22   S    
O1    Zn1   S    
C7    N4    A    
C2    O2    A    
C11   C13   S    
C1    O1    A    
C15   H2    S    
O6    Zn2   S    
C8    H12   S    
C18   N5    S    
O3    Zn2   S    
O5    Zn1   S    
C8    C10   A    
C12   O8    A    
N3    Zn1   S    
C20   C22   A    
C18   C20   A    
N5    C27   S    
C13   C15   A    
N6    H19   S    
C22   C24   A    
C27   H17   S    
C6    C25   A    
C9    N3    A    
C19   N1    S    
C10   N4    A    
C1    C6    S    
C2    C5    S    
N4    Zn2   S    
C12   C14   S    
C3    C25   A    
C11   O7    A    
O8    Zn1   S    
C13   C23   A    
C16   C18   A    
C4    C6    A    
C14   C24   A    
C24   H6    S    
C15   C17   A    
C10   H14   S    
C17   C19   A    
C27   H18   S    
C22   H4    S    
C17   N6    S    
C27   H16   S    
C28   H20   S    
C21   H3    S    
C21   C23   A    
C26   H8    S    
N6    C28   S    
C1    O3    A    
C5    C26   A    
C25   H7    S    
C12   O6    A    
C19   C21   A    
C23   H5    S    
