data_mof_unit_41162.cif
_audit_creation_date              2012-12-10T19:04:12-0500
_audit_creation_method            fapswitch 2.2
_symmetry_space_group_name_H-M    P1
_symmetry_Int_Tables_number       1
_space_group_crystal_system       triclinic
_cell_length_a                    10.640046
_cell_length_b                    10.794475
_cell_length_c                    9.558277
_cell_angle_alpha                 90.287929
_cell_angle_beta                  90.614588
_cell_angle_gamma                 90.207828
_cell_volume                      1097.71912431

loop_
_atom_site_label
_atom_site_type_symbol
_atom_type_description
_atom_site_fract_x
_atom_site_fract_y
_atom_site_fract_z
_atom_type_partial_charge
C1    C     C_R   0.495079 0.262631 0.499627 0.899896
C2    C     C_3   0.956637 0.608473 0.448213 0.300993
C3    C     C_3   0.037208 0.515253 0.367373 0.355683
C4    C     C_3   0.122903 0.502356 0.496633 -0.210705
C5    C     C_R   0.537638 0.064254 0.610011 -0.050456
C6    C     C_R   0.482246 0.129486 0.500631 -0.186490
C7    C     C_R   0.407004 0.064360 0.401747 0.316792
C8    C     C_R   0.406857 0.933720 0.402384 0.365710
C9    C     C_R   0.481317 0.870451 0.502581 -0.235819
C10   C     C_R   0.535353 0.937529 0.612653 0.019470
C11   C     C_3   0.663125 0.930472 0.678804 0.192504
C12   C     C_R   0.259498 0.501105 0.499017 0.892722
C13   C     C_3   0.666051 0.071659 0.674921 0.176625
C14   C     C_R   0.588325 0.566285 0.075100 0.292678
C15   C     C_R   0.407367 0.442650 0.072895 0.040822
C16   C     C_R   0.407314 0.442662 0.924233 -0.016337
C17   C     C_R   0.588569 0.565715 0.927637 0.339847
C18   C     C_3   0.726877 0.544827 0.924094 -0.477167
C19   C     C_3   0.727053 0.547053 0.082260 -0.422330
C20   C     C_R   0.495519 0.737435 0.500293 0.887628
C21   C     C_R   0.740477 0.500019 0.500757 0.899964
C22   C     C_3   0.043117 0.393994 0.550596 -0.181778
C23   C     C_3   0.956068 0.406724 0.420156 -0.174508
C24   C     C_3   0.876982 0.500867 0.501917 -0.206304
C25   C     C_3   0.961781 0.487969 0.632489 -0.197692
C26   C     C_3   0.042816 0.595476 0.577235 0.345279
Cu1   Cu    Cu3+1 0.499990 0.499980 0.640670 1.019851
Cu2   Cu    Cu3+1 0.500010 0.500020 0.359330 1.057649
H1    H     H_    0.918004 0.329394 0.355263 0.224171
H2    H     H_    0.333977 0.393653 0.127263 0.207870
H3    H     H_    0.778568 0.623951 0.877661 0.261488
N1    N     N_R   0.500800 0.500930 0.147930 -0.216198
N2    N     N_R   0.500800 0.500890 0.852020 -0.215639
O1    O     O_R   0.500000 0.319640 0.618810 -0.596488
O2    O     O_R   0.500010 0.319680 0.381230 -0.550625
O3    O     O_R   0.316850 0.499950 0.618770 -0.578863
O4    O     O_R   0.316860 0.499990 0.381190 -0.540870
O5    O     O_R   0.499990 0.680320 0.618770 -0.544849
O6    O     O_R   0.500000 0.680360 0.381190 -0.537729
O7    O     O_R   0.683140 0.500010 0.618810 -0.592795
O8    O     O_R   0.683150 0.500050 0.381230 -0.593096
H4    H     H_    0.733283 0.883450 0.611633 0.190113
H5    H     H_    0.665758 0.117668 0.779250 0.177433
Cl1   Cl    Cl    0.782468 0.130351 0.558699 -0.576287
H6    H     H_    0.333846 0.393566 0.867650 0.165985
H7    H     H_    0.750816 0.452164 0.880918 0.209670
H8    H     H_    0.753744 0.456434 0.128505 0.222412
H9    H     H_    0.777248 0.628648 0.127294 0.274697
H10   H     H_    0.081090 0.305758 0.592323 0.214645
H11   H     H_    0.931411 0.476547 0.742091 0.195967
Cl2   Cl    Cl    0.101842 0.720826 0.680978 -0.444022
Cl3   Cl    Cl    0.896933 0.751124 0.382392 -0.475240
Cl4   Cl    Cl    0.083812 0.533882 0.190113 -0.498636
Cl5   Cl    Cl    0.312360 0.143953 0.278634 -0.505057
Cl6   Cl    Cl    0.312407 0.851733 0.279400 -0.381944
Cl7   Cl    Cl    0.655607 0.872227 0.852818 -0.540636

loop_
_geom_bond_atom_site_label_1
_geom_bond_atom_site_label_2
_ccdc_geom_bond_type
C16   H6    S    
C4    C26   S    
C23   C24   S    
C6    C7    A    
C2    Cl3   S    
Cu1   O3    S    
C12   O3    A    
C4    C22   S    
C9    C10   A    
C9    C20   S    
C5    C13   S    
C7    Cl5   S    
Cu2   N1    S    
Cu1   O7    S    
C17   C18   S    
C3    C4    S    
C15   N1    A    
C2    C26   S    
C26   Cl2   S    
Cu1   N2    S    
C11   C13   S    
C14   C17   A    
C3    Cl4   S    
C21   O7    A    
C17   N2    A    
Cu2   O4    S    
C15   H2    S    
C22   H10   S    
C21   O8    A    
C18   H7    S    
C8    Cl6   S    
C5    C10   A    
C1    O1    A    
C2    C3    S    
C22   C23   S    
Cu1   O1    S    
C2    C24   S    
C5    C6    A    
C16   N2    A    
C19   H8    S    
C7    C8    A    
C10   C11   S    
Cu1   O5    S    
C15   C16   A    
C23   H1    S    
Cu2   O8    S    
C13   H5    S    
C20   O5    A    
C24   C25   S    
C1    O2    A    
C11   H4    S    
C18   C19   S    
C21   C24   S    
C12   O4    A    
C20   O6    A    
C25   H11   S    
C18   H3    S    
Cu2   O6    S    
C4    C12   S    
C25   C26   S    
C19   H9    S    
C3    C23   S    
C14   C19   S    
C13   Cl1   S    
C11   Cl7   S    
C1    C6    S    
Cu2   O2    S    
C14   N1    A    
C8    C9    A    
Cu1   Cu2   S    
C22   C25   S    
