data_mof_unit_63554.cif
_audit_creation_date              2012-12-10T21:38:51-0500
_audit_creation_method            fapswitch 2.2
_symmetry_space_group_name_H-M    P1
_symmetry_Int_Tables_number       1
_space_group_crystal_system       triclinic
_cell_length_a                    16.093224
_cell_length_b                    16.886656
_cell_length_c                    18.990963
_cell_angle_alpha                 90.251597
_cell_angle_beta                  91.884568
_cell_angle_gamma                 86.452725
_cell_volume                      5148.30954074

loop_
_atom_site_label
_atom_site_type_symbol
_atom_type_description
_atom_site_fract_x
_atom_site_fract_y
_atom_site_fract_z
_atom_type_partial_charge
C1    C     C_R   0.487884 0.652644 0.499234 0.916622
C2    C     C_R   0.512259 0.347109 0.499890 0.949584
C3    C     C_R   0.477943 0.738158 0.498595 -0.188200
C4    C     C_R   0.522298 0.261278 0.495726 -0.186848
C5    C     C_R   0.534640 0.780269 0.538530 -0.269486
C6    C     C_R   0.459456 0.221414 0.460825 -0.281188
C7    C     C_R   0.528079 0.861982 0.538346 -0.167553
C8    C     C_R   0.463580 0.139702 0.459103 -0.176204
C9    C     C_R   0.464882 0.902833 0.497371 0.202067
C10   C     C_R   0.529554 0.096416 0.494564 0.211376
C11   C     C_R   0.405307 0.860967 0.459921 0.185421
C12   C     C_R   0.594643 0.135686 0.527097 0.174975
C13   C     C_R   0.412947 0.778090 0.458586 0.397186
C14   C     C_R   0.592930 0.218677 0.525822 0.390423
C15   C     C_R   0.761126 0.474225 0.455886 -0.027432
C16   C     C_R   0.238727 0.526897 0.543469 0.018888
C17   C     C_R   0.847970 0.477805 0.454249 0.177616
C18   C     C_R   0.151938 0.522850 0.545396 0.189314
C19   C     C_R   0.890190 0.518241 0.509022 0.274536
C20   C     C_R   0.109849 0.481227 0.491273 0.271622
C21   C     C_R   0.842371 0.554988 0.561863 -0.297549
C22   C     C_R   0.157798 0.443711 0.438891 -0.294725
C23   C     C_R   0.499341 0.500276 0.634948 0.944113
C24   C     C_R   0.500191 0.503110 0.365172 0.902924
C25   C     C_R   0.755767 0.549839 0.560970 -0.020475
C26   C     C_R   0.244377 0.449108 0.439643 -0.030400
C27   C     C_R   0.434494 0.481478 0.750821 0.283107
C28   C     C_R   0.553613 0.567757 0.258612 0.264036
C29   C     C_R   0.428234 0.503088 0.821103 -0.242752
C30   C     C_R   0.543952 0.585299 0.187329 -0.250339
C31   C     C_R   0.483810 0.554531 0.852585 -0.066625
C32   C     C_R   0.478931 0.555310 0.146440 -0.084344
C33   C     C_R   0.547603 0.584180 0.813218 0.515747
C34   C     C_R   0.421329 0.508047 0.178018 0.509491
C35   C     C_R   0.552110 0.564292 0.741876 -0.352679
C36   C     C_R   0.432962 0.487993 0.248897 -0.343246
C37   C     C_R   0.496402 0.512946 0.710635 -0.159707
C38   C     C_R   0.498150 0.517711 0.289604 -0.164194
C39   C     C_R   0.476643 0.568424 0.070294 0.341950
C40   C     C_R   0.479279 0.569296 0.928257 0.354551
H1    H     H_    0.872274 0.587736 0.603707 0.196782
H2    H     H_    0.128020 0.410152 0.397526 0.196643
H3    H     H_    0.719469 0.578587 0.601825 0.139115
H4    H     H_    0.280786 0.419688 0.399197 0.140894
H5    H     H_    0.380972 0.477591 0.851714 0.205961
H6    H     H_    0.587456 0.623032 0.163806 0.204973
H7    H     H_    0.597276 0.591381 0.710129 0.164095
H8    H     H_    0.390317 0.449252 0.272319 0.173876
H9    H     H_    0.406576 0.253564 0.435130 0.193271
H10   H     H_    0.584038 0.749836 0.570051 0.190190
H11   H     H_    0.413917 0.110425 0.431712 0.205062
H12   H     H_    0.573031 0.893370 0.569616 0.208065
H13   H     H_    0.271376 0.558079 0.584707 0.176676
H14   H     H_    0.728404 0.443838 0.414200 0.172900
N1    N     N_R   0.549575 0.580120 0.967377 -0.126607
N2    N     N_R   0.405662 0.560860 0.031159 -0.118683
N3    N     N_R   0.548253 0.579883 0.037180 -0.171751
N4    N     N_R   0.406959 0.561101 0.961343 -0.168935
N5    N     N_2   0.461613 0.985942 0.491409 -0.124493
N6    N     N_2   0.531298 0.013308 0.499870 -0.127887
N7    N     N_R   0.716910 0.509720 0.508510 -0.106268
N8    N     N_R   0.283090 0.490280 0.491490 -0.109106
N9    N     N_2   0.977926 0.528639 0.511048 -0.095379
N10   N     N_2   0.022102 0.470758 0.489307 -0.105823
O1    O     O_R   0.422540 0.612660 0.496960 -0.579422
O2    O     O_R   0.577460 0.387340 0.503040 -0.603959
O3    O     O_R   0.561840 0.618900 0.502420 -0.605355
O4    O     O_R   0.438160 0.381100 0.497580 -0.606620
O5    O     O_R   0.430320 0.496890 0.599130 -0.590061
O6    O     O_R   0.569680 0.503110 0.400870 -0.583794
O7    O     O_R   0.569630 0.503130 0.604590 -0.628704
O8    O     O_R   0.430370 0.496870 0.395410 -0.642774
Zn1   Zn    Zn3+2 0.406980 0.495830 0.496350 0.994838
Zn2   Zn    Zn3+2 0.593020 0.504170 0.503650 0.986122
Br1   Br    Br    0.359014 0.406378 0.714049 -0.431786
Br2   Br    Br    0.640496 0.618537 0.310214 -0.466959
Br3   Br    Br    0.098094 0.568954 0.625960 -0.445507
Br4   Br    Br    0.901889 0.432259 0.373531 -0.473610
O9    O     O_3   0.599452 0.638608 0.843110 -0.595086
C41   C     C_3   0.683200 0.608059 0.842110 0.092402
H15   H     H_    0.707484 0.611233 0.788118 0.141687
H16   H     H_    0.690105 0.545476 0.861092 0.149181
C42   C     C_3   0.736131 0.657888 0.890631 -0.719889
H17   H     H_    0.714165 0.655353 0.945366 0.266109
H18   H     H_    0.802225 0.634772 0.890044 0.209724
H19   H     H_    0.731836 0.720560 0.872676 0.262815
O10   O     O_3   0.358522 0.475115 0.138388 -0.588407
C43   C     C_3   0.281457 0.513992 0.155315 0.077965
H20   H     H_    0.282741 0.579475 0.148497 0.144778
H21   H     H_    0.265283 0.500871 0.210433 0.141113
C44   C     C_3   0.213427 0.484608 0.106164 -0.710403
H22   H     H_    0.209602 0.419570 0.112319 0.260328
H23   H     H_    0.152473 0.514751 0.118960 0.210022
H24   H     H_    0.227178 0.497773 0.050637 0.266131
Br5   Br    Br    0.316093 0.916842 0.407364 -0.424974
Br6   Br    Br    0.682116 0.075908 0.578792 -0.434847
O11   O     O_3   0.356110 0.736513 0.419323 -0.561650
C45   C     C_3   0.388740 0.720169 0.352254 0.156423
H25   H     H_    0.449086 0.684269 0.356617 0.126769
H26   H     H_    0.398172 0.776140 0.323569 0.167289
C46   C     C_3   0.327604 0.673055 0.309028 -0.768799
H27   H     H_    0.266920 0.707717 0.302663 0.273436
H28   H     H_    0.352621 0.660174 0.256122 0.187431
H29   H     H_    0.317851 0.616129 0.335704 0.259269
O12   O     O_3   0.654697 0.257738 0.561473 -0.564632
C47   C     C_3   0.723059 0.262623 0.517112 0.143525
H30   H     H_    0.705256 0.299070 0.469664 0.135445
H31   H     H_    0.747475 0.202932 0.499498 0.169048
C48   C     C_3   0.792938 0.301452 0.557515 -0.717705
H32   H     H_    0.814772 0.264017 0.603206 0.272991
H33   H     H_    0.845948 0.308401 0.522530 0.214443
H34   H     H_    0.770458 0.360800 0.576980 0.250481

loop_
_geom_bond_atom_site_label_1
_geom_bond_atom_site_label_2
_ccdc_geom_bond_type
O10   C43   S    
C46   H27   S    
C27   C29   A    
C23   O5    A    
C2    C4    S    
C35   H7    S    
C25   H3    S    
O11   C45   S    
C24   O6    A    
C19   C21   A    
C7    H12   S    
C2    O4    A    
C48   H33   S    
C41   H15   S    
C47   H30   S    
C39   N3    A    
O1    Zn1   S    
C31   C40   S    
C7    C9    A    
C32   C39   S    
C16   H13   S    
C1    O3    A    
C14   O12   S    
C39   N2    A    
C19   N9    S    
O6    Zn2   S    
C24   C38   S    
C31   C33   A    
N8    Zn1   S    
O5    Zn1   S    
C18   C20   A    
C3    C13   A    
C26   N8    A    
N5    N6    D    
C46   H28   S    
C4    C14   A    
C16   N8    A    
C41   C42   S    
C27   Br1   S    
C40   N4    A    
C26   H4    S    
C15   H14   S    
C23   O7    A    
C4    C6    A    
C48   H34   S    
C44   H22   S    
C5    C7    A    
C33   O9    S    
C6    C8    A    
C2    O2    A    
O4    Zn1   S    
C23   C37   S    
O9    C41   S    
C29   H5    S    
C1    C3    S    
C32   C34   A    
C20   N10   S    
C10   N6    S    
C44   H23   S    
C1    O1    A    
C42   H17   S    
C43   C44   S    
C28   C38   A    
C40   N1    A    
C15   N7    A    
O3    Zn2   S    
C25   N7    A    
C9    C11   A    
C8    H11   S    
C10   C12   A    
C21   H1    S    
C41   H16   S    
C42   H18   S    
C43   H21   S    
C46   H29   S    
C45   H26   S    
N1    N3    A    
C5    H10   S    
C28   Br2   S    
C24   O8    A    
C11   Br5   S    
C15   C17   A    
C21   C25   A    
C35   C37   A    
C30   H6    S    
C8    C10   A    
C20   C22   A    
O8    Zn1   S    
C3    C5    A    
O7    Zn2   S    
N7    Zn2   S    
C45   C46   S    
O12   C47   S    
C28   C30   A    
C12   C14   A    
C29   C31   A    
C48   H32   S    
C44   H24   S    
C30   C32   A    
C11   C13   A    
C33   C35   A    
C22   H2    S    
C47   H31   S    
C27   C37   A    
C18   Br3   S    
C36   C38   A    
C17   Br4   S    
C17   C19   A    
N2    N4    A    
C36   H8    S    
C34   C36   A    
C34   O10   S    
C6    H9    S    
C13   O11   S    
N9    N10   D    
C42   H19   S    
C43   H20   S    
C16   C18   A    
C45   H25   S    
C22   C26   A    
C12   Br6   S    
C9    N5    S    
C47   C48   S    
O2    Zn2   S    
