data_mof_unit_26256.cif
_audit_creation_date              2012-12-11T16:05:13-0500
_audit_creation_method            fapswitch 2.2
_symmetry_space_group_name_H-M    P1
_symmetry_Int_Tables_number       1
_space_group_crystal_system       triclinic
_cell_length_a                    10.627438
_cell_length_b                    10.613975
_cell_length_c                    16.900555
_cell_angle_alpha                 98.290274
_cell_angle_beta                  98.490686
_cell_angle_gamma                 61.902468
_cell_volume                      1657.16960104

loop_
_atom_site_label
_atom_site_type_symbol
_atom_type_description
_atom_site_fract_x
_atom_site_fract_y
_atom_site_fract_z
_atom_type_partial_charge
Br1   Br    Br    0.076886 0.639684 0.810932 -0.457238
C1    C     C_R   0.354455 0.775901 0.398631 0.548042
C2    C     C_3   0.277843 0.771820 0.247844 -0.097395
C3    C     C_3   0.335612 0.835406 0.323197 0.053717
C4    C     C_R   0.371852 0.348153 0.358363 0.537297
C5    C     C_3   0.452369 0.830835 0.277419 -0.113755
C6    C     C_3   0.348082 0.985203 0.255172 -0.141860
C7    C     C_3   0.232263 0.988073 0.302614 -0.116933
C8    C     C_3   0.174123 0.924941 0.226494 -0.076882
C9    C     C_3   0.289459 0.921516 0.180773 0.028947
C10   C     C_3   0.472031 0.329249 0.802727 -0.154664
C11   C     C_3   0.382873 0.464209 0.755863 -0.127417
C12   C     C_3   0.640943 0.437003 0.233791 -0.185646
C13   C     C_3   0.381532 0.365701 0.680231 0.017646
C14   C     C_3   0.471363 0.231571 0.725822 -0.112348
C15   C     C_3   0.330799 0.238130 0.744325 -0.133034
C16   C     C_R   0.707353 0.414967 0.390371 0.566610
C17   C     C_3   0.241130 0.372348 0.698044 -0.087067
C18   C     C_3   0.242693 0.469087 0.775040 0.177017
C19   C     C_3   0.331787 0.335989 0.820694 0.057550
C20   C     C_1   0.816885 0.341759 0.709666 -0.028718
C21   C     C_1   0.842957 0.315328 0.778309 -0.029487
C22   C     C_1   0.336087 0.817224 0.708858 -0.041069
C23   C     C_3   0.746587 0.384606 0.308183 0.057762
C24   C     C_1   0.311137 0.844149 0.777678 -0.029038
C25   C     C_R   0.885059 0.313097 0.087851 0.533648
C26   C     C_R   0.320005 0.300510 0.119713 0.528325
C27   C     C_R   0.256221 0.960856 0.098906 0.551293
C28   C     C_R   0.355667 0.773882 0.626622 0.542105
C29   C     C_R   0.883995 0.299844 0.861097 0.538298
C30   C     C_R   0.309526 0.295572 0.893288 0.556602
C31   C     C_R   0.279284 0.886261 0.858555 0.569596
C32   C     C_R   0.409325 0.377402 0.600956 0.557094
C33   C     C_R   0.774301 0.379329 0.629586 0.549279
C34   C     C_3   0.825635 0.236057 0.264388 0.244813
C35   C     C_1   0.346092 0.339889 0.274460 -0.058502
C36   C     C_1   0.334133 0.329510 0.203172 -0.053657
C37   C     C_3   0.722066 0.287202 0.188545 -0.101571
C38   C     C_3   0.926813 0.284728 0.237376 -0.111188
C39   C     C_3   0.846232 0.434477 0.281078 -0.128198
C40   C     C_3   0.741282 0.487548 0.205927 -0.136283
C41   C     C_3   0.821753 0.338300 0.162676 0.019881
C42   C     C_3   0.392910 0.769044 0.201270 -0.125742
Cl1   Cl    Cl    0.869028 0.071449 0.303735 -0.610701
Cr1   Cr    Cr6+3 0.608340 0.611040 0.520430 1.036814
Cr2   Cr    Cr6+3 0.287650 0.601120 0.489350 1.054029
Cr3   Cr    Cr6+3 0.604040 0.287870 0.490280 1.075922
Cr4   Cr    Cr6+3 0.054020 0.052700 0.970850 1.061269
Cr5   Cr    Cr6+3 0.059230 0.375120 0.993390 1.066865
Cr6   Cr    Cr6+3 0.374950 0.061200 0.992340 1.038276
H1    H     H_    0.523389 0.493857 0.236164 0.101177
H2    H     H_    0.672388 0.226711 0.148828 0.151079
H3    H     H_    0.044432 0.227022 0.235585 0.099332
H4    H     H_    0.897774 0.494630 0.319425 0.150820
H5    H     H_    0.708756 0.590048 0.180122 0.141027
H6    H     H_    0.249179 0.683323 0.245919 0.135932
H7    H     H_    0.453058 0.684623 0.155020 0.128516
H8    H     H_    0.566885 0.791140 0.300217 0.142704
H9    H     H_    0.378859 0.071187 0.255624 0.138974
H10   H     H_    0.168440 0.075473 0.346670 0.153137
H11   H     H_    0.062962 0.960525 0.198837 0.187220
H12   H     H_    0.408278 0.554547 0.758940 0.115457
H13   H     H_    0.565327 0.312074 0.847304 0.127969
H14   H     H_    0.565772 0.133541 0.704630 0.157326
H15   H     H_    0.308839 0.144870 0.740818 0.124128
H16   H     H_    0.147218 0.389754 0.653898 0.151733
O1    O     O_R   0.751220 0.499230 0.435170 -0.519641
O2    O     O_R   0.412990 0.180750 0.091610 -0.519481
O3    O     O_R   0.366620 0.943130 0.065760 -0.492025
O4    O     O_R   0.477220 0.727600 0.436870 -0.523392
O5    O     O_R   0.160510 0.906330 0.879210 -0.455066
O6    O     O_R   0.930190 0.179050 0.889450 -0.496910
O7    O     O_R   0.909140 0.398170 0.896710 -0.485621
O8    O     O_R   0.186190 0.363460 0.918830 -0.465539
O9    O     O_R   0.401670 0.173200 0.913310 -0.518304
O10   O     O_R   0.356120 0.936130 0.900470 -0.498585
O11   O     O_3   0.162740 0.163010 0.985530 -0.295644
O12   O     O_R   0.297880 0.469080 0.560050 -0.489770
O13   O     O_R   0.258650 0.745120 0.411470 -0.487223
O14   O     O_R   0.297070 0.467240 0.395960 -0.499786
O15   O     O_R   0.488830 0.252610 0.387790 -0.485798
O16   O     O_R   0.724400 0.302390 0.420980 -0.431904
O17   O     O_R   0.752100 0.501210 0.612190 -0.488170
O18   O     O_R   0.478040 0.729440 0.600970 -0.495594
O19   O     O_R   0.259530 0.747110 0.588490 -0.495870
O20   O     O_R   0.489720 0.254590 0.564810 -0.511565
O21   O     O_R   0.725220 0.304230 0.585080 -0.508380
O22   O     O_3   0.500010 0.500010 0.500020 -0.323601
O23   O     O_R   0.171830 0.913880 0.057510 -0.503947
O24   O     O_R   0.940690 0.186050 0.054730 -0.523114
O25   O     O_R   0.920470 0.405720 0.075010 -0.508336
O26   O     O_R   0.196690 0.370460 0.084120 -0.493568

loop_
_geom_bond_atom_site_label_1
_geom_bond_atom_site_label_2
_ccdc_geom_bond_type
C6    C9    S    
C40   C41   S    
C5    H8    S    
C1    C3    S    
C18   C19   S    
C3    C7    S    
C13   C32   S    
C12   C40   S    
C6    C7    S    
C2    C42   S    
C8    H11   S    
C22   C28   S    
C35   C36   T    
Cr6   O3    S    
Cr5   O25   S    
C37   C41   S    
C10   H13   S    
Cr2   O13   S    
C32   O12   A    
C37   H2    S    
C14   C15   S    
C4    C35   S    
C4    O15   A    
C17   C18   S    
Cr3   O16   S    
C13   C17   S    
C40   H5    S    
C26   O2    A    
C12   H1    S    
C10   C14   S    
C27   O3    A    
C7    C8    S    
Cr1   O1    S    
C14   H14   S    
C27   O23   A    
C1    O13   A    
C38   C41   S    
C8    C9    S    
C28   O19   A    
Cr2   O19   S    
C24   C31   S    
C22   C24   T    
C9    C42   S    
Cr4   O24   S    
C20   C21   T    
Cr1   O17   S    
Cr4   O6    S    
C6    H9    S    
C31   O5    A    
Cr2   O22   S    
C10   C19   S    
Br1   C18   S    
C23   C34   S    
C16   O1    A    
C16   C23   S    
Cr3   O20   S    
Cr1   O22   S    
C28   O18   A    
C3    C5    S    
C38   C39   S    
Cr2   O12   S    
C29   O7    A    
C30   O8    A    
C20   C33   S    
C25   O25   A    
C12   C23   S    
Cr3   O21   S    
Cr4   O11   S    
C34   C38   S    
C32   O20   A    
C2    C8    S    
Cr6   O10   S    
C11   H12   S    
C2    H6    S    
C30   O9    A    
C15   C19   S    
C34   C37   S    
C26   O26   A    
C4    O14   A    
C34   Cl1   S    
C12   C37   S    
C39   C40   S    
C11   C13   S    
C39   H4    S    
C5    C42   S    
Cr5   O7    S    
Cr1   O18   S    
C17   H16   S    
C33   O17   A    
Cr5   O26   S    
C2    C3    S    
Cr6   O11   S    
C25   C41   S    
C9    C27   S    
C21   C29   S    
Cr1   O4    S    
Cr5   O8    S    
C16   O16   A    
C31   O10   A    
C29   O6    A    
C10   C11   S    
C5    C6    S    
C25   O24   A    
Cr4   O23   S    
Cr3   O22   S    
Cr6   O9    S    
C7    H10   S    
Cr2   O14   S    
C38   H3    S    
C26   C36   S    
C11   C18   S    
C23   C39   S    
Cr5   O11   S    
C33   O21   A    
Cr3   O15   S    
C42   H7    S    
C15   C17   S    
C13   C14   S    
C15   H15   S    
Cr4   O5    S    
C1    O4    A    
Cr6   O2    S    
C19   C30   S    
