data_mof_unit_53660.cif
_audit_creation_date              2012-10-26T18:33:38-0400
_audit_creation_method            fapswitch 2.2
_symmetry_space_group_name_H-M    P1
_symmetry_Int_Tables_number       1
_space_group_crystal_system       triclinic
_cell_length_a                    15.073159
_cell_length_b                    13.799301
_cell_length_c                    10.896183
_cell_angle_alpha                 90.157562
_cell_angle_beta                  85.940561
_cell_angle_gamma                 90.16636
_cell_volume                      2260.69286372

loop_
_atom_site_label
_atom_site_type_symbol
_atom_type_description
_atom_site_fract_x
_atom_site_fract_y
_atom_site_fract_z
_atom_type_partial_charge
C1    C     C_R   0.329142 0.499685 0.497415 0.512602
C2    C     C_R   0.033711 0.481718 0.720088 -0.072460
C3    C     C_R   0.087171 0.484162 0.609500 0.031446
C4    C     C_R   0.497171 0.499669 0.259998 0.544553
C5    C     C_R   0.046998 0.498918 0.498328 0.045629
C6    C     C_R   0.100249 0.510902 0.387528 0.025633
C7    C     C_R   0.060445 0.517692 0.276129 -0.109573
C8    C     C_R   0.968592 0.509479 0.273757 -0.088699
C9    C     C_R   0.180256 0.472440 0.606810 -0.006611
C10   C     C_R   0.232444 0.498360 0.499438 -0.012569
C11   C     C_R   0.192501 0.516703 0.390214 -0.090202
C12   C     C_3   0.582081 0.526048 0.918981 -0.279081
C13   C     C_R   0.434594 0.792320 0.568492 0.067394
C14   C     C_R   0.431318 0.207393 0.561581 0.046813
C15   C     C_R   0.563067 0.794331 0.429497 0.168852
C16   C     C_R   0.568144 0.204520 0.439660 0.177717
C17   C     C_R   0.563599 0.896808 0.430350 -0.003973
C18   C     C_R   0.565809 0.102094 0.435235 -0.014974
C19   C     C_R   0.671166 0.500451 0.496485 0.512175
C20   C     C_R   0.495574 0.947920 0.498872 0.024656
C21   C     C_R   0.495737 0.051274 0.499229 0.028021
C22   C     C_R   0.428459 0.895600 0.566876 -0.006788
C23   C     C_R   0.820454 0.491134 0.383053 -0.005521
C24   C     C_R   0.427180 0.103803 0.563913 -0.011428
C25   C     C_R   0.631041 0.949207 0.364134 -0.115642
C26   C     C_R   0.632329 0.049409 0.366883 -0.125259
C27   C     C_R   0.357432 0.051484 0.629584 -0.021871
C28   C     C_R   0.358464 0.947819 0.632024 -0.013887
C29   C     C_R   0.494043 0.499959 0.740212 0.490964
C30   C     C_3   0.416628 0.567831 0.080404 -0.089966
C31   C     C_3   0.470434 0.394189 0.073567 -0.093413
C32   C     C_3   0.423266 0.578178 0.936922 -0.086548
C33   C     C_3   0.464165 0.396159 0.931678 -0.105311
C34   C     C_R   0.768399 0.502703 0.494729 -0.066295
C35   C     C_3   0.583112 0.531185 0.059762 -0.277767
C36   C     C_3   0.492587 0.498714 0.122042 -0.059734
C37   C     C_3   0.488212 0.499483 0.878613 -0.008995
C38   C     C_2   0.415972 0.668122 0.137148 0.266959
C39   C     C_2   0.535472 0.315655 0.102707 0.276796
C40   C     C_2   0.223441 0.425816 0.709310 0.287975
C41   C     C_2   0.631076 0.742353 0.351310 0.272061
C42   C     C_2   0.649316 0.253010 0.386607 0.307930
C43   C     C_2   0.281010 0.103691 0.692894 0.226084
C44   C     C_2   0.283188 0.895453 0.698360 0.217447
C45   C     C_R   0.808945 0.524771 0.603692 -0.021873
C46   C     C_2   0.333853 0.583011 0.881738 0.245744
C47   C     C_2   0.376164 0.356068 0.896089 0.232298
C48   C     C_2   0.775476 0.477065 0.267491 0.240487
C49   C     C_2   0.758622 0.585428 0.696778 0.211340
C50   C     C_3   0.890556 0.476029 0.846432 -0.238956
C51   C     C_3   0.908193 0.557147 0.937691 -0.377672
C52   C     C_R   0.900524 0.506070 0.609948 0.049106
C53   C     C_R   0.953635 0.500914 0.497414 0.018273
C54   C     C_R   0.913862 0.499843 0.383428 0.030412
C55   C     C_R   0.941371 0.492469 0.722734 0.022751
Cu1   Cu    Cu3+1 0.499990 0.597420 0.500010 0.988281
Cu2   Cu    Cu3+1 0.499990 0.402580 0.500010 1.003407
H1    H     H_    0.063531 0.473554 0.806823 0.182808
H2    H     H_    0.405518 0.373004 0.121336 0.197531
H3    H     H_    0.454184 0.649706 0.912400 0.091176
H4    H     H_    0.514733 0.345588 0.887890 0.097742
H5    H     H_    0.598587 0.606278 0.087428 0.188578
H6    H     H_    0.637466 0.484665 0.089067 0.144611
H7    H     H_    0.602556 0.598297 0.881940 0.149385
H8    H     H_    0.631821 0.471852 0.882309 0.114005
H9    H     H_    0.472015 0.716668 0.118655 0.153641
H10   H     H_    0.605198 0.321826 0.071491 0.145218
H11   H     H_    0.292087 0.441697 0.722963 0.097670
H12   H     H_    0.233662 0.530897 0.306388 0.147457
H13   H     H_    0.692021 0.718746 0.388993 0.109376
H14   H     H_    0.713045 0.235776 0.421616 0.076135
H15   H     H_    0.258785 0.085665 0.786899 0.116898
H16   H     H_    0.259425 0.917739 0.790345 0.110030
H17   H     H_    0.331653 0.598350 0.784439 0.101497
H18   H     H_    0.374147 0.312789 0.813266 0.116820
H19   H     H_    0.713712 0.514543 0.255436 0.115828
H20   H     H_    0.688020 0.575284 0.713690 0.121186
H21   H     H_    0.974295 0.547038 0.974607 0.137140
H22   H     H_    0.907925 0.629478 0.893849 0.224383
H23   H     H_    0.100494 0.527174 0.190351 0.158685
H24   H     H_    0.856163 0.555991 0.014947 0.168788
H25   H     H_    0.818234 0.466537 0.839458 0.149239
H26   H     H_    0.912465 0.406310 0.885202 0.168757
H27   H     H_    0.941033 0.514230 0.185624 0.154089
H28   H     H_    0.387550 0.749402 0.624480 0.166624
H29   H     H_    0.380728 0.250208 0.610697 0.164851
H30   H     H_    0.684504 0.913447 0.310264 0.143596
H31   H     H_    0.686169 0.084880 0.313339 0.130401
H32   H     H_    0.352504 0.532641 0.111955 0.195698
N1    N     N_R   0.499930 0.743810 0.499950 -0.259837
N2    N     N_R   0.499930 0.256190 0.499950 -0.251238
O1    O     O_R   0.370250 0.582280 0.500040 -0.482723
O2    O     O_2   0.509257 0.242405 0.156698 -0.457995
O3    O     O_2   0.185156 0.363607 0.772687 -0.432761
O4    O     O_2   0.623006 0.733900 0.241330 -0.558793
O5    O     O_2   0.647122 0.308356 0.300331 -0.457586
O6    O     O_2   0.239960 0.164364 0.638653 -0.447513
O7    O     O_2   0.244636 0.829745 0.648738 -0.474009
O8    O     O_2   0.263802 0.574546 0.944354 -0.464663
O9    O     O_2   0.307122 0.370631 0.958913 -0.443507
O10   O     O_2   0.804524 0.420518 0.188251 -0.511784
O11   O     O_2   0.794391 0.652434 0.747409 -0.507629
O12   O     O_R   0.370250 0.417720 0.500040 -0.512761
O13   O     O_R   0.499970 0.582270 0.317700 -0.461202
O14   O     O_R   0.499970 0.417730 0.317700 -0.435980
O15   O     O_R   0.629730 0.582260 0.499980 -0.536115
O16   O     O_R   0.629730 0.417740 0.499980 -0.479407
O17   O     O_R   0.500000 0.582270 0.682320 -0.533673
O18   O     O_R   0.500000 0.417730 0.682320 -0.539506
O19   O     O_2   0.352255 0.695543 0.203530 -0.459899

loop_
_geom_bond_atom_site_label_1
_geom_bond_atom_site_label_2
_ccdc_geom_bond_type
C14   H29   S    
Cu2   O14   S    
C46   O8    D    
C4    C36   S    
C43   H15   S    
C13   N1    A    
C18   C21   A    
C48   H19   S    
C35   C36   S    
C18   C26   A    
C24   C27   A    
C7    C8    A    
C53   C54   A    
C42   O5    D    
C49   O11   D    
C29   O18   A    
C2    C55   A    
C5    C6    A    
C12   H7    S    
C31   H2    S    
C25   H30   S    
C17   C20   A    
Cu1   Cu2   S    
C30   C38   S    
C14   C24   A    
C12   C37   S    
Cu1   O17   S    
C44   O7    D    
Cu2   O18   S    
C38   H9    S    
C31   C39   S    
C31   C33   S    
C29   O17   A    
C38   O19   D    
C9    C10   A    
C51   H24   S    
C52   C55   A    
Cu1   N1    S    
C22   C28   A    
C32   C46   S    
C30   H32   S    
C39   O2    D    
C50   H26   S    
Cu2   O12   S    
Cu1   O13   S    
C8    C54   A    
C6    C11   A    
C45   C52   A    
C25   C26   A    
C28   C44   S    
C9    C40   S    
C33   C37   S    
C47   O9    D    
C3    C9    A    
C45   C49   S    
C23   C34   A    
C11   H12   S    
C50   C51   S    
C34   C45   A    
C32   C37   S    
C12   C35   S    
Cu1   O15   S    
C33   H4    S    
Cu2   O16   S    
C20   C22   A    
C1    O1    A    
C33   C47   S    
C32   H3    S    
C29   C37   S    
C16   C42   S    
C46   H17   S    
C52   C53   A    
C50   H25   S    
C23   C54   A    
C4    O14   A    
C5    C53   A    
C15   C17   A    
C1    O12   A    
C23   C48   S    
Cu2   N2    S    
C8    H27   S    
C39   H10   S    
C16   C18   A    
C1    C10   S    
C43   O6    D    
C40   O3    D    
C3    C5    A    
C19   C34   S    
C2    H1    S    
C6    C7    A    
C12   H8    S    
C50   C55   S    
C30   C36   S    
C17   C25   A    
C2    C3    A    
C51   H21   S    
C47   H18   S    
C15   N1    A    
C30   C32   S    
C41   O4    D    
C48   O10   D    
C4    O13   A    
C42   H14   S    
C49   H20   S    
C13   C22   A    
C35   H5    S    
C44   H16   S    
C51   H22   S    
C14   N2    A    
C10   C11   A    
C15   C41   S    
C19   O15   A    
C27   C43   S    
Cu1   O1    S    
C20   C21   A    
C16   N2    A    
C26   H31   S    
C40   H11   S    
C21   C24   A    
C13   H28   S    
C27   C28   A    
C31   C36   S    
C7    H23   S    
C35   H6    S    
C41   H13   S    
C19   O16   A    
