data_mof_unit_6180.cif
_audit_creation_date              2012-10-26T20:31:22-0400
_audit_creation_method            fapswitch 2.2
_symmetry_space_group_name_H-M    P1
_symmetry_Int_Tables_number       1
_space_group_crystal_system       triclinic
_cell_length_a                    11.659269
_cell_length_b                    10.875308
_cell_length_c                    9.607806
_cell_angle_alpha                 90.898184
_cell_angle_beta                  91.481275
_cell_angle_gamma                 91.343406
_cell_volume                      1217.34850952

loop_
_atom_site_label
_atom_site_type_symbol
_atom_type_description
_atom_site_fract_x
_atom_site_fract_y
_atom_site_fract_z
_atom_type_partial_charge
C1    C     C_R   0.492934 0.262850 0.498765 0.556419
C2    C     C_R   0.403619 0.464605 0.069326 0.358844
C3    C     C_R   0.407208 0.460331 0.920163 -0.022453
C4    C     C_R   0.284169 0.498893 0.498960 0.523878
C5    C     C_R   0.599546 0.523745 0.930692 0.084948
C6    C     C_3   0.675329 0.636881 0.925943 -0.121675
C7    C     C_3   0.658235 0.652497 0.083217 0.144140
C8    C     C_R   0.496792 0.737626 0.500662 0.533157
C9    C     C_R   0.715790 0.498763 0.501413 0.542581
C10   C     C_1   0.162418 0.495897 0.498744 -0.053545
C11   C     C_1   0.059822 0.493692 0.501420 -0.086804
C12   C     C_R   0.482899 0.129464 0.497008 -0.013394
C13   C     C_1   0.940020 0.493071 0.503769 -0.068933
C14   C     C_1   0.837461 0.495139 0.503993 -0.023973
C15   C     C_R   0.506487 0.068135 0.619467 -0.068385
C16   C     C_3   0.275916 0.153518 0.314511 0.026784
C17   C     C_3   0.189036 0.142708 0.194103 -0.381717
C18   C     C_3   0.785417 0.765851 0.226678 -0.000486
C19   C     C_3   0.911191 0.773908 0.272819 -0.387126
C20   C     C_3   0.304852 0.825540 0.259713 0.030426
C21   C     C_3   0.265724 0.791337 0.111868 -0.344584
C22   C     C_3   0.619871 0.967550 0.908063 -0.034522
C23   C     C_R   0.442588 0.061229 0.379262 0.255475
C24   C     C_3   0.610435 0.032170 0.049071 -0.356025
C25   C     C_3   0.259653 0.128359 0.830149 -0.018551
C26   C     C_3   0.137390 0.160482 0.788479 -0.389530
C27   C     C_3   0.202040 0.458844 0.060665 -0.051263
C28   C     C_3   0.103343 0.474883 0.158706 -0.359132
C29   C     C_3   0.800333 0.608709 0.886017 -0.227712
C30   C     C_3   0.869500 0.727218 0.858436 -0.306161
C31   C     C_3   0.995628 0.701396 0.835013 -0.461464
C32   C     C_R   0.448527 0.932515 0.379082 0.230940
C33   C     C_R   0.487605 0.871307 0.500592 -0.077522
C34   C     C_R   0.514917 0.940587 0.622182 -0.067666
C35   C     C_3   0.451575 0.938048 0.757436 0.194445
C36   C     C_3   0.435805 0.076011 0.746685 0.166816
C37   C     C_R   0.596975 0.530395 0.077542 0.159337
Cu1   Cu    Cu3+1 0.499990 0.499980 0.640670 0.927477
Cu2   Cu    Cu3+1 0.500010 0.500020 0.359330 1.033944
H1    H     H_    0.634787 0.707440 0.860564 0.181269
H2    H     H_    0.216442 0.202552 0.109002 0.175865
H3    H     H_    0.731195 0.779943 0.318894 0.150771
H4    H     H_    0.770603 0.841573 0.152228 0.096892
H5    H     H_    0.966575 0.756367 0.182712 0.146645
H6    H     H_    0.932199 0.867096 0.316527 0.086537
H7    H     H_    0.929085 0.705261 0.353862 0.163878
H8    H     H_    0.245960 0.895088 0.301499 0.108489
H9    H     H_    0.297455 0.742422 0.324726 0.149635
H10   H     H_    0.322117 0.719901 0.069348 0.172383
H11   H     H_    0.175625 0.756303 0.110725 0.062198
H12   H     H_    0.597599 0.726773 0.110336 0.144891
H13   H     H_    0.271395 0.872988 0.044602 0.158902
H14   H     H_    0.646338 0.035008 0.829037 0.113592
H15   H     H_    0.691713 0.903458 0.916289 0.121482
H16   H     H_    0.598499 0.963211 0.131440 0.188635
H17   H     H_    0.690295 0.086714 0.073585 0.082201
H18   H     H_    0.536630 0.094614 0.049117 0.194952
H19   H     H_    0.298979 0.207307 0.890490 0.134920
H20   H     H_    0.256758 0.045574 0.896510 0.134781
H21   H     H_    0.096190 0.083556 0.726690 0.151067
H22   H     H_    0.086773 0.176878 0.883024 0.085418
H23   H     H_    0.369313 0.884284 0.746818 0.143556
H24   H     H_    0.137778 0.245031 0.725020 0.159683
H25   H     H_    0.178380 0.382301 0.986900 0.108669
H26   H     H_    0.210698 0.545484 0.001376 0.105536
H27   H     H_    0.118689 0.559084 0.223759 0.154761
H28   H     H_    0.021973 0.484870 0.097893 0.105903
H29   H     H_    0.094664 0.393610 0.226110 0.163171
H30   H     H_    0.034996 0.661084 0.929631 0.144611
H31   H     H_    0.004387 0.636839 0.745765 0.166330
H32   H     H_    0.042469 0.788638 0.812533 0.137911
H33   H     H_    0.832871 0.772357 0.764803 0.150560
H34   H     H_    0.477185 0.137917 0.827298 0.122589
H35   H     H_    0.864794 0.791952 0.948084 0.168510
H36   H     H_    0.844292 0.554377 0.967599 0.188352
H37   H     H_    0.801123 0.550339 0.791443 0.167196
H38   H     H_    0.334280 0.426907 0.858360 0.123019
H39   H     H_    0.280907 0.250991 0.350387 0.187594
H40   H     H_    0.241585 0.097486 0.401374 0.114994
H41   H     H_    0.181282 0.046873 0.153972 0.131202
H42   H     H_    0.103537 0.171249 0.229109 0.086920
N1    N     N_R   0.500710 0.500930 0.147930 -0.236518
N2    N     N_R   0.500710 0.500890 0.852020 -0.267272
O1    O     O_R   0.500000 0.319640 0.618810 -0.496287
O2    O     O_3   0.760425 0.648773 0.165927 -0.547657
O3    O     O_3   0.419915 0.868827 0.256857 -0.528749
O4    O     O_3   0.517125 0.898485 0.875551 -0.574918
O5    O     O_3   0.321678 0.105347 0.709191 -0.590548
O6    O     O_3   0.303847 0.430541 0.137144 -0.530426
O7    O     O_R   0.500010 0.319680 0.381230 -0.466058
O8    O     O_R   0.337190 0.499990 0.618790 -0.514422
O9    O     O_R   0.337200 0.500030 0.381210 -0.449978
O10   O     O_R   0.499990 0.680320 0.618770 -0.494010
O11   O     O_R   0.500000 0.680360 0.381190 -0.476254
O12   O     O_R   0.662800 0.499970 0.618790 -0.519844
O13   O     O_R   0.662810 0.500010 0.381210 -0.458298
O14   O     O_3   0.385417 0.116831 0.269703 -0.532220

loop_
_geom_bond_atom_site_label_1
_geom_bond_atom_site_label_2
_ccdc_geom_bond_type
C1    O7    A    
C5    C37   A    
Cu1   N2    S    
Cu2   O9    S    
C35   C36   S    
C26   H24   S    
C21   H10   S    
C19   H7    S    
C22   H15   S    
C29   H37   S    
C36   O5    S    
C24   H16   S    
C12   C23   A    
C5    C6    S    
C22   C24   S    
C28   H29   S    
C26   H22   S    
C18   C19   S    
C18   H3    S    
C30   C31   S    
C5    N2    A    
C16   O14   S    
C34   C35   S    
C35   O4    S    
C27   H25   S    
C31   H31   S    
C16   C17   S    
C20   O3    S    
Cu1   O12   S    
C9    O12   A    
Cu2   O7    S    
C16   H39   S    
C4    O8    A    
C31   H32   S    
C13   C14   T    
C1    C12   S    
C21   H11   S    
C22   H14   S    
Cu1   Cu2   S    
C18   O2    S    
C28   H28   S    
C8    O11   A    
C10   C11   T    
C24   H18   S    
C25   C26   S    
Cu1   O8    S    
C17   H41   S    
C1    O1    A    
C2    O6    S    
C28   H27   S    
C9    C14   S    
Cu2   O11   S    
C29   C30   S    
C27   H26   S    
C12   C15   A    
C32   O3    S    
C33   C34   A    
C7    C37   S    
C22   O4    S    
C9    O13   A    
C20   H9    S    
C23   O14   S    
C3    N2    A    
C6    H1    S    
C37   N1    A    
C2    N1    A    
C25   H19   S    
C4    C10   S    
C3    H38   S    
C15   C36   S    
C19   H5    S    
C15   C34   A    
Cu1   O1    S    
C8    O10   A    
Cu2   N1    S    
C30   H33   S    
C19   H6    S    
C6    C7    S    
C29   H36   S    
C24   H17   S    
C16   H40   S    
C32   C33   A    
C2    C3    A    
C7    H12   S    
C18   H4    S    
C23   C32   A    
C11   C13   S    
C7    O2    S    
C30   H35   S    
Cu1   O10   S    
C27   O6    S    
C35   H23   S    
C17   H42   S    
C8    C33   S    
C25   O5    S    
C17   H2    S    
Cu2   O13   S    
C20   H8    S    
C36   H34   S    
C31   H30   S    
C6    C29   S    
C20   C21   S    
C27   C28   S    
C25   H20   S    
C26   H21   S    
C21   H13   S    
C4    O9    A    
