data_mof_unit_45174.cif
_audit_creation_date              2012-12-10T20:44:04-0500
_audit_creation_method            fapswitch 2.2
_symmetry_space_group_name_H-M    P1
_symmetry_Int_Tables_number       1
_space_group_crystal_system       triclinic
_cell_length_a                    17.512536
_cell_length_b                    10.68554
_cell_length_c                    9.901785
_cell_angle_alpha                 89.863565
_cell_angle_beta                  90.185282
_cell_angle_gamma                 91.320156
_cell_volume                      1852.42353067

loop_
_atom_site_label
_atom_site_type_symbol
_atom_type_description
_atom_site_fract_x
_atom_site_fract_y
_atom_site_fract_z
_atom_type_partial_charge
C1    C     C_R   0.496581 0.260318 0.500220 0.906245
C2    C     C_R   0.113725 0.455216 0.506500 0.153881
C3    C     C_R   0.491440 0.063401 0.622038 0.086063
C4    C     C_R   0.353547 0.498891 0.499903 0.867836
C5    C     C_R   0.482982 0.129078 0.501929 -0.112696
C6    C     C_R   0.457961 0.066414 0.385255 -0.253210
C7    C     C_R   0.456614 0.936332 0.383072 -0.018833
C8    C     C_R   0.481547 0.871181 0.499637 -0.149119
C9    C     C_R   0.490399 0.935952 0.620884 0.095425
C10   C     C_3   0.550890 0.929445 0.727587 -0.487242
C11   C     C_3   0.550996 0.071560 0.730949 -0.218737
C12   C     C_R   0.885302 0.449071 0.504265 0.148804
C13   C     C_R   0.453004 0.419766 0.070837 0.188343
C14   C     C_R   0.554440 0.566545 0.072029 -0.022600
C15   C     C_R   0.553989 0.566281 0.927265 -0.019776
C16   C     C_R   0.495999 0.739882 0.499525 0.875604
C17   C     C_R   0.453205 0.419434 0.928926 0.087775
C18   C     C_3   0.368275 0.410210 0.922124 -0.211337
C19   C     C_3   0.368005 0.411144 0.076096 -0.584386
C20   C     C_R   0.646523 0.497590 0.500249 0.877005
C21   C     C_R   0.846338 0.457821 0.626193 -0.149529
C22   C     C_R   0.768134 0.474877 0.624968 -0.155827
C23   C     C_1   0.965575 0.443456 0.505675 -0.051914
C24   C     C_R   0.728987 0.483852 0.501406 -0.048169
C25   C     C_R   0.768812 0.473333 0.379318 -0.167783
C26   C     C_R   0.847066 0.456333 0.380912 -0.150776
C27   C     C_1   0.433444 0.874936 0.259030 0.192739
C28   C     C_1   0.624125 0.128989 0.686721 0.236832
C29   C     C_2   0.613738 0.640934 0.145450 0.406439
C30   C     C_1   0.610682 0.638337 0.853715 0.317904
C31   C     C_2   0.341329 0.287802 0.862266 0.479451
C32   C     C_1   0.033382 0.445476 0.506502 -0.055366
C33   C     C_R   0.151156 0.510685 0.616381 -0.134196
C34   C     C_R   0.229878 0.527423 0.613283 -0.128152
C35   C     C_R   0.270863 0.488549 0.500095 -0.012823
C36   C     C_R   0.232570 0.433533 0.389905 -0.197623
C37   C     C_R   0.153864 0.416955 0.393137 -0.151665
H1    H     H_    0.876508 0.453146 0.721765 0.142997
H2    H     H_    0.877833 0.450500 0.286411 0.145326
H3    H     H_    0.119482 0.541835 0.703455 0.134899
H4    H     H_    0.258568 0.570969 0.698645 0.139182
H5    H     H_    0.263421 0.401220 0.302823 0.151123
H6    H     H_    0.124370 0.374955 0.307542 0.140605
H7    H     H_    0.443867 0.117984 0.294335 0.165896
H8    H     H_    0.599987 0.693354 0.234230 0.126367
H9    H     H_    0.365307 0.200420 0.896687 0.046380
H10   H     H_    0.529030 0.885784 0.822312 0.201691
H11   H     H_    0.604335 0.889747 0.687558 0.215901
H12   H     H_    0.528970 0.110810 0.826739 0.153126
H13   H     H_    0.342177 0.494286 0.876497 0.186519
H14   H     H_    0.342777 0.497034 0.118576 0.224963
H15   H     H_    0.738557 0.480600 0.720500 0.173509
H16   H     H_    0.347650 0.322057 0.123544 0.184967
H17   H     H_    0.739707 0.477827 0.282940 0.199410
N1    N     N_R   0.499490 0.499140 0.142800 -0.138575
N2    N     N_R   0.499490 0.499180 0.857150 -0.145730
N3    N     N_1   0.414916 0.825949 0.159659 -0.223530
N4    N     N_1   0.681475 0.174167 0.651973 -0.205642
N5    N     N_1   0.657420 0.695475 0.796796 -0.214239
O1    O     O_R   0.500010 0.316790 0.614690 -0.617414
O2    O     O_2   0.292394 0.285717 0.774288 -0.568956
O3    O     O_R   0.500000 0.316760 0.385350 -0.619353
O4    O     O_R   0.389120 0.500020 0.614710 -0.609365
O5    O     O_R   0.389110 0.499990 0.385370 -0.622090
O6    O     O_R   0.500000 0.683240 0.614650 -0.614008
O7    O     O_R   0.499990 0.683210 0.385310 -0.643397
O8    O     O_R   0.610890 0.500010 0.614630 -0.619284
O9    O     O_R   0.610880 0.499980 0.385290 -0.634326
O10   O     O_2   0.679971 0.643916 0.107231 -0.605229
Zn1   Zn    Zn3+2 0.500010 0.500020 0.653130 0.960956
Zn2   Zn    Zn3+2 0.499990 0.499980 0.346870 0.948734

loop_
_geom_bond_atom_site_label_1
_geom_bond_atom_site_label_2
_ccdc_geom_bond_type
C37   H6    S    
C6    C7    A    
C11   H12   S    
C13   C17   A    
C3    C11   S    
C9    C10   S    
C4    O5    A    
C20   O8    A    
C29   O10   D    
O7    Zn2   S    
C2    C37   A    
O4    Zn1   S    
O1    Zn1   S    
O8    Zn1   S    
C23   C32   T    
C19   H16   S    
C17   C18   S    
C4    C35   S    
C7    C8    A    
C8    C16   S    
C6    H7    S    
C21   C22   A    
C1    O3    A    
C28   N4    T    
C12   C23   S    
C34   H4    S    
C11   C28   S    
O9    Zn2   S    
C3    C9    A    
C2    C32   S    
C2    C33   A    
C4    O4    A    
C36   C37   A    
C18   C31   S    
C33   C34   A    
O3    Zn2   S    
C14   N1    A    
C19   H14   S    
N2    Zn1   S    
C10   H11   S    
C5    C6    A    
C15   N2    A    
C22   C24   A    
C26   H2    S    
C1    O1    A    
C33   H3    S    
C16   O7    A    
C10   C11   S    
C13   C19   S    
C14   C29   S    
O6    Zn1   S    
C20   C24   S    
C1    C5    S    
C31   H9    S    
C7    C27   S    
C24   C25   A    
C18   H13   S    
C15   C30   S    
C22   H15   S    
C34   C35   A    
C27   N3    T    
O5    Zn2   S    
C12   C26   A    
C10   H10   S    
C25   H17   S    
C30   N5    T    
C31   O2    D    
C14   C15   A    
C18   C19   S    
C16   O6    A    
C3    C5    A    
C25   C26   A    
C36   H5    S    
C12   C21   A    
C20   O9    A    
N1    Zn2   S    
C21   H1    S    
C17   N2    A    
C29   H8    S    
C8    C9    A    
C13   N1    A    
C35   C36   A    
