data_mof_unit_21156.cif
_audit_creation_date              2012-12-11T15:07:40-0500
_audit_creation_method            fapswitch 2.2
_symmetry_space_group_name_H-M    P1
_symmetry_Int_Tables_number       1
_space_group_crystal_system       triclinic
_cell_length_a                    21.715211
_cell_length_b                    7.201935
_cell_length_c                    18.593845
_cell_angle_alpha                 90.408138
_cell_angle_beta                  96.09533
_cell_angle_gamma                 89.440329
_cell_volume                      2891.28828012

loop_
_atom_site_label
_atom_site_type_symbol
_atom_type_description
_atom_site_fract_x
_atom_site_fract_y
_atom_site_fract_z
_atom_type_partial_charge
O1    O     O_R   0.449650 0.506500 0.414480 -0.531851
O2    O     O_R   0.550350 0.006500 0.585520 -0.533044
O3    O     O_R   0.432010 0.173150 0.560250 -0.540008
O4    O     O_R   0.567990 0.673150 0.439750 -0.540140
C1    C     C_R   0.416234 0.345699 0.580874 0.687772
C2    C     C_R   0.584481 0.843836 0.419768 0.686484
O5    O     O_R   0.442320 0.176650 0.413480 -0.533573
O6    O     O_R   0.557680 0.676650 0.586520 -0.534202
O7    O     O_R   0.560730 0.008380 0.437700 -0.537935
O8    O     O_R   0.439270 0.508380 0.562300 -0.540145
C3    C     C_R   0.428457 0.345119 0.387583 0.684665
C4    C     C_R   0.571499 0.844922 0.612513 0.681981
O9    O     O_3   0.538840 0.339860 0.508120 -0.373926
O10   O     O_3   0.461160 0.839860 0.491880 -0.372546
V1    V     V_3+5 0.492800 0.064220 0.498490 1.419275
V2    V     V_3+5 0.507200 0.564220 0.501510 1.419196
C5    C     C_R   0.868530 0.002644 0.691027 -0.168021
C6    C     C_R   0.129157 0.481614 0.310374 -0.165199
H1    H     H_    0.956038 0.032856 0.754072 0.137426
H2    H     H_    0.041311 0.510494 0.247094 0.141279
H3    H     H_    0.786098 0.008700 0.575518 0.127183
H4    H     H_    0.210920 0.477880 0.426631 0.127000
H5    H     H_    0.887370 0.042254 0.641718 0.117666
H6    H     H_    0.109372 0.510907 0.360406 0.118172
C7    C     C_R   0.885765 0.944040 0.819709 -0.047335
C8    C     C_R   0.113772 0.442341 0.180359 -0.044888
C9    C     C_R   0.586955 0.802639 0.744358 -0.195247
C10   C     C_R   0.414110 0.316101 0.255010 -0.196899
C11   C     C_R   0.623449 0.793977 0.810585 0.011211
C12   C     C_R   0.378081 0.313358 0.188392 0.010767
C13   C     C_R   0.686867 0.829958 0.814874 -0.196637
C14   C     C_R   0.314167 0.344254 0.184378 -0.196485
C15   C     C_R   0.715517 0.876405 0.752620 0.066978
C16   C     C_R   0.284504 0.379270 0.247341 0.067286
C17   C     C_R   0.677302 0.887783 0.684912 0.069028
C18   C     C_R   0.322147 0.383618 0.315550 0.068536
C19   C     C_R   0.780751 0.911964 0.755337 0.085286
C20   C     C_R   0.218812 0.410216 0.244844 0.084282
C21   C     C_R   0.805460 0.961588 0.690399 0.139144
C22   C     C_R   0.192921 0.447092 0.310624 0.137711
C23   C     C_R   0.767190 0.971580 0.625085 -0.199999
C24   C     C_R   0.230672 0.450343 0.376431 -0.198861
C25   C     C_R   0.704319 0.934545 0.622207 -0.189497
C26   C     C_R   0.294089 0.418647 0.378997 -0.188022
C27   C     C_R   0.822572 0.901562 0.819906 -0.221291
C28   C     C_R   0.177620 0.406883 0.179710 -0.217711
C29   C     C_R   0.907966 0.996172 0.755081 -0.153310
C30   C     C_R   0.090164 0.480730 0.245872 -0.156191
C31   C     C_R   0.612815 0.849783 0.681313 -0.090157
C32   C     C_R   0.387188 0.351305 0.318798 -0.089928
H7    H     H_    0.807551 0.864536 0.871263 0.095680
H8    H     H_    0.193507 0.379538 0.127676 0.095966
H9    H     H_    0.537951 0.771741 0.741735 0.110232
H10   H     H_    0.463596 0.290300 0.257321 0.112565
H11   H     H_    0.712520 0.820631 0.867636 0.113583
H12   H     H_    0.288953 0.340151 0.131259 0.114179
H13   H     H_    0.676893 0.943856 0.570186 0.111531
H14   H     H_    0.321104 0.422474 0.431395 0.110915
C33   C     C_R   0.647280 0.708871 0.324556 -0.210424
C34   C     C_R   0.360511 0.521767 0.672129 -0.205129
C35   C     C_R   0.635479 0.854681 0.372281 -0.077143
C36   C     C_R   0.366731 0.360184 0.629990 -0.077589
C37   C     C_R   0.671582 0.016310 0.373004 -0.219527
C38   C     C_R   0.325094 0.213959 0.634656 -0.225291
C39   C     C_R   0.718117 0.034176 0.326636 0.094683
C40   C     C_R   0.277718 0.228203 0.680144 0.095788
C41   C     C_R   0.728834 0.889772 0.277853 0.065044
C42   C     C_R   0.271959 0.389470 0.722615 0.065707
C43   C     C_R   0.693232 0.726316 0.276871 0.087888
C44   C     C_R   0.313701 0.536797 0.718575 0.083326
C45   C     C_R   0.753860 0.195070 0.328043 -0.200280
C46   C     C_R   0.235899 0.083377 0.683642 -0.189764
C47   C     C_R   0.799559 0.214166 0.281178 -0.181574
C48   C     C_R   0.189371 0.095910 0.729615 -0.190938
C49   C     C_R   0.810700 0.072850 0.230916 0.046636
C50   C     C_R   0.183154 0.254713 0.773636 0.043409
C51   C     C_R   0.774971 0.909186 0.229809 0.046095
C52   C     C_R   0.224577 0.403106 0.769293 0.049098
C53   C     C_R   0.785138 0.764510 0.180896 0.089450
C54   C     C_R   0.219164 0.564650 0.811693 0.084076
C55   C     C_R   0.749329 0.602885 0.180192 -0.173779
C56   C     C_R   0.261203 0.710048 0.807331 -0.171139
C57   C     C_R   0.703812 0.584127 0.227588 -0.177361
C58   C     C_R   0.308000 0.696306 0.761231 -0.181418
C59   C     C_R   0.856659 0.090749 0.182311 -0.090465
C60   C     C_R   0.136919 0.267434 0.821858 -0.084659
C61   C     C_R   0.866976 0.944315 0.132929 -0.124893
C62   C     C_R   0.131137 0.431253 0.864891 -0.121431
C63   C     C_R   0.830780 0.782883 0.133387 -0.190622
C64   C     C_R   0.172359 0.578304 0.858208 -0.207520
H15   H     H_    0.619704 0.583974 0.323180 0.127436
H16   H     H_    0.392521 0.635490 0.669489 0.129013
H17   H     H_    0.663580 0.128969 0.409979 0.130894
H18   H     H_    0.328990 0.089574 0.602191 0.131958
H19   H     H_    0.746264 0.307393 0.365288 0.132293
H20   H     H_    0.239376 0.959064 0.651057 0.134350
H21   H     H_    0.825736 0.341594 0.284490 0.148311
H22   H     H_    0.158618 0.978805 0.730440 0.145612
H23   H     H_    0.837870 0.670378 0.096001 0.141910
H24   H     H_    0.168938 0.703013 0.890595 0.144498
H25   H     H_    0.756636 0.490263 0.142985 0.133794
H26   H     H_    0.257890 0.834865 0.839641 0.138640
H27   H     H_    0.676886 0.457977 0.225700 0.141856
H28   H     H_    0.339684 0.810885 0.758839 0.137056
O11   O     O_R   0.060820 0.290050 0.937800 -0.535320
O12   O     O_R   0.939180 0.790050 0.062200 -0.533645
O13   O     O_R   0.057690 0.616620 0.086540 -0.537694
O14   O     O_R   0.942310 0.116620 0.913460 -0.536945
C65   C     C_R   0.071669 0.448718 0.112481 0.707442
C66   C     C_R   0.928083 0.948900 0.887590 0.717902
O15   O     O_R   0.068010 0.619890 0.939770 -0.528687
O16   O     O_R   0.931990 0.119890 0.060230 -0.535229
O17   O     O_R   0.949640 0.787940 0.914460 -0.530752
O18   O     O_R   0.050360 0.287940 0.085540 -0.531103
C67   C     C_R   0.083293 0.449361 0.917427 0.693110
C68   C     C_R   0.916111 0.952457 0.081902 0.689111
O19   O     O_3   0.961210 0.453080 0.991940 -0.375618
O20   O     O_3   0.038790 0.953080 0.008060 -0.369744
V3    V     V_3+5 0.007200 0.728820 0.001500 1.468422
V4    V     V_3+5 0.992800 0.228820 0.998500 1.467227
C69   C     C_1   0.894106 0.256787 0.184962 0.297656
N1    N     N_1   0.923801 0.389686 0.187146 -0.381025
C70   C     C_1   0.096508 0.109717 0.826687 0.290053
N2    N     N_1   0.065044 0.982203 0.830512 -0.374314
C71   C     C_1   0.595608 0.745931 0.874837 0.307059
N3    N     N_1   0.573252 0.707334 0.926449 -0.321796
C72   C     C_1   0.406980 0.277463 0.123371 0.307822
N4    N     N_1   0.430189 0.248632 0.071142 -0.321740

loop_
_geom_bond_atom_site_label_1
_geom_bond_atom_site_label_2
_ccdc_geom_bond_type
C40   C42   A    
C37   C39   A    
C11   C71   S    
O12   V3    S    
C9    C11   A    
C23   C25   A    
O14   V4    S    
O1    C3    A    
O2    C4    A    
C2    O7    A    
C4    C31   S    
C18   C32   A    
C70   N2    T    
C48   H22   S    
C55   H25   S    
C47   H21   S    
C5    H5    S    
C48   C50   A    
C63   H23   S    
C6    H6    S    
C2    C35   S    
O15   V3    S    
C50   C52   A    
C60   C62   A    
C45   H19   S    
C27   H7    S    
C28   H8    S    
C34   C36   A    
C5    C21   A    
C64   H24   S    
C35   C37   A    
C6    C22   A    
O20   V3    S    
C36   C38   A    
O17   V3    S    
C10   C32   A    
C49   C59   A    
C40   C46   A    
C26   H14   S    
C39   C41   A    
C41   C51   A    
C17   C31   A    
C13   C15   A    
O11   V4    S    
C59   C69   S    
C12   C14   A    
C44   C58   A    
C7    C29   A    
C16   C18   A    
C8    C30   A    
C59   C61   A    
O6    V2    S    
O13   C65   A    
C24   C26   A    
O13   V3    S    
C55   C57   A    
C51   C53   A    
C42   C52   A    
C33   C35   A    
C53   C63   A    
C46   C48   A    
O19   V4    S    
C53   C55   A    
C10   H10   S    
C39   C45   A    
C15   C19   A    
O12   C68   A    
C41   C43   A    
C38   C40   A    
O4    V2    S    
O5    C3    A    
C43   C57   A    
C61   C68   S    
C66   O17   A    
C34   C44   A    
O6    C4    A    
C56   H26   S    
C52   C54   A    
O1    V2    S    
C33   H15   S    
O2    V1    S    
C49   C51   A    
C8    C65   S    
C69   N1    T    
H2    C30   S    
C57   H27   S    
C7    C66   S    
C33   C43   A    
H3    C23   S    
C65   O18   A    
C54   C56   A    
C62   C64   A    
C56   C58   A    
C61   C63   A    
C71   N3    T    
C58   H28   S    
C18   C26   A    
O4    C2    A    
C47   C49   A    
C19   C27   A    
C72   N4    T    
C7    C27   A    
O16   C68   A    
C17   C25   A    
O16   V4    S    
C12   C72   S    
C16   C20   A    
O11   C67   A    
C5    C29   A    
C22   C24   A    
O3    C1    A    
C6    C30   A    
C9    H9    S    
O9    V2    S    
C37   H17   S    
C62   C67   S    
C10   C12   A    
O7    V1    S    
C38   H18   S    
C1    O8    A    
C19   C21   A    
C3    C32   S    
O8    V2    S    
C20   C22   A    
H4    C24   S    
O5    V1    S    
C15   C17   A    
O14   C66   A    
C1    C36   S    
H1    C29   S    
C54   C64   A    
C20   C28   A    
C8    C28   A    
C46   H20   S    
C25   H13   S    
C21   C23   A    
C11   C13   A    
C50   C60   A    
C45   C47   A    
C60   C70   S    
C42   C44   A    
O10   V1    S    
O3    V1    S    
O15   C67   A    
C13   H11   S    
C34   H16   S    
C14   H12   S    
O18   V4    S    
C9    C31   A    
C14   C16   A    
