data_mof_unit_35890.cif
_audit_creation_date              2013-03-05T16:34:04-0500
_audit_creation_method            fapswitch 2.2
_symmetry_space_group_name_H-M    P1
_symmetry_Int_Tables_number       1
_space_group_crystal_system       triclinic
_cell_length_a                    9.592993
_cell_length_b                    10.813906
_cell_length_c                    17.080351
_cell_angle_alpha                 88.760758
_cell_angle_beta                  93.786747
_cell_angle_gamma                 89.8655
_cell_volume                      1767.58214672

loop_
_atom_site_label
_atom_site_type_symbol
_atom_site_description
_atom_site_fract_x
_atom_site_fract_y
_atom_site_fract_z
_atom_type_partial_charge
O1    O     O_R   0.618810 0.319640 0.500000 -0.597977
O2    O     O_R   0.381230 0.319680 0.499990 -0.571596
C1    C     C_R   0.500171 0.263034 0.499801 0.835925
O3    O     O_R   0.631790 0.498830 0.613930 -0.568022
O4    O     O_R   0.394210 0.498870 0.613920 -0.558945
C2    C     C_R   0.517357 0.502000 0.650615 0.879816
Cu1   Cu    Cu3+1 0.640670 0.499980 0.500000 0.995458
Cu2   Cu    Cu3+1 0.359330 0.500020 0.500000 1.065607
O5    O     O_R   0.618770 0.680320 0.500010 -0.602031
O6    O     O_R   0.381190 0.680360 0.500000 -0.525741
O7    O     O_R   0.605790 0.501130 0.386080 -0.592494
O8    O     O_R   0.368210 0.501170 0.386070 -0.565446
C3    C     C_R   0.500191 0.737154 0.499879 0.854719
C4    C     C_R   0.482692 0.500266 0.349164 0.823829
C5    C     C_R   0.527766 0.505722 0.736558 -0.100212
C6    C     C_R   0.428360 0.569414 0.778598 -0.091713
C7    C     C_R   0.435529 0.558205 0.860388 -0.142332
C8    C     C_R   0.542856 0.488794 0.901071 0.344717
C9    C     C_R   0.644860 0.432742 0.859218 -0.114532
C10   C     C_R   0.637077 0.440276 0.777652 -0.115227
C11   C     C_R   0.584306 0.512555 0.140514 -0.168821
C12   C     C_R   0.593153 0.513242 0.221873 -0.206572
C13   C     C_R   0.454345 0.496918 0.098235 0.273161
N1    N     N_2   0.555209 0.479229 0.984103 -0.224186
N2    N     N_2   0.443431 0.499368 0.015019 -0.172194
C14   C     C_R   0.472890 0.498182 0.263076 -0.089868
H1    H     H_    0.694399 0.526667 0.252424 0.189681
H2    H     H_    0.679429 0.526189 0.110702 0.206272
H3    H     H_    0.729393 0.381192 0.889969 0.187615
H4    H     H_    0.715253 0.392613 0.746502 0.204544
C15   C     C_R   0.343369 0.481471 0.221626 -0.203878
C16   C     C_R   0.331887 0.482753 0.139327 0.309905
H5    H     H_    0.250368 0.468741 0.253455 0.220812
H6    H     H_    0.360255 0.607707 0.892605 0.211872
C17   C     C_R   0.607249 0.061480 0.535391 0.001268
C18   C     C_R   0.500330 0.130681 0.497429 -0.044251
C19   C     C_R   0.392272 0.066885 0.455818 -0.115892
H7    H     H_    0.307997 0.116804 0.423631 0.179237
C20   C     C_R   0.393942 0.937084 0.455030 -0.082567
H8    H     H_    0.313013 0.889585 0.421023 0.213978
C21   C     C_R   0.501090 0.869986 0.497306 -0.064739
C22   C     C_R   0.607962 0.936638 0.535184 -0.042986
C23   C     C_3   0.734393 0.926294 0.591136 0.105860
C24   C     C_3   0.734267 0.069881 0.590732 0.100701
H9    H     H_    0.826861 0.886358 0.565057 0.137255
H10   H     H_    0.824410 0.113139 0.563033 0.105162
C25   C     C_R   0.066008 0.567603 0.444625 0.146641
N3    N     N_R   0.147870 0.500930 0.499500 -0.225255
C26   C     C_R   0.078672 0.425775 0.550801 0.066179
C27   C     C_R   0.930547 0.427237 0.550888 -0.045734
H11   H     H_    0.878532 0.370431 0.592999 0.148174
N4    N     N_R   0.851960 0.500890 0.499500 -0.176891
C28   C     C_R   0.918746 0.563225 0.442924 0.134562
C29   C     C_3   0.898963 0.696103 0.422375 -0.505667
C30   C     C_3   0.056756 0.707142 0.431052 0.494415
H12   H     H_    0.852725 0.709365 0.361320 0.201040
H13   H     H_    0.845635 0.748086 0.466735 0.214475
N5    N     N_R   0.703760 0.866767 0.665950 0.186272
O9    O     O_R   0.788667 0.782832 0.697262 -0.308494
O10   O     O_R   0.588161 0.889910 0.698859 -0.250213
N6    N     N_R   0.707363 0.123562 0.666341 0.172990
O11   O     O_R   0.807494 0.126247 0.721442 -0.299867
O12   O     O_R   0.588237 0.175917 0.677714 -0.342907
C31   C     C_2   0.153669 0.344762 0.609544 0.901062
O13   O     O_2   0.184628 0.239427 0.592644 -0.543729
O14   O     O_R   0.177332 0.384844 0.686478 -0.727525
H14   H     H_    0.227324 0.320412 0.722135 0.356032
N7    N     N_R   0.114108 0.752396 0.358358 0.094616
O15   O     O_R   0.199750 0.685199 0.321391 -0.379660
O16   O     O_R   0.076459 0.860303 0.328894 -0.318806
N8    N     N_R   0.100592 0.782095 0.499122 0.109588
O17   O     O_R   0.121138 0.730764 0.568523 -0.316589
O18   O     O_R   0.084008 0.901548 0.494193 -0.341722
N9    N     N_R   0.195981 0.468562 0.098898 0.147848
O19   O     O_R   0.092452 0.423886 0.136049 -0.334711
O20   O     O_R   0.171582 0.507054 0.026571 -0.295082
C32   C     C_2   0.321334 0.654111 0.740321 0.970750
O21   O     O_2   0.348894 0.718441 0.683722 -0.504135
O22   O     O_R   0.190447 0.664125 0.771208 -0.698715
H15   H     H_    0.126929 0.725738 0.740692 0.385883

loop_
_geom_bond_atom_site_label_1
_geom_bond_atom_site_label_2
_geom_bond_distance
_ccdc_geom_bond_type
C21   C22   1.387507 A    
C9    C10   1.390864 A    
C3    C21   1.436217 S    
C30   N7    1.465963 S    
Cu1   Cu2   2.698892 S    
C20   C21   1.407205 A    
C10   H4    1.083467 S    
C28   C29   1.480562 S    
Cu1   O7    1.952220 S    
N9    O20   1.301261 A    
C8    N1    1.416844 S    
C18   C19   1.408142 A    
Cu1   N4    2.027531 S    
C6    C32   1.483732 S    
C16   N9    1.444558 S    
O4    C2    1.301104 A    
O7    C4    1.301577 A    
N5    O10   1.302091 A    
C5    C6    1.417070 A    
C8    C9    1.394382 A    
N6    O12   1.302011 A    
C17   C22   1.350110 A    
O5    C3    1.291524 A    
C23   N5    1.465799 S    
C2    C5    1.466171 S    
C25   N3    1.373295 A    
C6    C7    1.396784 A    
C27   N4    1.361127 A    
C15   H5    1.082529 S    
C25   C28   1.411990 A    
O14   H14   1.013853 S    
C14   C15   1.402884 A    
C26   C31   1.468153 S    
C11   C12   1.386802 A    
O3    Cu1   1.953212 S    
C24   H10   1.112113 S    
C27   H11   1.083243 S    
C32   O22   1.398533 S    
C5    C10   1.403904 A    
C29   H12   1.112181 S    
N9    O19   1.301791 A    
N1    N2    1.246892 D    
O3    C2    1.300176 A    
C20   H8    1.076642 S    
N8    O18   1.301381 A    
N7    O15   1.298938 A    
N5    O9    1.300503 A    
C32   O21   1.222263 D    
O1    C1    1.293386 A    
C17   C18   1.385646 A    
C31   O14   1.397090 S    
C23   C24   1.552604 S    
Cu2   N3    2.027987 S    
C19   H7    1.083343 S    
C15   C16   1.402496 A    
Cu2   O8    1.953213 S    
C7    C8    1.409122 A    
C4    C14   1.467871 S    
C17   C24   1.496168 S    
C23   H9    1.109262 S    
Cu2   O6    1.961912 S    
N3    C26   1.384739 A    
C11   H2    1.082807 S    
O8    C4    1.302004 A    
C12   H1    1.083378 S    
C11   C13   1.411293 A    
C12   C14   1.398546 A    
C7    H6    1.083613 S    
C9    H3    1.083135 S    
N4    C28   1.361727 A    
C25   C30   1.523186 S    
Cu1   O5    1.960978 S    
C29   C30   1.516412 S    
O1    Cu1   1.961911 S    
O2    Cu2   1.960978 S    
O6    C3    1.297670 A    
O4    Cu2   1.952220 S    
C24   N6    1.465307 S    
C31   O13   1.221888 D    
O2    C1    1.293989 A    
N8    O17   1.300891 A    
C19   C20   1.404078 A    
C13   C16   1.414638 A    
C1    C18   1.432706 S    
C13   N2    1.417976 S    
N6    O11   1.300456 A    
O22   H15   1.013908 S    
N7    O16   1.301523 A    
C26   C27   1.421117 A    
C22   C23   1.496157 S    
C30   N8    1.470839 S    
C29   H13   1.104568 S    
