data_mof_unit_17011.cif
_audit_creation_date              2012-10-26T21:27:07-0400
_audit_creation_method            fapswitch 2.2
_symmetry_space_group_name_H-M    P1
_symmetry_Int_Tables_number       1
_space_group_crystal_system       orthorhombic
_cell_length_a                    12.255556
_cell_length_b                    12.25555
_cell_length_c                    23.386847
_cell_angle_alpha                 90.0
_cell_angle_beta                  90.0
_cell_angle_gamma                 90.0
_cell_volume                      3512.67119454

loop_
_atom_site_label
_atom_site_type_symbol
_atom_type_description
_atom_site_fract_x
_atom_site_fract_y
_atom_site_fract_z
_atom_type_partial_charge
C1    C     C_3   0.000000 0.000000 0.250000 0.062732
C2    C     C_R   0.900815 0.997472 0.292965 0.136892
C3    C     C_R   0.000084 0.651004 0.922217 0.560988
C4    C     C_R   0.999915 0.348996 0.077783 0.560988
C5    C     C_R   0.348996 0.000084 0.422217 0.560988
C6    C     C_R   0.651004 0.999915 0.577783 0.560988
C7    C     C_R   0.999915 0.348996 0.922217 0.560988
C8    C     C_R   0.000085 0.651004 0.077783 0.560988
C9    C     C_R   0.651004 0.999915 0.422217 0.560988
C10   C     C_R   0.348996 0.000084 0.577783 0.560988
C11   C     C_R   0.090644 0.115562 0.170649 0.276199
C12   C     C_3   0.000000 0.000000 0.750000 0.062732
C13   C     C_R   0.909356 0.884438 0.829351 0.276199
C14   C     C_R   0.884438 0.090644 0.670649 0.276199
C15   C     C_R   0.115562 0.909356 0.329351 0.276199
C16   C     C_R   0.909356 0.884438 0.170649 0.276199
C17   C     C_R   0.090644 0.115562 0.829351 0.276199
C18   C     C_R   0.115562 0.909356 0.670649 0.276199
C19   C     C_R   0.884438 0.090644 0.329351 0.276199
C20   C     C_R   0.097748 0.834479 0.803275 0.322111
C21   C     C_R   0.902252 0.165521 0.196725 0.322111
C22   C     C_R   0.834479 0.902252 0.303275 0.322111
C23   C     C_R   0.997472 0.099185 0.207035 0.136892
C24   C     C_R   0.165521 0.097748 0.696725 0.322111
C25   C     C_R   0.902252 0.165521 0.803275 0.322111
C26   C     C_R   0.097748 0.834479 0.196725 0.322111
C27   C     C_R   0.165521 0.097748 0.303275 0.322111
C28   C     C_R   0.834479 0.902252 0.696725 0.322111
C29   C     C_R   0.087762 0.195030 0.127540 -0.137413
C30   C     C_R   0.912238 0.804970 0.872460 -0.137413
C31   C     C_R   0.804970 0.087762 0.627540 -0.137413
C32   C     C_R   0.195030 0.912238 0.372460 -0.137413
C33   C     C_R   0.912238 0.804970 0.127540 -0.137413
C34   C     C_R   0.002528 0.900815 0.792965 0.136892
C35   C     C_R   0.087762 0.195030 0.872460 -0.137413
C36   C     C_R   0.195030 0.912238 0.627540 -0.137413
C37   C     C_R   0.804970 0.087762 0.372460 -0.137413
C38   C     C_R   0.091004 0.748416 0.843047 -0.148415
C39   C     C_R   0.908995 0.251584 0.156953 -0.148415
C40   C     C_R   0.748416 0.908995 0.343047 -0.148415
C41   C     C_R   0.251584 0.091004 0.656953 -0.148415
C42   C     C_R   0.908995 0.251584 0.843047 -0.148415
C43   C     C_R   0.091004 0.748416 0.156953 -0.148415
C44   C     C_R   0.251584 0.091005 0.343047 -0.148415
C45   C     C_R   0.900815 0.997472 0.707035 0.136892
C46   C     C_R   0.748416 0.908995 0.656953 -0.148415
C47   C     C_R   0.999323 0.264334 0.121819 -0.068862
C48   C     C_R   0.000677 0.735666 0.878181 -0.068862
C49   C     C_R   0.735666 0.999323 0.621819 -0.068862
C50   C     C_R   0.264334 0.000677 0.378181 -0.068862
C51   C     C_R   0.000677 0.735666 0.121819 -0.068862
C52   C     C_R   0.999323 0.264334 0.878181 -0.068862
C53   C     C_R   0.264334 0.000677 0.621819 -0.068862
C54   C     C_R   0.735666 0.999323 0.378181 -0.068862
C55   C     C_3   0.281695 0.104365 0.169139 -0.107447
C56   C     C_R   0.099185 0.002528 0.292965 0.136892
C57   C     C_3   0.718305 0.895635 0.830861 -0.107447
C58   C     C_3   0.895635 0.281695 0.669139 -0.107447
C59   C     C_3   0.104365 0.718305 0.330861 -0.107447
C60   C     C_3   0.718305 0.895635 0.169139 -0.107447
C61   C     C_3   0.281695 0.104365 0.830861 -0.107447
C62   C     C_3   0.104365 0.718305 0.669139 -0.107447
C63   C     C_3   0.895635 0.281695 0.330861 -0.107447
C64   C     C_3   0.290517 0.822350 0.801694 -0.119425
C65   C     C_3   0.709483 0.177650 0.198306 -0.119425
C66   C     C_3   0.822350 0.709483 0.301694 -0.119425
C67   C     C_R   0.002527 0.900815 0.207035 0.136892
C68   C     C_3   0.177650 0.290517 0.698306 -0.119424
C69   C     C_3   0.709483 0.177650 0.801694 -0.119425
C70   C     C_3   0.290517 0.822350 0.198306 -0.119424
C71   C     C_3   0.177649 0.290517 0.301694 -0.119425
C72   C     C_3   0.822350 0.709483 0.698306 -0.119425
C73   C     C_R   0.997472 0.099185 0.792965 0.136891
C74   C     C_R   0.099185 0.002528 0.707035 0.136891
Cu1   Cu    Cu3+1 0.889520 0.500000 0.000000 0.888511
Cu2   Cu    Cu3+1 0.110480 0.500000 0.000000 0.888511
Cu3   Cu    Cu3+1 0.500000 0.889520 0.500000 0.888511
Cu4   Cu    Cu3+1 0.500000 0.110480 0.500000 0.888511
H1    H     H_    0.155123 0.202973 0.097926 0.125196
H2    H     H_    0.842449 0.308704 0.152146 0.118874
H3    H     H_    0.691296 0.842449 0.347854 0.118874
H4    H     H_    0.308704 0.157551 0.652146 0.118874
H5    H     H_    0.842449 0.308704 0.847854 0.118874
H6    H     H_    0.157551 0.691296 0.152146 0.118874
H7    H     H_    0.308704 0.157551 0.347854 0.118874
H8    H     H_    0.691296 0.842449 0.652146 0.118874
H9    H     H_    0.279711 0.190132 0.184830 0.139914
H10   H     H_    0.305825 0.101505 0.123403 0.092207
H11   H     H_    0.345947 0.061735 0.193909 0.126214
H12   H     H_    0.844877 0.797027 0.902073 0.125196
H13   H     H_    0.694175 0.898495 0.876597 0.092207
H14   H     H_    0.720289 0.809867 0.815170 0.139914
H15   H     H_    0.654053 0.938265 0.806091 0.126214
H16   H     H_    0.809867 0.279711 0.684829 0.139914
H17   H     H_    0.898495 0.305825 0.623403 0.092208
H18   H     H_    0.938265 0.345947 0.693909 0.126214
H19   H     H_    0.101505 0.694175 0.376597 0.092207
H20   H     H_    0.190133 0.720289 0.315170 0.139914
H21   H     H_    0.061735 0.654053 0.306090 0.126214
H22   H     H_    0.720289 0.809867 0.184830 0.139914
H23   H     H_    0.797027 0.155123 0.597926 0.125196
H24   H     H_    0.694175 0.898495 0.123403 0.092207
H25   H     H_    0.654053 0.938265 0.193909 0.126214
H26   H     H_    0.305825 0.101505 0.876597 0.092207
H27   H     H_    0.279711 0.190132 0.815171 0.139914
H28   H     H_    0.345947 0.061735 0.806091 0.126214
H29   H     H_    0.190132 0.720289 0.684829 0.139914
H30   H     H_    0.101505 0.694175 0.623403 0.092208
H31   H     H_    0.061735 0.654053 0.693909 0.126214
H32   H     H_    0.898495 0.305825 0.376597 0.092207
H33   H     H_    0.809867 0.279711 0.315170 0.139914
H34   H     H_    0.202973 0.844877 0.402073 0.125196
H35   H     H_    0.938264 0.345947 0.306090 0.126214
H36   H     H_    0.305205 0.733554 0.796200 0.088322
H37   H     H_    0.289496 0.845946 0.847662 0.134082
H38   H     H_    0.360394 0.864989 0.781487 0.125577
H39   H     H_    0.710504 0.154054 0.152337 0.134082
H40   H     H_    0.694795 0.266446 0.203800 0.088322
H41   H     H_    0.639606 0.135011 0.218513 0.125577
H42   H     H_    0.733554 0.694795 0.296200 0.088322
H43   H     H_    0.845947 0.710504 0.347662 0.134082
H44   H     H_    0.864989 0.639606 0.281487 0.125577
H45   H     H_    0.844877 0.797027 0.097926 0.125196
H46   H     H_    0.154054 0.289496 0.652338 0.134082
H47   H     H_    0.266446 0.305205 0.703800 0.088322
H48   H     H_    0.135011 0.360394 0.718513 0.125577
H49   H     H_    0.694795 0.266446 0.796200 0.088322
H50   H     H_    0.710504 0.154054 0.847662 0.134082
H51   H     H_    0.639606 0.135011 0.781487 0.125577
H52   H     H_    0.289496 0.845946 0.152337 0.134082
H53   H     H_    0.305205 0.733554 0.203800 0.088322
H54   H     H_    0.360394 0.864989 0.218513 0.125577
H55   H     H_    0.266445 0.305205 0.296200 0.088322
H56   H     H_    0.155123 0.202973 0.902073 0.125196
H57   H     H_    0.154053 0.289496 0.347663 0.134082
H58   H     H_    0.135011 0.360394 0.281487 0.125577
H59   H     H_    0.845946 0.710504 0.652338 0.134083
H60   H     H_    0.733554 0.694795 0.703800 0.088322
H61   H     H_    0.864989 0.639606 0.718513 0.125577
H62   H     H_    0.202973 0.844877 0.597926 0.125196
H63   H     H_    0.797027 0.155123 0.402073 0.125196
H64   H     H_    0.157551 0.691296 0.847854 0.118874
O1    O     O_R   0.907020 0.615090 0.941240 -0.516505
O2    O     O_R   0.092980 0.615090 0.941240 -0.513017
O3    O     O_R   0.384910 0.092980 0.558760 -0.513017
O4    O     O_R   0.615090 0.907020 0.441240 -0.513017
O5    O     O_R   0.092980 0.615090 0.058760 -0.513017
O6    O     O_R   0.907020 0.384910 0.941240 -0.513017
O7    O     O_R   0.615090 0.907020 0.558760 -0.513017
O8    O     O_R   0.384910 0.092980 0.441240 -0.513017
O9    O     O_3   0.181659 0.048719 0.177216 -0.548987
O10   O     O_3   0.818341 0.951281 0.822783 -0.548987
O11   O     O_3   0.951281 0.181659 0.677216 -0.548987
O12   O     O_R   0.092980 0.384910 0.058760 -0.516505
O13   O     O_3   0.048719 0.818341 0.322783 -0.548987
O14   O     O_3   0.818341 0.951281 0.177216 -0.548987
O15   O     O_3   0.181659 0.048719 0.822783 -0.548987
O16   O     O_3   0.048719 0.818341 0.677216 -0.548987
O17   O     O_3   0.951281 0.181659 0.322783 -0.548987
O18   O     O_3   0.194094 0.854073 0.773049 -0.546445
O19   O     O_3   0.805906 0.145926 0.226951 -0.546444
O20   O     O_3   0.854073 0.805906 0.273049 -0.546445
O21   O     O_3   0.145927 0.194094 0.726951 -0.546445
O22   O     O_3   0.805906 0.145927 0.773049 -0.546445
O23   O     O_R   0.384910 0.907020 0.441240 -0.516505
O24   O     O_3   0.194094 0.854073 0.226951 -0.546445
O25   O     O_3   0.145927 0.194094 0.273049 -0.546445
O26   O     O_3   0.854073 0.805906 0.726951 -0.546445
O27   O     O_R   0.615090 0.092980 0.558760 -0.516505
O28   O     O_R   0.092980 0.384910 0.941240 -0.516504
O29   O     O_R   0.907020 0.615090 0.058760 -0.516505
O30   O     O_R   0.615090 0.092980 0.441240 -0.516505
O31   O     O_R   0.384910 0.907020 0.558760 -0.516505
O32   O     O_R   0.907020 0.384910 0.058760 -0.513017

loop_
_geom_bond_atom_site_label_1
_geom_bond_atom_site_label_2
_ccdc_geom_bond_type
C4    O12   A    
Cu1   Cu2   S    
C64   H38   S    
C57   H14   S    
C12   C74   S    
C59   H21   S    
C9    O4    A    
C69   O22   S    
C63   O17   S    
C14   C31   A    
C30   H12   S    
C24   C74   A    
C68   H46   S    
C72   O26   S    
C15   C32   A    
Cu3   Cu4   S    
C46   C49   A    
C28   C46   A    
C37   H63   S    
C29   C47   A    
C26   C67   A    
C31   H23   S    
C30   C48   A    
C1    C56   S    
C7    C52   S    
C70   O24   S    
C71   H57   S    
C22   O20   S    
C57   H15   S    
C62   H30   S    
C25   O22   S    
Cu3   O23   S    
C57   O10   S    
C3    C48   S    
C70   H52   S    
C66   O20   S    
C1    C2    S    
Cu2   O12   S    
C55   H10   S    
C70   H54   S    
C10   C53   S    
C58   H18   S    
C36   C53   A    
C19   C37   A    
Cu4   O3    S    
C6    O7    A    
C27   C44   A    
C72   H61   S    
C69   H50   S    
C29   H1    S    
C16   O14   S    
C65   H40   S    
C66   H44   S    
C5    O23   A    
C60   H25   S    
C17   O15   S    
C15   O13   S    
C8    O29   A    
C20   C34   A    
C10   O31   A    
C72   H60   S    
C18   C74   A    
C64   H37   S    
C71   O25   S    
C12   C73   S    
Cu1   O32   S    
C17   C73   A    
C24   C41   A    
C38   H64   S    
C31   C49   A    
C60   H24   S    
C35   H56   S    
Cu4   O30   S    
C26   C43   A    
C14   C45   A    
C28   C45   A    
C21   O19   S    
C42   H5    S    
C13   C30   A    
C61   H26   S    
C3    O1    A    
Cu2   O5    S    
Cu3   O7    S    
C71   H58   S    
C59   O13   S    
C27   C56   A    
C62   H29   S    
Cu4   O27   S    
C32   H34   S    
C5    O8    A    
C63   H35   S    
C58   H17   S    
C60   O14   S    
C2    C22   A    
C18   O16   S    
C58   O11   S    
C61   O15   S    
C16   C33   A    
C20   C38   A    
C21   C39   A    
C69   H49   S    
C22   C40   A    
C64   O18   S    
C62   O16   S    
C65   H41   S    
C66   H43   S    
C16   C67   A    
Cu2   O28   S    
C61   H28   S    
C36   H62   S    
C8    C51   S    
C41   C53   A    
Cu1   O1    S    
C55   H9    S    
C37   C54   A    
Cu2   O2    S    
C11   O9    S    
C72   H59   S    
C1    C23   S    
C40   C54   A    
C21   C23   A    
C14   O11   S    
Cu1   O29   S    
C59   H19   S    
C5    C50   S    
C8    O5    A    
C12   C34   S    
C44   H7    S    
C68   H48   S    
C61   H27   S    
Cu4   O8    S    
C39   C47   A    
C7    O6    A    
C68   O21   S    
C44   C50   A    
C26   O24   S    
Cu3   O31   S    
C57   H13   S    
C27   O25   S    
C2    C19   A    
C38   C48   A    
C40   H3    S    
C3    O2    A    
C13   O10   S    
C12   C45   S    
C60   H22   S    
C25   C42   A    
C71   H55   S    
C55   O9    S    
Cu1   O6    S    
C33   C51   A    
C19   O17   S    
C39   H2    S    
C63   H32   S    
C58   H16   S    
C13   C34   A    
C55   H11   S    
C15   C56   A    
C43   C51   A    
C62   H31   S    
C41   H4    S    
C68   H47   S    
C11   C23   A    
C70   H53   S    
C1    C67   S    
C32   C50   A    
C25   C73   A    
C6    C49   S    
C63   H33   S    
C66   H42   S    
C28   O26   S    
C10   O3    A    
C24   O21   S    
C43   H6    S    
C11   C29   A    
C64   H36   S    
C69   H51   S    
C20   O18   S    
C7    O28   A    
C65   O19   S    
C35   C52   A    
C33   H45   S    
C59   H20   S    
C65   H39   S    
C9    O30   A    
C4    O32   A    
C9    C54   S    
C17   C35   A    
C18   C36   A    
Cu3   O4    S    
C6    O27   A    
C42   C52   A    
C46   H8    S    
C4    C47   S    
