data_mof_unit_45698.cif
_audit_creation_date              2012-12-11T18:37:23-0500
_audit_creation_method            fapswitch 2.2
_symmetry_space_group_name_H-M    P1
_symmetry_Int_Tables_number       1
_space_group_crystal_system       triclinic
_cell_length_a                    8.304571
_cell_length_b                    14.613872
_cell_length_c                    26.719579
_cell_angle_alpha                 92.411758
_cell_angle_beta                  93.666805
_cell_angle_gamma                 85.90309
_cell_volume                      3225.53924407

loop_
_atom_site_label
_atom_site_type_symbol
_atom_type_description
_atom_site_fract_x
_atom_site_fract_y
_atom_site_fract_z
_atom_type_partial_charge
Ba1   Ba    Ba6+2 0.849670 0.455410 0.524690 1.740971
Ba2   Ba    Ba6+2 0.340150 0.544510 0.475310 1.763262
C1    C     C_3   0.753488 0.141307 0.686798 0.334474
C2    C     C_3   0.704409 0.224044 0.654908 0.362606
C3    C     C_3   0.459951 0.712468 0.622129 0.415969
C4    C     C_3   0.479815 0.726106 0.679002 0.290069
C5    C     C_3   0.173822 0.796956 0.325941 0.758996
C6    C     C_3   0.160765 0.882439 0.293468 0.243127
C7    C     C_3   0.644577 0.763131 0.332258 0.729533
C8    C     C_3   0.675844 0.828224 0.290578 -0.336331
C9    C     C_R   0.022526 0.432269 0.182862 0.598005
C10   C     C_R   0.879938 0.579243 0.172575 0.577446
C11   C     C_2   0.740227 0.529127 0.269790 -0.092943
C12   C     C_3   0.253155 0.253247 0.682006 0.365930
C13   C     C_3   0.705866 0.526174 0.324741 -0.079389
C14   C     C_1   0.986871 0.493685 0.344899 0.083339
C15   C     C_2   0.024113 0.490784 0.296906 -0.067231
C16   C     C_2   0.893146 0.508482 0.255669 0.158309
C17   C     C_R   0.029945 0.508786 0.103159 -0.189687
C18   C     C_R   0.074000 0.432107 0.133039 -0.075964
C19   C     C_R   0.168810 0.357331 0.112279 0.433723
C20   C     C_R   0.930057 0.582445 0.122809 -0.065667
C21   C     C_2   0.855166 0.540135 0.358181 -0.306952
C22   C     C_2   0.355033 0.484492 0.643975 -0.320745
C23   C     C_3   0.249393 0.236787 0.737879 0.324348
C24   C     C_R   0.222279 0.435917 0.981860 0.054315
C25   C     C_R   0.107052 0.594849 0.975881 -0.017827
C26   C     C_R   0.189344 0.516536 0.953920 0.051659
C27   C     C_R   0.297235 0.357828 0.957462 -0.108815
C28   C     C_R   0.340978 0.359628 0.908093 -0.070508
C29   C     C_R   0.312422 0.439283 0.880562 -0.010163
C30   C     C_R   0.238502 0.518637 0.903551 -0.145707
C31   C     C_R   0.214572 0.599864 0.876260 -0.096970
C32   C     C_R   0.259304 0.598210 0.825595 0.611448
C33   C     C_R   0.352449 0.440055 0.829989 0.555997
C34   C     C_3   0.133116 0.230197 0.384041 1.001100
C35   C     C_2   0.483248 0.495005 0.730629 -0.102611
C36   C     C_3   0.511664 0.494165 0.675050 0.038259
C37   C     C_1   0.219732 0.524235 0.660108 -0.021604
C38   C     C_2   0.189241 0.524494 0.708965 0.316107
C39   C     C_2   0.333256 0.512048 0.747695 0.140598
C40   C     C_R   0.177368 0.435420 0.032732 -0.021325
C41   C     C_R   0.084212 0.511374 0.053316 0.045398
C42   C     C_R   0.044493 0.589844 0.024275 -0.000464
C43   C     C_R   0.222358 0.361029 0.063811 -0.152495
C44   C     C_R   0.883844 0.657988 0.092314 0.445147
C45   C     C_3   0.048574 0.159218 0.345618 0.749858
C46   C     C_R   0.092372 0.676513 0.948945 -0.154545
C47   C     C_R   0.142435 0.679490 0.899917 0.442344
C48   C     C_R   0.938522 0.659983 0.043909 -0.155944
C49   C     C_R   0.700216 0.064784 0.480772 -0.116100
C50   C     C_R   0.524568 0.202532 0.507340 0.061228
C51   C     C_R   0.394610 0.236912 0.535274 -0.260078
C52   C     C_R   0.322393 0.181630 0.567792 -0.094604
C53   C     C_R   0.390740 0.092076 0.575939 0.346285
C54   C     C_R   0.498312 0.051549 0.541076 -0.051548
C55   C     C_R   0.575957 0.107116 0.509273 -0.136470
C56   C     C_3   0.963746 0.737351 0.648148 0.664458
C57   C     C_R   0.647890 0.911679 0.508268 -0.083229
C58   C     C_R   0.742471 0.969392 0.482286 -0.048779
C59   C     C_R   0.684904 0.814004 0.504066 0.071209
C60   C     C_R   0.818047 0.778682 0.477995 -0.182485
C61   C     C_R   0.915071 0.835967 0.455040 0.030491
C62   C     C_R   0.873761 0.930326 0.455696 -0.154500
C63   C     C_R   0.520388 0.954412 0.536129 0.419036
C64   C     C_3   0.051776 0.762830 0.698727 0.248393
C65   C     C_3   0.665580 0.337357 0.378478 0.423369
C66   C     C_3   0.650471 0.316751 0.321603 0.241108
H1    H     H_    0.111416 0.089915 0.346146 -0.160386
H2    H     H_    0.121978 0.702187 0.713361 0.057989
H3    H     H_    0.793954 0.345011 0.390460 -0.047142
H4    H     H_    0.802748 0.084950 0.661451 -0.016162
H5    H     H_    0.654019 0.241419 0.313886 0.092271
H6    H     H_    0.347163 0.751995 0.609044 0.026410
H7    H     H_    0.452477 0.638705 0.611690 -0.074240
H8    H     H_    0.378534 0.695385 0.695504 -0.024385
H9    H     H_    0.475681 0.801364 0.688078 0.057569
H10   H     H_    0.850241 0.160465 0.715283 0.074811
H11   H     H_    0.375973 0.236209 0.754303 0.104460
H12   H     H_    0.284262 0.804076 0.350000 0.047860
H13   H     H_    0.173517 0.944002 0.318714 -0.024566
H14   H     H_    0.759339 0.719869 0.337738 -0.030524
H15   H     H_    0.759278 0.879798 0.305263 0.129700
H16   H     H_    0.273545 0.326186 0.677063 -0.105871
H17   H     H_    0.146939 0.472038 0.287030 0.138172
H18   H     H_    0.586308 0.487571 0.757419 0.085024
H19   H     H_    0.319520 0.292696 0.974943 0.059645
H20   H     H_    0.356269 0.210301 0.667760 0.063647
H21   H     H_    0.352506 0.441327 0.609830 0.068086
H22   H     H_    0.346100 0.306952 0.530638 0.083625
H23   H     H_    0.941949 0.972185 0.434122 0.057970
H24   H     H_    0.847913 0.705343 0.475985 0.040081
H25   H     H_    0.763267 0.105043 0.456410 0.119188
H26   H     H_    0.174675 0.293948 0.755243 0.022794
N1    N     N_R   0.930960 0.506317 0.202655 -0.436822
N2    N     N_R   0.315118 0.517089 0.801980 -0.427260
O1    O     O_2   0.918080 0.549800 0.616640 -0.445757
O2    O     O_3   0.610991 0.263615 0.402712 -0.600833
O3    O     O_3   0.105649 0.231789 0.657379 -0.600278
O4    O     O_2   0.271610 0.450170 0.383330 -0.435476
O5    O     O_3   0.039630 0.450200 0.443530 -0.490629
O6    O     O_3   0.531440 0.620360 0.408460 -0.450283
O7    O     O_3   0.089178 0.313653 0.360991 -0.638948
O8    O     O_3   0.643350 0.612530 0.521650 -0.471842
O9    O     O_3   0.127390 0.668260 0.431510 -0.450677
O10   O     O_2   0.244594 0.830546 0.432343 -0.555897
O11   O     O_3   0.035968 0.793316 0.354134 -0.655362
O12   O     O_3   0.150070 0.549720 0.556460 -0.472974
O13   O     O_3   0.546340 0.387390 0.478340 -0.488385
O14   O     O_2   0.398940 0.728800 0.517420 -0.462765
O15   O     O_3   0.592469 0.746261 0.601257 -0.583784
O16   O     O_2   0.374364 0.560690 0.326122 -0.424436
O17   O     O_3   0.517633 0.709482 0.314662 -0.591162
O18   O     O_2   0.057631 0.365842 0.208570 -0.573967
O19   O     O_2   0.419712 0.371691 0.810756 -0.631016
O20   O     O_2   0.793865 0.642720 0.189627 -0.582979
O21   O     O_2   0.244075 0.668136 0.801986 -0.598610
O22   O     O_3   0.658250 0.379560 0.591530 -0.498883
O23   O     O_2   0.841009 0.420930 0.670746 -0.446178
O24   O     O_3   0.068274 0.699681 0.610695 -0.695235
O25   O     O_3   0.640772 0.297493 0.684981 -0.633678
O26   O     O_2   0.790750 0.271170 0.482550 -0.454912
O27   O     O_3   0.062300 0.331660 0.568480 -0.438775
O28   O     O_2   0.989965 0.162765 0.572762 -0.550101
P1    P     P_3+3 0.090020 0.577590 0.608380 0.992159
P2    P     P_3+3 0.614340 0.285150 0.467650 1.037585
P3    P     P_3+3 0.125314 0.225214 0.592416 0.923386
P4    P     P_3+3 0.099670 0.422330 0.391610 1.082524
P5    P     P_3+3 0.084864 0.784125 0.419318 0.930908
P6    P     P_3+3 0.663794 0.400961 0.656092 0.978224
P7    P     P_3+3 0.581670 0.727239 0.536138 1.053024
P8    P     P_3+3 0.533858 0.603498 0.343531 1.056004
H27   H     H_    0.812859 0.241697 0.636579 0.076944
O29   O     O_3   0.036975 0.191140 0.295706 -0.649472
C67   C     C_3   0.187106 0.180847 0.273595 0.151102
H28   H     H_    0.239598 0.108852 0.273758 -0.047139
H29   H     H_    0.272840 0.228441 0.291865 0.113420
H30   H     H_    0.167793 0.199293 0.233862 0.138946
O30   O     O_3   0.889343 0.151674 0.360155 -0.668458
C68   C     C_3   0.819220 0.076997 0.334072 0.148636
H31   H     H_    0.881716 0.010825 0.345664 0.057508
H32   H     H_    0.818242 0.082954 0.292738 0.078504
H33   H     H_    0.691607 0.077707 0.343442 0.026809
H34   H     H_    0.878316 0.687498 0.657428 0.094560
O31   O     O_3   0.864090 0.814595 0.631506 -0.641839
C69   C     C_3   0.941982 0.870421 0.600282 0.266197
H35   H     H_    0.961435 0.834791 0.563751 -0.014658
H36   H     H_    0.058264 0.891287 0.617236 0.065822
H37   H     H_    0.863793 0.934009 0.593717 0.036349
H38   H     H_    0.956515 0.783068 0.725497 0.009612
O32   O     O_3   0.156089 0.833748 0.694284 -0.693580
C70   C     C_3   0.188135 0.877154 0.741699 0.088250
H39   H     H_    0.227795 0.827114 0.770854 0.132313
H40   H     H_    0.080083 0.920392 0.753155 0.055837
H41   H     H_    0.288651 0.922291 0.739262 0.048518
H42   H     H_    0.593966 0.402299 0.387704 0.026690
H43   H     H_    0.756197 0.342950 0.304560 0.009073
O33   O     O_3   0.503786 0.358338 0.300933 -0.654479
C71   C     C_3   0.493711 0.341462 0.248474 0.173846
H44   H     H_    0.488220 0.266914 0.238876 0.029726
H45   H     H_    0.596626 0.368544 0.230444 0.031595
H46   H     H_    0.381056 0.377356 0.232583 0.123301
H47   H     H_    0.612541 0.205253 0.625174 -0.004636
O34   O     O_3   0.618330 0.114943 0.710744 -0.617366
C72   C     C_3   0.658158 0.030609 0.733816 0.198959
H48   H     H_    0.554074 0.013485 0.754849 0.048712
H49   H     H_    0.764672 0.034823 0.761108 -0.000690
H50   H     H_    0.680431 0.974215 0.705260 0.075244
O35   O     O_3   0.627035 0.682334 0.697391 -0.652354
C73   C     C_3   0.651434 0.704152 0.749076 0.104296
H51   H     H_    0.550061 0.683823 0.770505 0.080726
H52   H     H_    0.669038 0.778518 0.755813 0.017302
H53   H     H_    0.762811 0.665177 0.763442 0.071428
O36   O     O_3   0.205511 0.713386 0.298501 -0.633630
C74   C     C_3   0.093555 0.698341 0.257990 0.266963
H54   H     H_    0.105419 0.745745 0.227364 0.052725
H55   H     H_    0.968753 0.700225 0.270522 0.074901
H56   H     H_    0.125768 0.629419 0.241515 0.038487
H57   H     H_    0.263484 0.876427 0.268358 -0.014169
O37   O     O_3   0.009249 0.890526 0.266333 -0.664555
C75   C     C_3   0.013646 0.951382 0.227057 0.097758
H58   H     H_    0.101810 0.925148 0.199333 0.027912
H59   H     H_    0.040964 0.020805 0.241691 0.071379
H60   H     H_    0.892212 0.957622 0.207223 0.055146
O38   O     O_3   0.610189 0.805073 0.379955 -0.657432
C76   C     C_3   0.546858 0.897409 0.378590 0.191478
H61   H     H_    0.456622 0.911167 0.347151 -0.048732
H62   H     H_    0.646313 0.943116 0.377257 0.005845
H63   H     H_    0.486057 0.915586 0.413621 0.092171
H64   H     H_    0.729663 0.788585 0.258753 0.144865
H65   H     H_    0.561978 0.863780 0.275262 0.071861
O39   O     O_3   0.219300 0.281876 0.140322 -0.631580
C77   C     C_3   0.126743 0.207928 0.123586 0.187878
H66   H     H_    0.995808 0.224686 0.128771 0.045853
H67   H     H_    0.166141 0.147668 0.146318 0.038212
H68   H     H_    0.145814 0.187304 0.083731 0.003319
H69   H     H_    0.395872 0.297231 0.891227 0.106539
H70   H     H_    0.302829 0.304279 0.052015 0.081525
H71   H     H_    0.640317 0.539740 0.241952 0.114277
O40   O     O_3   0.773894 0.727278 0.108058 -0.599234
C78   C     C_3   0.856032 0.807281 0.120020 0.233334
H72   H     H_    0.898042 0.836729 0.085846 -0.013548
H73   H     H_    0.959616 0.794003 0.147898 0.018396
H74   H     H_    0.770560 0.859477 0.137138 0.063714
H75   H     H_    0.046007 0.740748 0.965621 0.082008
O41   O     O_3   0.127652 0.762424 0.876273 -0.613816
C79   C     C_3   0.965020 0.780098 0.858740 0.206282
H76   H     H_    0.921053 0.722065 0.834564 0.011570
H77   H     H_    0.956535 0.841589 0.835489 0.042385
H78   H     H_    0.885475 0.795104 0.890427 0.006332
O42   O     O_3   0.030991 0.548337 0.721895 -0.655815
C80   C     C_3   0.985053 0.499465 0.762602 0.300731
H79   H     H_    0.055226 0.432944 0.768078 -0.005027
H80   H     H_    0.857373 0.484082 0.755847 0.062460
H81   H     H_    0.986526 0.543265 0.797288 -0.016489
H82   H     H_    0.890184 0.716495 0.021578 0.080296
H83   H     H_    0.851598 0.578706 0.393780 0.067414
O43   O     O_3   0.416503 0.063139 0.624745 -0.642331
C81   C     C_3   0.283694 0.021826 0.641826 0.220332
H84   H     H_    0.164736 0.045677 0.624244 0.022111
H85   H     H_    0.279607 0.037885 0.682396 0.124358
H86   H     H_    0.304383 0.946353 0.637708 0.104876
O44   O     O_3   0.406076 0.902227 0.554299 -0.653041
C82   C     C_3   0.253215 0.922218 0.528625 0.223385
H87   H     H_    0.190523 0.858179 0.523137 0.084065
H88   H     H_    0.259371 0.954313 0.491766 0.010406
H89   H     H_    0.174543 0.969399 0.550995 -0.053905
O45   O     O_3   0.183270 0.152409 0.745208 -0.654840
C83   C     C_3   0.186086 0.137334 0.797029 0.128432
H90   H     H_    0.114555 0.192988 0.817171 0.042982
H91   H     H_    0.312398 0.130353 0.813712 0.046913
H92   H     H_    0.130004 0.072072 0.802312 0.053510
O46   O     O_3   0.306147 0.219517 0.389039 -0.675963
C84   C     C_3   0.376598 0.128002 0.383870 0.091840
H93   H     H_    0.401166 0.110380 0.344392 0.020758
H94   H     H_    0.310060 0.074217 0.399447 -0.050429
H95   H     H_    0.494504 0.122255 0.404961 0.098896
O47   O     O_3   0.067345 0.233830 0.431874 -0.655613
C85   C     C_3   0.098206 0.150202 0.456279 0.187281
H96   H     H_    0.224081 0.142011 0.471672 -0.019491
H97   H     H_    0.071617 0.090153 0.431956 -0.036042
H98   H     H_    0.018319 0.149181 0.487143 0.127800

loop_
_geom_bond_atom_site_label_1
_geom_bond_atom_site_label_2
_ccdc_geom_bond_type
C25   C46   A    
C67   H30   S    
C57   C58   A    
C53   C54   A    
C21   H83   S    
Ba2   O13   S    
C3    H7    S    
C72   H48   S    
C37   P1    S    
O17   P8    S    
O10   P5    D    
C78   H72   S    
C52   C53   A    
O44   C82   S    
C68   H33   S    
C12   H16   S    
O25   P6    S    
O11   P5    S    
C82   H87   S    
C22   C37   D    
O31   C69   S    
O38   C76   S    
C56   O31   S    
C67   H28   S    
C74   H55   S    
C70   H40   S    
C64   H2    S    
C51   C52   A    
C32   N2    Am   
C71   H46   S    
C38   O42   S    
C60   C61   A    
C11   C16   D    
C34   O7    S    
C15   H17   S    
C36   P6    S    
O34   C72   S    
C85   H96   S    
Ba1   P1    S    
C64   H38   S    
C83   H92   S    
C7    O38   S    
C51   H22   S    
C3    C4    S    
C39   N2    S    
C73   H51   S    
Ba2   O6    S    
C31   C47   A    
C54   C63   A    
C5    O36   S    
C10   C20   A    
C8    H15   S    
O5    P4    S    
C54   C55   A    
C34   C45   S    
Ba1   Ba2   S    
O35   C73   S    
C3    H6    S    
C9    O18   D    
Ba1   O26   S    
C45   H1    S    
C65   O2    S    
Ba1   O13   S    
O36   C74   S    
O27   P3    S    
C25   C42   A    
C56   C64   S    
C13   P8    S    
C17   C18   A    
O40   C78   S    
C77   H67   S    
O8    P7    S    
C60   H24   S    
C46   H75   S    
C79   H78   S    
C22   C36   S    
O32   C70   S    
C70   H41   S    
C10   N1    Am   
C33   O19   D    
C49   C55   A    
C48   H82   S    
O12   P1    S    
C53   O43   S    
C7    C8    S    
C69   H36   S    
O23   P6    D    
C7    H14   S    
C32   O21   D    
C13   C21   S    
Ba2   O4    S    
C23   H26   S    
C72   H49   S    
O4    P4    D    
C22   H21   S    
C16   N1    S    
C78   H73   S    
C84   H94   S    
C35   C36   S    
C66   O33   S    
O45   C83   S    
C83   H90   S    
C17   C41   A    
C31   C32   A    
C74   H56   S    
C19   C43   A    
C79   H76   S    
C75   H59   S    
C34   O47   S    
C9    C18   A    
C57   C59   A    
C65   H3    S    
C6    H13   S    
C35   H18   S    
C26   C30   A    
C17   C20   A    
Ba1   P2    S    
O1    P1    D    
C50   C55   A    
Ba1   O1    S    
C37   C38   D    
C50   P2    S    
O41   C79   S    
C14   C15   D    
C19   O39   S    
O3    P3    S    
C3    O15   S    
Ba2   O5    S    
C66   H5    S    
C75   H58   S    
C65   C66   S    
C65   H42   S    
C40   C43   A    
O26   P2    D    
C41   C42   A    
Ba1   O27   S    
O42   C80   S    
C33   N2    Am   
C27   C28   A    
O22   P6    S    
C4    O35   S    
C81   H85   S    
C69   H37   S    
C6    O37   S    
C44   O40   S    
C71   H44   S    
C80   H81   S    
Ba2   O8    S    
C77   H68   S    
C56   O24   S    
C15   C16   S    
C2    H47   S    
O14   P7    D    
C85   H97   S    
C8    H64   S    
O16   P8    D    
O7    P4    S    
C14   P4    S    
Ba1   O8    S    
C1    O34   S    
C49   H25   S    
O28   P3    D    
O15   P7    S    
C46   C47   A    
C20   C44   A    
C80   H80   S    
C14   C21   D    
C11   C13   S    
C45   O29   S    
O33   C71   S    
C78   H74   S    
C5    O11   S    
C49   C58   A    
C84   H93   S    
C76   H62   S    
C66   H43   S    
C82   H89   S    
Ba1   O5    S    
C81   H84   S    
C50   C51   A    
C24   C40   A    
C63   O44   S    
C69   H35   S    
O46   C84   S    
C75   H60   S    
C42   C48   A    
C67   H29   S    
O47   C85   S    
Ba2   O14   S    
C11   H71   S    
C23   H11   S    
C29   C30   A    
O6    P8    S    
C4    H9    S    
C82   H88   S    
C47   O41   S    
O9    P5    S    
O30   C68   S    
C4    H8    S    
O29   C67   S    
C68   H32   S    
C72   H50   S    
C52   P3    S    
C44   C48   A    
C23   O45   S    
C24   C26   A    
C8    H65   S    
C58   C62   A    
C7    O17   S    
O39   C77   S    
C76   H63   S    
C1    H4    S    
C43   H70   S    
C12   H20   S    
C64   O32   S    
C83   H91   S    
C74   H54   S    
C30   C31   A    
C81   H86   S    
C6    H57   S    
C12   O3    S    
O43   C81   S    
C28   C29   A    
C73   H52   S    
C68   H31   S    
Ba2   O12   S    
O24   P1    S    
C2    O25   S    
C85   H98   S    
C29   C33   A    
Ba1   O22   S    
C61   P5    S    
C12   C23   S    
C35   C39   D    
C59   C60   A    
C27   H19   S    
C5    C6    S    
Ba2   O9    S    
C59   P7    S    
Ba1   O12   S    
C61   C62   A    
C56   H34   S    
O13   P2    S    
O2    P2    S    
C28   H69   S    
C9    N1    Am   
C18   C19   A    
C34   O46   S    
C24   C27   A    
C77   H66   S    
C40   C41   A    
C45   O30   S    
C25   C26   A    
C79   H77   S    
C5    H12   S    
C38   C39   S    
C70   H39   S    
C62   H23   S    
C76   H61   S    
C71   H45   S    
C1    H10   S    
C84   H95   S    
C57   C63   A    
O37   C75   S    
C1    C2    S    
C80   H79   S    
C2    H27   S    
C10   O20   D    
C73   H53   S    
Ba2   P4    S    
