data_mof_unit_5365.cif
_audit_creation_date              2012-12-10T18:21:15-0500
_audit_creation_method            fapswitch 2.2
_symmetry_space_group_name_H-M    P1
_symmetry_Int_Tables_number       1
_space_group_crystal_system       triclinic
_cell_length_a                    9.423885
_cell_length_b                    10.626418
_cell_length_c                    17.354982
_cell_angle_alpha                 90.122629
_cell_angle_beta                  85.840555
_cell_angle_gamma                 89.671034
_cell_volume                      1733.35310765

loop_
_atom_site_label
_atom_site_type_symbol
_atom_type_description
_atom_site_fract_x
_atom_site_fract_y
_atom_site_fract_z
_atom_type_partial_charge
C1    C     C_R   0.499843 0.740446 0.499098 0.826681
C2    C     C_R   0.500156 0.259556 0.500912 0.826710
C3    C     C_3   0.393045 0.959799 0.457790 -0.299409
C4    C     C_3   0.606947 0.040214 0.542237 -0.299576
C5    C     C_3   0.519293 0.042933 0.426478 -0.309198
C6    C     C_3   0.480704 0.957076 0.573547 -0.309418
C7    C     C_3   0.500852 0.122788 0.500888 -0.092116
C8    C     C_3   0.499146 0.877219 0.499135 -0.092157
C9    C     C_3   0.376967 0.040627 0.531671 0.549438
C10   C     C_3   0.623030 0.959387 0.468355 0.549372
C11   C     C_3   0.949903 0.385454 0.501807 -0.187423
C12   C     C_3   0.050100 0.614549 0.498189 -0.187975
C13   C     C_3   0.043004 0.444928 0.561622 -0.191017
C14   C     C_3   0.956991 0.555076 0.438376 -0.191566
C15   C     C_3   0.057274 0.441602 0.441276 0.609334
C16   C     C_3   0.942727 0.558400 0.558721 0.609321
C17   C     C_R   0.481323 0.498037 0.649736 0.783091
C18   C     C_R   0.518679 0.501957 0.350265 0.783125
C19   C     C_R   0.471827 0.490855 0.733991 -0.018144
C20   C     C_R   0.528191 0.509141 0.266012 -0.018008
C21   C     C_R   0.595733 0.470839 0.772516 -0.197409
C22   C     C_R   0.404334 0.529378 0.227482 -0.197661
C23   C     C_R   0.588504 0.464495 0.852457 -0.166349
C24   C     C_R   0.411593 0.535734 0.147540 -0.166383
C25   C     C_R   0.457208 0.479396 0.895153 0.197610
C26   C     C_R   0.542870 0.520645 0.104854 0.197594
C27   C     C_R   0.332711 0.495058 0.856785 -0.170159
C28   C     C_R   0.667326 0.504752 0.143226 -0.170149
C29   C     C_R   0.339905 0.501179 0.776522 -0.198363
C30   C     C_R   0.660100 0.498596 0.223488 -0.198356
C31   C     C_2   0.447216 0.478676 0.979741 -0.229403
C32   C     C_2   0.552875 0.521389 0.020268 -0.229420
Cu1   Cu    Cu3+1 0.356850 0.500010 0.499980 0.986996
Cu2   Cu    Cu3+1 0.643150 0.499990 0.500020 0.986977
H1    H     H_    0.698480 0.459306 0.740985 0.174777
H2    H     H_    0.301607 0.541071 0.259010 0.174545
H3    H     H_    0.903184 0.289887 0.502086 0.122856
H4    H     H_    0.096843 0.710106 0.497874 0.122771
H5    H     H_    0.757190 0.484735 0.252063 0.135895
H6    H     H_    0.242774 0.514828 0.747953 0.136005
H7    H     H_    0.651192 0.554962 0.991089 0.143281
H8    H     H_    0.348908 0.445105 0.008933 0.143286
H9    H     H_    0.230396 0.504991 0.889022 0.119855
H10   H     H_    0.769625 0.494655 0.110994 0.119846
H11   H     H_    0.314559 0.553698 0.119582 0.123373
H12   H     H_    0.685585 0.446685 0.880401 0.123281
H13   H     H_    0.536967 0.081055 0.367071 0.147564
H14   H     H_    0.463053 0.918951 0.632955 0.147484
H15   H     H_    0.305923 0.923964 0.424152 0.148782
H16   H     H_    0.694048 0.076055 0.575888 0.148742
H17   H     H_    0.084219 0.399075 0.612981 0.147866
H18   H     H_    0.915758 0.600976 0.387038 0.147845
N1    N     N_3   0.141720 0.500030 0.499940 -0.191646
N2    N     N_3   0.858280 0.499970 0.500060 -0.191641
O1    O     O_R   0.379130 0.683150 0.499960 -0.616886
O2    O     O_R   0.620870 0.316850 0.500040 -0.616924
O3    O     O_R   0.620910 0.683140 0.500000 -0.513366
O4    O     O_R   0.379090 0.316860 0.500000 -0.513279
O5    O     O_R   0.365090 0.500030 0.613580 -0.603738
O6    O     O_R   0.634910 0.499970 0.386420 -0.603715
O7    O     O_R   0.606870 0.500020 0.613610 -0.542153
O8    O     O_R   0.393130 0.499980 0.386390 -0.542205
O9    O     O_3   0.129613 0.377631 0.378728 -0.555499
C33   C     C_3   0.030689 0.332992 0.328228 0.028612
H19   H     H_    0.971120 0.412399 0.303936 0.127620
H20   H     H_    0.954702 0.266581 0.358357 0.133445
C34   C     C_3   0.109864 0.263390 0.261410 -0.785276
H21   H     H_    0.175847 0.186527 0.283619 0.251748
H22   H     H_    0.032468 0.222390 0.223241 0.198823
H23   H     H_    0.180121 0.329274 0.227144 0.243411
O10   O     O_3   0.870377 0.622218 0.621325 -0.555630
C35   C     C_3   0.969405 0.667928 0.671427 0.028782
H24   H     H_    0.044143 0.735055 0.641011 0.133409
H25   H     H_    0.030375 0.589190 0.695486 0.127701
C36   C     C_3   0.890167 0.736874 0.738487 -0.785499
H26   H     H_    0.821167 0.670353 0.773017 0.243198
H27   H     H_    0.967557 0.778733 0.776334 0.198910
H28   H     H_    0.822911 0.813039 0.716510 0.251873
O11   O     O_3   0.249997 0.093887 0.565774 -0.566451
C37   C     C_3   0.150585 0.997749 0.583451 0.073731
H29   H     H_    0.195146 0.924287 0.620638 0.128842
H30   H     H_    0.117010 0.953586 0.529630 0.143396
C38   C     C_3   0.019657 0.054310 0.627095 -0.804208
H31   H     H_    0.976033 0.132044 0.593230 0.236990
H32   H     H_    0.936795 0.981178 0.636869 0.208946
H33   H     H_    0.047942 0.091702 0.683748 0.246136
O12   O     O_3   0.750010 0.906181 0.434226 -0.566565
C39   C     C_3   0.849543 0.002321 0.416796 0.074100
H34   H     H_    0.883077 0.046133 0.470729 0.143500
H35   H     H_    0.805126 0.076055 0.379746 0.128913
C40   C     C_3   0.980487 0.945881 0.373108 -0.804085
H36   H     H_    0.952299 0.908899 0.316339 0.246068
H37   H     H_    0.063453 0.018975 0.363579 0.208972
H38   H     H_    0.023929 0.867876 0.406822 0.236997

loop_
_geom_bond_atom_site_label_1
_geom_bond_atom_site_label_2
_ccdc_geom_bond_type
Cu1   O1    S    
O12   C39   S    
C35   H25   S    
C25   C31   S    
Cu1   O4    S    
C31   H8    S    
C27   C29   A    
C1    C8    S    
C39   H35   S    
C2    C7    S    
C6    C9    S    
C3    H15   S    
C20   C30   A    
Cu2   O2    S    
C5    H13   S    
C6    H14   S    
C38   H31   S    
C24   H11   S    
C15   N1    S    
C19   C21   A    
C24   C26   A    
C37   C38   S    
C9    O11   S    
C11   H3    S    
C17   O7    A    
C13   H17   S    
C11   C15   S    
C14   H18   S    
C12   C16   S    
Cu1   O8    S    
Cu2   O3    S    
C32   H7    S    
C12   N1    S    
Cu1   O5    S    
C23   H12   S    
Cu2   O6    S    
C16   O10   S    
C4    C7    S    
C13   N1    S    
Cu1   N1    S    
C10   O12   S    
C34   H21   S    
C33   C34   S    
C4    C6    S    
C3    C8    S    
C40   H36   S    
C5    C7    S    
C26   C32   S    
C35   H24   S    
C6    C8    S    
C28   H10   S    
Cu2   O7    S    
O9    C33   S    
C4    H16   S    
C34   H22   S    
C33   H20   S    
C36   H26   S    
C3    C9    S    
C1    O3    A    
C40   H37   S    
C31   C32   D    
C39   C40   S    
Cu1   Cu2   S    
C36   H27   S    
C11   N2    S    
C17   O5    A    
C18   O6    A    
C38   H32   S    
C12   C14   S    
Cu2   N2    S    
C21   C23   A    
C22   C24   A    
C4    C10   S    
C19   C29   A    
C7    C9    S    
C14   N2    S    
C18   O8    A    
C20   C22   A    
C37   H29   S    
C3    C5    S    
C2    O4    A    
C21   H1    S    
C25   C27   A    
C22   H2    S    
C26   C28   A    
C34   H23   S    
C33   H19   S    
C28   C30   A    
C1    O1    A    
O10   C35   S    
C2    O2    A    
C40   H38   S    
C11   C13   S    
C35   C36   S    
C29   H6    S    
C17   C19   S    
C37   H30   S    
C30   H5    S    
C18   C20   S    
C23   C25   A    
C12   H4    S    
C36   H28   S    
C16   N2    S    
O11   C37   S    
C27   H9    S    
C5    C10   S    
C38   H33   S    
C39   H34   S    
C8    C10   S    
C13   C16   S    
C15   O9    S    
C14   C15   S    
