data_mof_unit_11779.cif
_audit_creation_date              2012-12-10T17:18:59-0500
_audit_creation_method            fapswitch 2.2
_symmetry_space_group_name_H-M    P1
_symmetry_Int_Tables_number       1
_space_group_crystal_system       triclinic
_cell_length_a                    10.323201
_cell_length_b                    10.786144
_cell_length_c                    13.437487
_cell_angle_alpha                 92.742211
_cell_angle_beta                  100.806267
_cell_angle_gamma                 95.620865
_cell_volume                      1459.27302681

loop_
_atom_site_label
_atom_site_type_symbol
_atom_type_description
_atom_site_fract_x
_atom_site_fract_y
_atom_site_fract_z
_atom_type_partial_charge
C1    C     C_R   0.051185 0.731746 0.490599 0.940590
C2    C     C_R   0.945989 0.267645 0.503039 0.936921
C3    C     C_R   0.426930 0.482958 0.143524 0.452335
C4    C     C_R   0.471156 0.300698 0.914975 0.470481
C5    C     C_R   0.299457 0.516743 0.110895 -0.235352
C6    C     C_R   0.599575 0.269127 0.945380 -0.210337
C7    C     C_2   0.075349 0.862595 0.474951 -0.363988
C8    C     C_2   0.911038 0.134380 0.494441 -0.372351
C9    C     C_2   0.972764 0.930093 0.464965 -0.137008
C10   C     C_2   0.994821 0.062588 0.462089 -0.131082
C11   C     C_2   0.431050 0.514830 0.505859 0.296371
C12   C     C_2   0.569594 0.477272 0.508071 0.256493
C13   C     C_R   0.094151 0.512966 0.687181 0.912296
C14   C     C_R   0.905394 0.483302 0.313527 0.932791
C15   C     C_R   0.142652 0.511378 0.798221 -0.142621
C16   C     C_R   0.846939 0.448089 0.206480 -0.147956
C17   C     C_R   0.118477 0.548497 0.973905 -0.236149
C18   C     C_R   0.812522 0.299233 0.060200 -0.215749
C19   C     C_R   0.065960 0.547180 0.869755 0.042787
C20   C     C_R   0.892953 0.352612 0.150873 0.036530
C21   C     C_R   0.268951 0.472316 0.833513 0.354648
C22   C     C_R   0.725518 0.491980 0.168121 0.355789
C23   C     C_R   0.309627 0.453449 0.937226 -0.045797
C24   C     C_R   0.633914 0.418796 0.091575 -0.054273
C25   C     C_R   0.241729 0.505930 0.007753 0.023156
C26   C     C_R   0.682589 0.329595 0.031543 0.008475
C27   C     C_R   0.424581 0.395046 0.973012 -0.114750
C28   C     C_R   0.496760 0.433810 0.070920 -0.103688
H1    H     H_    0.247405 0.554937 0.166246 0.163786
H2    H     H_    0.634510 0.197387 0.900989 0.165430
H3    H     H_    0.062826 0.583315 0.028188 0.152254
H4    H     H_    0.848384 0.228628 0.015327 0.145410
H5    H     H_    0.086287 0.101424 0.440819 0.183362
H6    H     H_    0.872700 0.889324 0.466909 0.183984
H7    H     H_    0.819871 0.094974 0.515744 0.149003
H8    H     H_    0.175208 0.903986 0.473174 0.151102
N1    N     N_2   0.322180 0.446120 0.460900 -0.090813
N2    N     N_2   0.677820 0.553880 0.539100 -0.102830
O1    O     O_R   0.935190 0.693030 0.507870 -0.618177
O2    O     O_R   0.064810 0.306970 0.492130 -0.603800
O3    O     O_R   0.142080 0.658430 0.482770 -0.640492
O4    O     O_R   0.857920 0.341570 0.517230 -0.647290
O5    O     O_R   0.969700 0.527180 0.651960 -0.588382
O6    O     O_R   0.030300 0.472820 0.348040 -0.614662
O7    O     O_R   0.176600 0.492580 0.626860 -0.558555
O8    O     O_R   0.823400 0.507420 0.373140 -0.569242
Zn1   Zn    Zn3+2 0.861850 0.523100 0.516760 0.947641
Zn2   Zn    Zn3+2 0.138150 0.476900 0.483240 0.955221
O9    O     O_3   0.700388 0.606259 0.207118 -0.734012
H9    H     H_    0.637043 0.642608 0.154658 0.343649
O10   O     O_3   0.355131 0.461216 0.767037 -0.729884
H10   H     H_    0.446402 0.491058 0.803422 0.333039
N3    N     N_3   0.017721 0.306746 0.188282 -0.440504
H11   H     H_    0.092076 0.375424 0.178833 0.190711
H12   H     H_    0.029199 0.227450 0.144249 0.181792
N4    N     N_3   0.937694 0.588090 0.837658 -0.425679
H13   H     H_    0.869050 0.531237 0.868153 0.193312
H14   H     H_    0.939927 0.679388 0.868350 0.182892
O11   O     O_3   0.474618 0.490399 0.246792 -0.747416
H15   H     H_    0.536183 0.425927 0.261717 0.342478
O12   O     O_3   0.392129 0.231813 0.832651 -0.731883
H16   H     H_    0.298001 0.234999 0.837739 0.340819
N5    N     N_3   0.581962 0.349163 0.482524 -0.452904
H17   H     H_    0.633409 0.344476 0.422818 0.215162
H18   H     H_    0.632886 0.311197 0.546570 0.204771
N6    N     N_3   0.420111 0.631107 0.558417 -0.458054
H19   H     H_    0.366365 0.618159 0.615749 0.245821
H20   H     H_    0.377341 0.690933 0.506131 0.204872
N7    N     N_3   0.664107 0.680163 0.551638 -0.392421
H21   H     H_    0.736678 0.716958 0.613763 0.205561
H22   H     H_    0.686740 0.721668 0.487434 0.219475
N8    N     N_3   0.332629 0.342593 0.398635 -0.378028
H23   H     H_    0.290237 0.264677 0.428884 0.201994
H24   H     H_    0.272930 0.352057 0.328179 0.212923

loop_
_geom_bond_atom_site_label_1
_geom_bond_atom_site_label_2
_ccdc_geom_bond_type
C19   N4    S    
N6    H20   S    
C11   C12   S    
N5    H18   S    
C11   N1    D    
C14   C16   S    
C23   C27   A    
N8    H24   S    
C24   C28   A    
C7    H8    S    
C18   C20   A    
O12   H16   S    
C18   C26   A    
C11   N6    S    
C21   O10   S    
C16   C20   A    
N7    H21   S    
C17   C25   A    
C7    C9    D    
C13   O5    A    
N3    H12   S    
N6    H19   S    
N2    N7    S    
O11   H15   S    
C14   O8    A    
N3    H11   S    
N1    Zn2   S    
C15   C19   A    
N2    Zn1   S    
C6    C26   A    
C2    O4    A    
C22   O9    S    
C5    C25   A    
O1    Zn1   S    
C3    C28   A    
C17   C19   A    
O3    Zn2   S    
C24   C26   A    
C10   H5    S    
C5    H1    S    
O4    Zn1   S    
C21   C23   A    
C13   C15   S    
C12   N2    D    
C9    H6    S    
C17   H3    S    
C22   C24   A    
N1    N8    S    
C4    C6    A    
C18   H4    S    
C1    O1    A    
N5    H17   S    
C2    O2    A    
C15   C21   A    
C4    C27   A    
O10   H10   S    
N4    H13   S    
C13   O7    A    
C14   O6    A    
O9    H9    S    
C9    C10   S    
O7    Zn2   S    
C1    O3    A    
C27   C28   A    
N7    H22   S    
C12   N5    S    
O2    Zn2   S    
O8    Zn1   S    
C20   N3    S    
C16   C22   A    
C6    H2    S    
C23   C25   A    
C1    C7    S    
O5    Zn1   S    
C4    O12   S    
C8    C10   D    
C2    C8    S    
O6    Zn2   S    
N4    H14   S    
N8    H23   S    
C3    C5    A    
C8    H7    S    
C3    O11   S    
