data_mof_unit_14463.cif
_audit_creation_date              2013-03-05T15:43:49-0500
_audit_creation_method            fapswitch 2.2
_symmetry_space_group_name_H-M    P1
_symmetry_Int_Tables_number       1
_space_group_crystal_system       triclinic
_cell_length_a                    10.09273
_cell_length_b                    10.665479
_cell_length_c                    15.388795
_cell_angle_alpha                 90.620305
_cell_angle_beta                  67.123609
_cell_angle_gamma                 90.069839
_cell_volume                      1526.11933073

loop_
_atom_site_label
_atom_site_type_symbol
_atom_site_description
_atom_site_fract_x
_atom_site_fract_y
_atom_site_fract_z
_atom_type_partial_charge
O1    O     O_R   0.386950 0.680940 0.500010 -0.571540
O2    O     O_R   0.613110 0.680900 0.499990 -0.628702
C1    C     C_R   0.500901 0.737550 0.499279 0.918941
O3    O     O_R   0.322330 0.500030 0.632270 -0.579091
O4    O     O_R   0.548480 0.499990 0.632240 -0.548863
C2    C     C_R   0.409156 0.496113 0.676517 0.893826
Zn1   Zn    Zn3+2 0.349000 0.500030 0.500020 1.073026
Zn2   Zn    Zn3+2 0.651000 0.499970 0.499980 1.078761
O5    O     O_R   0.386890 0.319100 0.500010 -0.578963
O6    O     O_R   0.613050 0.319060 0.499990 -0.578055
O7    O     O_R   0.451520 0.500010 0.367760 -0.609131
O8    O     O_R   0.677670 0.499970 0.367730 -0.551291
C3    C     C_R   0.494473 0.263174 0.508420 0.878359
C4    C     C_R   0.591227 0.498342 0.323133 0.919591
C5    C     C_R   0.348578 0.485979 0.779793 -0.159121
C6    C     C_R   0.647428 0.475220 0.220515 -0.210458
C7    C     C_R   0.166903 0.552324 0.929437 -0.166045
C8    C     C_R   0.214364 0.540194 0.832056 -0.185691
C9    C     C_R   0.429015 0.429891 0.826433 0.248501
C10   C     C_R   0.379803 0.439635 0.926111 -0.023402
C11   C     C_R   0.252600 0.509466 0.975870 0.098863
C12   C     C_R   0.460535 0.394207 0.977004 0.070093
C13   C     C_R   0.440303 0.450548 0.064875 0.080228
C14   C     C_R   0.308907 0.512433 0.114671 -0.108499
C15   C     C_R   0.215094 0.539650 0.070958 -0.107182
C16   C     C_R   0.557227 0.292731 0.945172 -0.098372
C17   C     C_R   0.652683 0.266252 0.987325 -0.140103
C18   C     C_R   0.653519 0.340151 0.062395 0.055308
C19   C     C_R   0.548039 0.435023 0.101867 0.030147
C20   C     C_R   0.760295 0.320620 0.097359 -0.248679
C21   C     C_R   0.758764 0.387051 0.176489 0.257080
C22   C     C_R   0.558025 0.511590 0.174649 0.159658
H1    H     H_    0.117292 0.591408 0.109914 0.189130
H2    H     H_    0.728561 0.189713 0.959470 0.170387
H3    H     H_    0.066872 0.601591 0.967815 0.168872
H4    H     H_    0.150402 0.580980 0.796999 0.208851
H5    H     H_    0.274916 0.536130 0.188569 0.192189
H6    H     H_    0.557684 0.230693 0.889190 0.194497
H7    H     H_    0.844168 0.251883 0.063554 0.199329
C23   C     C_2   0.586509 0.066711 0.534398 -0.148112
C24   C     C_2   0.473416 0.135312 0.538655 0.115067
H8    H     H_    0.692187 0.107327 0.516056 0.215322
C25   C     C_2   0.578078 0.932145 0.540213 -0.130781
C26   C     C_2   0.504746 0.870534 0.497473 -0.246723
H9    H     H_    0.641502 0.883525 0.572608 0.190807
H10   H     H_    0.447748 0.918035 0.460220 0.192037
C27   C     C_2   0.108493 0.442335 0.438834 -0.057186
N1    N     N_2   0.148330 0.498670 0.499030 -0.005471
H11   H     H_    0.190839 0.402828 0.375667 0.152813
C28   C     C_2   0.954977 0.419427 0.454642 0.370395
N2    N     N_2   0.852680 0.498640 0.499000 -0.171532
H12   H     H_    0.885301 0.585313 0.512994 0.183552
Br1   Br    Br    0.276112 0.078469 0.599267 -0.412692
Br2   Br    Br    0.017130 0.520350 0.625675 -0.330288
Br3   Br    Br    0.919779 0.267069 0.401670 -0.365644
Br4   Br    Br    0.480545 0.680274 0.201745 -0.492002
N3    N     N_R   0.872147 0.365637 0.209088 0.231472
O9    O     O_R   0.928529 0.460011 0.236515 -0.401688
O10   O     O_R   0.940753 0.259037 0.190940 -0.352744
N4    N     N_R   0.567661 0.377287 0.771311 0.194200
O11   O     O_R   0.683689 0.433478 0.768600 -0.330802
O12   O     O_R   0.578272 0.279434 0.717680 -0.392449

loop_
_geom_bond_atom_site_label_1
_geom_bond_atom_site_label_2
_geom_bond_distance
_ccdc_geom_bond_type
N1    Br2   1.894651 S    
O4    Zn2   1.890974 S    
C5    C9    1.412639 A    
C13   C14   1.408047 A    
C9    N4    1.435672 S    
C5    C8    1.400322 A    
C28   Br3   1.904278 S    
O8    C4    1.302954 A    
Zn2   O8    1.946391 S    
Zn1   N1    2.031313 S    
C21   N3    1.436247 S    
C18   C20   1.395722 A    
C7    C8    1.389161 A    
C16   C17   1.385356 A    
C19   C22   1.413933 A    
C27   H11   1.084915 S    
C17   H2    1.084128 S    
C14   C15   1.390450 A    
C6    C21   1.415215 A    
Zn1   O7    1.890973 S    
C25   H9    1.087056 S    
Zn2   N2    2.029753 S    
C24   Br1   1.941175 S    
N3    O9    1.300472 A    
O4    C2    1.303379 A    
N4    O11   1.301185 A    
O3    Zn1   1.946394 S    
C13   C19   1.420411 A    
C3    C24   1.434400 S    
C23   C24   1.336153 D    
C26   H10   1.086116 S    
C20   H7    1.084224 S    
C28   N2    1.298993 D    
C27   C28   1.492255 S    
O2    C1    1.288088 A    
C25   C26   1.334201 D    
N4    O12   1.301810 A    
C20   C21   1.397064 A    
Zn2   O6    1.966673 S    
O7    C4    1.306533 A    
C4    C6    1.473719 S    
C1    C26   1.419104 S    
N3    O10   1.301836 A    
C6    C22   1.401706 A    
C10   C12   1.420342 A    
N2    H12   1.029258 S    
C18   C19   1.418696 A    
C27   N1    1.287522 D    
C10   C11   1.419474 A    
O3    C2    1.303041 A    
C12   C16   1.408223 A    
C17   C18   1.394165 A    
Zn1   O5    1.967676 S    
C14   H5    1.079576 S    
O5    C3    1.289975 A    
C12   C13   1.413973 A    
C16   H6    1.079158 S    
C11   C15   1.395563 A    
C7    H3    1.084045 S    
C2    C5    1.469509 S    
O1    Zn1   1.966673 S    
C8    H4    1.083306 S    
C22   Br4   1.937982 S    
C23   C25   1.439321 S    
O2    Zn2   1.967675 S    
C9    C10   1.419412 A    
C15   H1    1.082832 S    
C23   H8    1.082761 S    
O1    C1    1.294501 A    
O6    C3    1.297526 A    
C7    C11   1.398618 A    
