data_mof_unit_46557.cif
_audit_creation_date              2012-10-26T19:39:37-0400
_audit_creation_method            fapswitch 2.2
_symmetry_space_group_name_H-M    P1
_symmetry_Int_Tables_number       1
_space_group_crystal_system       triclinic
_cell_length_a                    10.837167
_cell_length_b                    8.727777
_cell_length_c                    7.561575
_cell_angle_alpha                 102.952521
_cell_angle_beta                  94.009492
_cell_angle_gamma                 93.99754
_cell_volume                      692.616253439

loop_
_atom_site_label
_atom_site_type_symbol
_atom_type_description
_atom_site_fract_x
_atom_site_fract_y
_atom_site_fract_z
_atom_type_partial_charge
C1    C     C_R   0.505083 0.201391 0.453317 0.551913
C2    C     C_2   0.528891 0.037240 0.431020 0.106419
C3    C     C_3   0.958613 0.778704 0.482920 -0.313191
C4    C     C_3   0.597623 0.003913 0.116550 -0.265644
C5    C     C_3   0.307005 0.247798 0.955172 -0.244339
C6    C     C_3   0.756007 0.529401 0.009843 -0.222644
C7    C     C_2   0.500952 0.967038 0.565854 -0.128394
C8    C     C_R   0.265660 0.491202 0.501726 0.541456
C9    C     C_R   0.505886 0.799874 0.545737 0.542028
C10   C     C_R   0.734242 0.503096 0.498115 0.535601
C11   C     C_2   0.921199 0.407855 0.380278 -0.141130
C12   C     C_2   0.867222 0.520633 0.493289 0.126982
C13   C     C_2   0.054688 0.417413 0.363021 -0.161658
C14   C     C_2   0.133441 0.469787 0.511187 -0.095461
Cu1   Cu    Cu3+1 0.513740 0.517380 0.684380 0.980842
Cu2   Cu    Cu3+1 0.486260 0.482620 0.315620 0.947513
H1    H     H_    0.864708 0.307951 0.292830 0.090582
H2    H     H_    0.647102 0.919074 0.020649 0.153130
H3    H     H_    0.645027 0.123303 0.128921 0.149783
H4    H     H_    0.499806 0.996544 0.059069 0.171246
H5    H     H_    0.286033 0.485724 0.983950 0.243417
H6    H     H_    0.274769 0.245479 0.090466 0.150254
H7    H     H_    0.381996 0.168333 0.928649 0.138852
H8    H     H_    0.228206 0.203725 0.849951 0.094820
H9    H     H_    0.645461 0.679809 0.182178 0.289587
H10   H     H_    0.814163 0.528300 0.134229 0.119528
H11   H     H_    0.815539 0.597121 0.935894 0.131600
H12   H     H_    0.087460 0.378754 0.229103 0.120801
H13   H     H_    0.731655 0.405791 0.931631 0.162983
H14   H     H_    0.099971 0.492578 0.646069 0.137317
H15   H     H_    0.462586 0.030062 0.686666 0.075514
H16   H     H_    0.895585 0.715782 0.709760 0.241817
H17   H     H_    0.014141 0.884556 0.568285 0.135652
H18   H     H_    0.870018 0.815246 0.429373 0.119004
H19   H     H_    0.012338 0.728321 0.367179 0.165173
H20   H     H_    0.690514 0.945667 0.340893 0.218235
N1    N     N_2   0.465540 0.456420 0.038510 -0.022908
N2    N     N_2   0.534460 0.543580 0.961490 0.009003
N3    N     N_2   0.933839 0.665037 0.591902 -0.533640
N4    N     N_2   0.602577 0.962495 0.291609 -0.523112
N5    N     N_2   0.350771 0.405854 0.947261 -0.347553
N6    N     N_2   0.646345 0.610643 0.054293 -0.387818
O1    O     O_R   0.508930 0.286130 0.619780 -0.507884
O2    O     O_R   0.485720 0.256780 0.308360 -0.516160
O3    O     O_R   0.333540 0.514670 0.655670 -0.486980
O4    O     O_R   0.310330 0.485320 0.344250 -0.516804
O5    O     O_R   0.514280 0.743220 0.691640 -0.506909
O6    O     O_R   0.491070 0.713870 0.380220 -0.481337
O7    O     O_R   0.689670 0.514680 0.655750 -0.515783
O8    O     O_R   0.666460 0.485330 0.344330 -0.531703

loop_
_geom_bond_atom_site_label_1
_geom_bond_atom_site_label_2
_ccdc_geom_bond_type
H9    N6    S    
C8    C14   S    
C11   C12   D    
Cu1   N2    S    
C9    O5    A    
N1    N2    D    
Cu1   O5    S    
C10   O7    A    
Cu2   O2    S    
C1    O2    A    
C2    C7    D    
C5    H7    S    
C3    H19   S    
Cu2   N1    S    
C4    N4    S    
C4    H2    S    
Cu2   O6    S    
C12   N3    S    
Cu1   O1    S    
C13   H12   S    
C13   C14   D    
C11   C13   S    
C6    H10   S    
C5    H8    S    
C10   C12   S    
C14   H14   S    
H5    N5    S    
Cu2   O8    S    
N2    N6    S    
Cu1   O7    S    
N1    N5    S    
C8    O4    A    
C7    H15   S    
C3    H17   S    
C3    N3    S    
Cu1   Cu2   S    
C4    H4    S    
C2    N4    S    
H20   N4    S    
C6    H13   S    
C9    O6    A    
C1    C2    S    
C6    N6    S    
H16   N3    S    
Cu2   O4    S    
C7    C9    S    
Cu1   O3    S    
C8    O3    A    
C11   H1    S    
C5    N5    S    
C3    H18   S    
C4    H3    S    
C1    O1    A    
C5    H6    S    
C6    H11   S    
C10   O8    A    
