data_mof_unit_53691.cif
_audit_creation_date              2012-12-11T14:29:38-0500
_audit_creation_method            fapswitch 2.2
_symmetry_space_group_name_H-M    P1
_symmetry_Int_Tables_number       1
_space_group_crystal_system       triclinic
_cell_length_a                    6.9589
_cell_length_b                    14.910456
_cell_length_c                    16.096893
_cell_angle_alpha                 90.301583
_cell_angle_beta                  89.86745
_cell_angle_gamma                 89.81834
_cell_volume                      1670.18354358

loop_
_atom_site_label
_atom_site_type_symbol
_atom_type_description
_atom_site_fract_x
_atom_site_fract_y
_atom_site_fract_z
_atom_type_partial_charge
O1    O     O_R   0.494400 0.416610 0.413880 -0.545517
O2    O     O_R   0.823920 0.406790 0.585520 -0.548319
O3    O     O_R   0.994250 0.583390 0.586120 -0.540011
C1    C     C_R   0.656121 0.389370 0.617166 0.745484
O4    O     O_R   0.824110 0.405730 0.414490 -0.538933
O5    O     O_R   0.994440 0.582310 0.413870 -0.547627
C2    C     C_R   0.655050 0.383852 0.386283 0.745401
O6    O     O_R   0.494210 0.417690 0.586130 -0.539072
O7    O     O_3   0.660810 0.557940 0.500000 -0.370694
V1    V     V_3+5 0.935650 0.489250 0.500000 1.388523
O8    O     O_R   0.324160 0.593210 0.414480 -0.541045
C3    C     C_R   0.156376 0.609726 0.382601 0.717126
O9    O     O_R   0.323970 0.594270 0.585510 -0.537724
C4    C     C_R   0.154695 0.614903 0.614634 0.689448
V2    V     V_3+5 0.435660 0.510750 0.500000 1.399586
O10   O     O_3   0.160630 0.442060 0.500000 -0.375916
C5    C     C_R   0.288390 0.580771 0.780494 -0.148542
C6    C     C_R   0.349696 0.560447 0.860422 -0.119443
C7    C     C_R   0.332871 0.623856 0.923384 -0.121508
C8    C     C_R   0.256194 0.708223 0.906635 -0.131831
C9    C     C_R   0.195461 0.731993 0.825358 0.064648
C10   C     C_R   0.210334 0.666176 0.761478 0.066960
C11   C     C_R   0.119171 0.818950 0.808153 -0.160409
C12   C     C_R   0.052170 0.839739 0.724601 0.013626
C13   C     C_R   0.056896 0.769501 0.663685 0.010179
C14   C     C_R   0.141544 0.684867 0.681038 -0.148418
C15   C     C_R   0.990597 0.927904 0.696482 0.091840
C16   C     C_R   0.916413 0.940228 0.613845 0.160805
C17   C     C_R   0.904150 0.866027 0.559799 0.129083
C18   C     C_R   0.981870 0.784741 0.583795 -0.212334
H1    H     H_    0.300959 0.528158 0.734257 0.102722
H2    H     H_    0.378501 0.607500 0.985781 0.114211
C19   C     C_2   0.998300 0.709593 0.281718 -0.181504
C20   C     C_2   0.153787 0.659197 0.302469 0.001882
H3    H     H_    0.873457 0.709260 0.322346 0.127167
C21   C     C_2   0.981683 0.767755 0.207167 -0.146176
C22   C     C_2   0.123358 0.823216 0.183448 -0.342002
H4    H     H_    0.843664 0.770290 0.175917 0.144736
C23   C     C_2   0.754776 0.245308 0.814557 -0.132022
C24   C     C_2   0.620967 0.180832 0.817449 -0.372482
H5    H     H_    0.852397 0.252719 0.866700 0.143541
C25   C     C_2   0.793196 0.297409 0.736783 0.167917
C26   C     C_2   0.644273 0.334906 0.694524 -0.403219
H6    H     H_    0.503304 0.331194 0.722172 0.141062
C27   C     C_2   0.778241 0.208971 0.213792 -0.131371
C28   C     C_2   0.613561 0.181644 0.177460 -0.310937
H7    H     H_    0.913767 0.180450 0.192740 0.137020
C29   C     C_2   0.791013 0.277230 0.281801 -0.135236
C30   C     C_2   0.638445 0.315978 0.319298 -0.312158
O11   O     O_R   0.770210 0.079270 0.910680 -0.545651
O12   O     O_R   0.440150 0.091160 0.082270 -0.545542
O13   O     O_R   0.269970 0.914530 0.082860 -0.543402
C31   C     C_R   0.608621 0.113178 0.110495 0.739707
O14   O     O_R   0.440480 0.090100 0.911240 -0.540998
O15   O     O_R   0.270310 0.913460 0.910610 -0.533149
C32   C     C_R   0.610061 0.114383 0.885390 0.749923
O16   O     O_R   0.769870 0.080340 0.082930 -0.539434
O17   O     O_3   0.603660 0.938980 0.996790 -0.368584
V3    V     V_3+5 0.328750 0.007610 0.996740 1.396730
O18   O     O_R   0.940600 0.902510 0.911180 -0.543543
C33   C     C_R   0.109051 0.883827 0.879796 0.704685
O19   O     O_R   0.940270 0.903570 0.082200 -0.538966
C34   C     C_R   0.109103 0.883786 0.111580 0.748197
V4    V     V_3+5 0.828770 0.986010 0.996670 1.403618
O20   O     O_3   0.103730 0.054750 0.996710 -0.375723
C35   C     C_3   0.819795 0.870791 0.472913 -0.364656
C36   C     C_3   0.974835 0.892605 0.408756 -0.771436
H8    H     H_    0.047137 0.956932 0.423383 0.219382
H9    H     H_    0.085350 0.838732 0.407357 0.225957
H10   H     H_    0.908561 0.897923 0.346319 0.228883
H11   H     H_    0.754283 0.805251 0.455947 0.173703
H12   H     H_    0.699353 0.919520 0.469440 0.183025
C37   C     C_3   0.322305 0.642800 0.243230 -0.338445
C38   C     C_3   0.341805 0.543505 0.220325 -0.769689
H13   H     H_    0.376015 0.502521 0.275625 0.231383
H14   H     H_    0.206276 0.518794 0.192077 0.224304
H15   H     H_    0.460056 0.534616 0.174525 0.211382
H16   H     H_    0.307363 0.678217 0.183492 0.199689
H17   H     H_    0.457357 0.666314 0.272792 0.171517
H18   H     H_    0.256765 0.824615 0.218386 0.136800
H19   H     H_    0.528018 0.172777 0.764719 0.139066
C39   C     C_3   0.997914 0.305169 0.704762 -0.266464
C40   C     C_3   0.150227 0.258072 0.756669 -0.834814
H20   H     H_    0.206517 0.303788 0.805527 0.225586
H21   H     H_    0.095937 0.196902 0.786543 0.244550
H22   H     H_    0.266833 0.236736 0.714237 0.217394
H23   H     H_    0.003055 0.275104 0.641381 0.182081
H24   H     H_    0.038967 0.377034 0.701048 0.181597
H25   H     H_    0.476292 0.209317 0.196508 0.127832
H26   H     H_    0.934658 0.295532 0.301810 0.134547
H27   H     H_    0.493702 0.298481 0.300980 0.129508
H28   H     H_    0.408540 0.494770 0.873709 0.113920
H29   H     H_    0.244207 0.753780 0.958829 0.107181
C41   C     C_3   0.041912 0.011884 0.744547 -0.365176
C42   C     C_3   0.254949 0.029229 0.734506 -0.789640
H30   H     H_    0.343167 0.968675 0.747177 0.237190
H31   H     H_    0.284315 0.053486 0.670776 0.224270
H32   H     H_    0.294490 0.081112 0.779063 0.232193
H33   H     H_    0.962954 0.072172 0.725055 0.196156
H34   H     H_    0.997270 0.011682 0.809252 0.196202
C43   C     C_3   0.861461 0.033119 0.580800 -0.357496
C44   C     C_3   0.663495 0.061554 0.611891 -0.803879
H35   H     H_    0.551962 0.019668 0.581536 0.227298
H36   H     H_    0.651960 0.053059 0.680042 0.232787
H37   H     H_    0.636778 0.132995 0.596371 0.224332
H38   H     H_    0.971742 0.084153 0.595699 0.176561
H39   H     H_    0.858941 0.036528 0.512331 0.189073
H40   H     H_    0.984428 0.733130 0.536578 0.139959

loop_
_geom_bond_atom_site_label_1
_geom_bond_atom_site_label_2
_ccdc_geom_bond_type
C43   H39   S    
C8    H29   S    
C43   C44   S    
O15   V3    S    
O11   V4    S    
C37   C38   S    
C42   H30   S    
C25   C39   S    
C12   C15   A    
C1    O6    A    
C42   H32   S    
C23   H5    S    
C28   H25   S    
C27   C28   D    
C17   C18   A    
C38   H14   S    
C16   C17   A    
O5    C3    A    
C39   H23   S    
C13   C18   A    
C19   C21   S    
C44   H37   S    
C6    C7    A    
O19   V4    S    
O8    V2    S    
C16   C43   S    
C35   H12   S    
C40   H20   S    
C24   C32   S    
C38   H15   S    
C11   C12   A    
O1    V2    S    
O7    V1    S    
C35   C36   S    
C29   H26   S    
O9    C4    A    
C44   H35   S    
C30   H27   S    
C7    H2    S    
C22   C34   S    
C5    C6    A    
C23   C25   S    
O14   V3    S    
C27   H7    S    
O17   V4    S    
C22   H18   S    
O14   C32   A    
C38   H13   S    
C36   H8    S    
C12   C13   A    
C2    C30   S    
C23   C24   D    
O4    C2    A    
C31   O16   A    
O17   V3    S    
O11   C32   A    
O18   C33   A    
O12   C31   A    
O2    C1    A    
C26   H6    S    
O19   C34   A    
O13   V3    S    
C35   H11   S    
C41   H34   S    
C37   H16   S    
C19   C20   D    
C37   H17   S    
C4    C14   S    
C44   H36   S    
O3    C4    A    
C29   C30   D    
C40   H21   S    
O6    V2    S    
O9    V2    S    
C5    H1    S    
O12   V3    S    
C25   C26   D    
C3    C20   S    
O2    V1    S    
O16   V4    S    
C27   C29   S    
C43   H38   S    
C21   C22   D    
C18   H40   S    
O1    C2    A    
C24   H19   S    
O13   C34   A    
O5    V1    S    
O8    C3    A    
C42   H31   S    
C1    C26   S    
C5    C10   A    
O18   V4    S    
C36   H10   S    
C6    H28   S    
V4    O20   S    
C7    C8    A    
C9    C11   A    
C13   C14   A    
O4    V1    S    
O3    V1    S    
V1    O10   S    
V3    O20   S    
C41   H33   S    
C39   H24   S    
O15   C33   A    
C28   C31   S    
C21   H4    S    
C19   H3    S    
O7    V2    S    
C41   C42   S    
C20   C37   S    
C17   C35   S    
C11   C33   S    
C40   H22   S    
C8    C9    A    
C39   C40   S    
C10   C14   A    
C15   C16   A    
C15   C41   S    
C36   H9    S    
C9    C10   A    
V2    O10   S    
