data_mof_unit_13130.cif
_audit_creation_date              2012-12-11T14:21:06-0500
_audit_creation_method            fapswitch 2.2
_symmetry_space_group_name_H-M    P1
_symmetry_Int_Tables_number       1
_space_group_crystal_system       triclinic
_cell_length_a                    11.570892
_cell_length_b                    11.491042
_cell_length_c                    19.507173
_cell_angle_alpha                 90.50063
_cell_angle_beta                  90.210707
_cell_angle_gamma                 60.258818
_cell_volume                      2251.96308977

loop_
_atom_site_label
_atom_site_type_symbol
_atom_type_description
_atom_site_fract_x
_atom_site_fract_y
_atom_site_fract_z
_atom_type_partial_charge
C1    C     C_R   0.640540 0.117545 0.599090 0.542077
C2    C     C_1   0.641252 0.703546 0.667885 0.002436
C3    C     C_1   0.126894 0.198442 0.859380 0.003069
C4    C     C_1   0.171328 0.170004 0.727645 -0.031560
C5    C     C_1   0.150199 0.181913 0.798957 -0.031196
C6    C     C_1   0.194979 0.160772 0.667248 0.000989
C7    C     C_1   0.678538 0.190847 0.860879 0.002999
C8    C     C_1   0.658698 0.167358 0.728964 -0.031069
C9    C     C_1   0.665654 0.180684 0.800343 -0.031570
C10   C     C_1   0.653212 0.149947 0.668482 0.003793
C11   C     C_R   0.647501 0.705030 0.182299 -0.008950
C12   C     C_R   0.612422 0.745760 0.598498 0.557174
C13   C     C_R   0.516283 0.768373 0.207033 0.030409
C14   C     C_R   0.496814 0.773489 0.278319 0.024832
C15   C     C_R   0.728098 0.720060 0.293686 -0.144214
C16   C     C_R   0.752117 0.683798 0.225586 -0.152264
C17   C     C_R   0.407502 0.805374 0.162149 -0.074980
C18   C     C_R   0.292286 0.810458 0.185626 -0.111374
C19   C     C_R   0.280389 0.791863 0.254705 -0.158018
C20   C     C_R   0.376882 0.780802 0.301165 -0.113411
C21   C     C_R   0.602424 0.761152 0.321808 -0.003784
C22   C     C_R   0.166534 0.186094 0.185641 -0.002335
C23   C     C_R   0.240585 0.145360 0.598057 0.557637
C24   C     C_R   0.242266 0.243882 0.209164 0.026038
C25   C     C_R   0.273090 0.237163 0.279713 0.028477
C26   C     C_R   0.184699 0.085567 0.295775 -0.149838
C27   C     C_R   0.137021 0.109325 0.229632 -0.142761
C28   C     C_R   0.277431 0.318525 0.164997 -0.088968
C29   C     C_R   0.306478 0.413376 0.191494 -0.118763
C30   C     C_R   0.314958 0.424484 0.261776 -0.145347
C31   C     C_R   0.310957 0.330209 0.304808 -0.096470
C32   C     C_R   0.255053 0.145052 0.321830 0.002052
C33   C     C_R   0.680401 0.186594 0.197536 -0.000780
C34   C     C_R   0.649462 0.114228 0.404287 0.528577
C35   C     C_R   0.758728 0.057299 0.226001 0.001065
C36   C     C_R   0.785002 0.047080 0.296780 0.054580
C37   C     C_R   0.609861 0.277969 0.312164 -0.168660
C38   C     C_R   0.613407 0.297181 0.241893 -0.140069
C39   C     C_R   0.820707 0.939895 0.185145 -0.094491
C40   C     C_R   0.924026 0.821858 0.211173 -0.162683
C41   C     C_R   0.964200 0.817122 0.278638 -0.135876
C42   C     C_R   0.902622 0.931098 0.320956 0.184243
C43   C     C_R   0.688368 0.150697 0.339568 -0.002050
C44   C     C_R   0.082077 0.230883 0.928681 0.541651
C45   C     C_R   0.583294 0.796819 0.394585 0.541878
C46   C     C_R   0.683813 0.604707 0.929632 0.538496
C47   C     C_R   0.708369 0.206390 0.930256 0.542524
C48   C     C_R   0.088464 0.233112 0.123087 0.534497
C49   C     C_R   0.679595 0.620045 0.121930 0.535405
C50   C     C_R   0.708475 0.210565 0.127294 0.533607
C51   C     C_R   0.299728 0.117821 0.393498 0.532507
C52   C     C_1   0.670207 0.646966 0.860257 0.004469
C53   C     C_1   0.654779 0.683545 0.728408 -0.031972
C54   C     C_1   0.663331 0.666992 0.799737 -0.031397
Cr1   Cr    Cr6+3 0.404720 0.198220 0.499960 1.005975
Cr2   Cr    Cr6+3 0.698290 0.897110 0.500380 1.033037
Cr3   Cr    Cr6+3 0.396970 0.904720 0.499610 1.000315
Cr4   Cr    Cr6+3 0.926180 0.151990 0.028120 1.017269
Cr5   Cr    Cr6+3 0.921330 0.451820 0.027470 1.017020
Cr6   Cr    Cr6+3 0.626260 0.446870 0.028710 1.016589
H1    H     H_    0.811435 0.704449 0.325423 0.156200
H2    H     H_    0.322314 0.478289 0.157596 0.119568
H3    H     H_    0.335300 0.500073 0.282710 0.105529
H4    H     H_    0.333712 0.338684 0.357188 0.168073
H5    H     H_    0.545121 0.361500 0.344993 0.121723
H6    H     H_    0.791563 0.939597 0.132368 0.135645
H7    H     H_    0.561799 0.398309 0.222132 0.150131
H8    H     H_    0.974993 0.734239 0.178448 0.117360
H9    H     H_    0.046170 0.724445 0.297623 0.099643
H10   H     H_    0.416518 0.817530 0.107755 0.119372
H11   H     H_    0.854276 0.629440 0.208180 0.146485
H12   H     H_    0.212714 0.828212 0.150435 0.115704
H13   H     H_    0.192015 0.795557 0.273551 0.115972
H14   H     H_    0.352452 0.774969 0.353444 0.156394
H15   H     H_    0.161403 0.023998 0.327612 0.138048
H16   H     H_    0.275202 0.309773 0.109804 0.130251
H17   H     H_    0.072933 0.070238 0.213651 0.149781
O1    O     O_R   0.267740 0.231960 0.575440 -0.496752
O2    O     O_R   0.685970 0.784660 0.430010 -0.494663
O3    O     O_R   0.502530 0.767000 0.423990 -0.537531
O4    O     O_R   0.288330 0.026350 0.429250 -0.529083
O5    O     O_3   0.499990 0.000020 0.499980 -0.282944
O6    O     O_R   0.821500 0.119340 0.952830 -0.508346
O7    O     O_R   0.037130 0.162530 0.957360 -0.495983
O8    O     O_R   0.056440 0.344740 0.951340 -0.510210
O9    O     O_R   0.797900 0.560360 0.957470 -0.496359
O10   O     O_R   0.596130 0.579390 0.952730 -0.510490
O11   O     O_R   0.639060 0.321160 0.958670 -0.493956
O12   O     O_R   0.527280 0.186640 0.570530 -0.492783
O13   O     O_R   0.821240 0.124200 0.104370 -0.523496
O14   O     O_R   0.036890 0.167040 0.097840 -0.505765
O15   O     O_R   0.056180 0.349610 0.102880 -0.522780
O16   O     O_R   0.797660 0.564870 0.097950 -0.505551
O17   O     O_R   0.595880 0.584250 0.104270 -0.520445
O18   O     O_R   0.638830 0.325670 0.099150 -0.501235
O19   O     O_3   0.824590 0.350230 0.028100 -0.244046
O20   O     O_R   0.728090 0.003450 0.576380 -0.504993
O21   O     O_R   0.682970 0.789190 0.570490 -0.485083
O22   O     O_R   0.499290 0.771880 0.575530 -0.500819
O23   O     O_R   0.285330 0.030870 0.569730 -0.490686
O24   O     O_R   0.270980 0.227080 0.423890 -0.524486
O25   O     O_R   0.530280 0.182120 0.430050 -0.536537
O26   O     O_R   0.731330 0.998570 0.424830 -0.483386
N1    N     N_2   0.963581 0.927086 0.385698 -0.493515
H18   H     H_    0.044812 0.837002 0.399480 0.230556
C55   C     C_3   0.965068 0.045559 0.410857 -0.284453
H19   H     H_    0.894931 0.089859 0.454487 0.170407
H20   H     H_    0.937793 0.122122 0.370309 0.140125
H21   H     H_    0.065661 0.017352 0.430352 0.148569

loop_
_geom_bond_atom_site_label_1
_geom_bond_atom_site_label_2
_ccdc_geom_bond_type
C25   C31   A    
C22   C48   S    
C26   C32   A    
C41   C42   A    
C36   C42   A    
C35   C36   A    
Cr2   O21   S    
C2    C12   S    
N1    C55   S    
Cr6   O11   S    
C53   C54   S    
Cr1   O25   S    
C26   C27   A    
C29   C30   A    
Cr2   O2    S    
C14   C21   A    
C28   C29   A    
C30   C31   A    
C50   O18   A    
C55   H19   S    
C15   C16   A    
Cr3   O22   S    
C46   C52   S    
C18   C19   A    
Cr4   O19   S    
C12   O22   A    
C50   O13   A    
C19   C20   A    
C8    C9    S    
C48   O14   A    
C37   H5    S    
C47   O6    A    
C49   O17   A    
Cr4   O14   S    
C51   O4    A    
C12   O21   A    
C25   C32   A    
C23   O23   A    
C17   H10   S    
C30   H3    S    
Cr3   O3    S    
C16   H11   S    
Cr2   O20   S    
N1    H18   S    
Cr6   O10   S    
C52   C54   T    
C26   H15   S    
C21   C45   S    
C18   H12   S    
C3    C44   S    
C34   C43   S    
C14   C20   A    
C19   H13   S    
C24   C25   A    
C4    C6    T    
C1    O20   A    
C39   C40   A    
Cr1   O1    S    
C27   H17   S    
C33   C50   S    
Cr3   O23   S    
C7    C47   S    
C37   C43   A    
C35   C39   A    
Cr5   O8    S    
C32   C51   S    
C37   C38   A    
C11   C49   S    
Cr4   O7    S    
C11   C16   A    
C17   C18   A    
C15   H1    S    
C20   H14   S    
C45   O2    A    
C34   O25   A    
Cr1   O5    S    
Cr4   O13   S    
Cr6   O19   S    
C40   C41   A    
C22   C27   A    
C48   O15   A    
C39   H6    S    
C22   C24   A    
Cr5   O19   S    
C44   O8    A    
C28   H16   S    
C3    C5    T    
C41   H9    S    
C46   O10   A    
C7    C9    T    
C29   H2    S    
C1    O12   A    
C31   H4    S    
C1    C10   S    
C24   C28   A    
Cr2   O26   S    
C4    C5    S    
C44   O7    A    
C2    C53   T    
C42   N1    S    
Cr2   O5    S    
C51   O24   A    
Cr1   O24   S    
C33   C38   A    
C13   C17   A    
C47   O11   A    
Cr5   O9    S    
Cr1   O12   S    
Cr4   O6    S    
C11   C13   A    
C55   H20   S    
C6    C23   S    
C34   O26   A    
C33   C35   A    
C45   O3    A    
Cr3   O4    S    
Cr5   O15   S    
C23   O1    A    
Cr6   O18   S    
C15   C21   A    
C38   H7    S    
C8    C10   T    
C40   H8    S    
Cr3   O5    S    
C36   C43   A    
Cr5   O16   S    
C49   O16   A    
C13   C14   A    
C46   O9    A    
C55   H21   S    
Cr6   O17   S    
