data_mof_unit_64198.cif
_audit_creation_date              2013-03-05T16:43:19-0500
_audit_creation_method            fapswitch 2.2
_symmetry_space_group_name_H-M    P1
_symmetry_Int_Tables_number       1
_space_group_crystal_system       triclinic
_cell_length_a                    26.812554
_cell_length_b                    23.58119
_cell_length_c                    16.608878
_cell_angle_alpha                 96.083046
_cell_angle_beta                  89.326434
_cell_angle_gamma                 90.059873
_cell_volume                      10441.4762235

loop_
_atom_site_label
_atom_site_type_symbol
_atom_site_description
_atom_site_fract_x
_atom_site_fract_y
_atom_site_fract_z
_atom_type_partial_charge
O1    O     O_R   0.054370 0.445630 0.567930 -0.535203
O2    O     O_R   0.945630 0.554370 0.432070 -0.535166
O3    O     O_R   0.945630 0.554370 0.567930 -0.519885
O4    O     O_R   0.054370 0.445630 0.432070 -0.519886
O5    O     O_R   0.945630 0.445630 0.432070 -0.516746
O6    O     O_R   0.054370 0.554370 0.567930 -0.516738
O7    O     O_R   0.054370 0.554370 0.432070 -0.541255
O8    O     O_R   0.945630 0.445630 0.567930 -0.541221
O9    O     O_R   0.554370 0.945630 0.567930 -0.535159
O10   O     O_R   0.445630 0.054370 0.432070 -0.535202
O11   O     O_R   0.445630 0.054370 0.567930 -0.519887
O12   O     O_R   0.554370 0.945630 0.432070 -0.519890
O13   O     O_R   0.445630 0.945630 0.432070 -0.516731
O14   O     O_R   0.554370 0.054370 0.567930 -0.516745
O15   O     O_R   0.554370 0.054370 0.432070 -0.541220
O16   O     O_R   0.445630 0.945630 0.567930 -0.541260
C1    C     C_R   0.073760 0.429096 0.497560 0.894668
C2    C     C_R   0.926239 0.570903 0.502439 0.894615
C3    C     C_R   0.926418 0.428958 0.497887 0.893561
C4    C     C_R   0.073580 0.571045 0.502114 0.893618
C5    C     C_R   0.573761 0.929097 0.497561 0.894612
C6    C     C_R   0.426240 0.070904 0.502440 0.894664
C7    C     C_R   0.426419 0.928955 0.497886 0.893611
C8    C     C_R   0.573583 0.071042 0.502113 0.893560
C9    C     C_R   0.000507 0.497291 0.873573 -0.206734
C10   C     C_R   0.999478 0.502702 0.126426 -0.206742
C11   C     C_R   0.500528 0.997299 0.873574 -0.206746
C12   C     C_R   0.499498 0.002710 0.126427 -0.206733
C13   C     C_1   0.000190 0.498355 0.962889 0.231551
C14   C     C_1   0.999792 0.501633 0.037110 0.231559
C15   C     C_1   0.500215 0.998368 0.962890 0.231556
C16   C     C_1   0.499817 0.001646 0.037111 0.231556
Cu1   Cu    Cu3+1 0.000000 0.500000 0.580420 1.167381
Cu2   Cu    Cu3+1 0.000000 0.500000 0.419580 1.167381
Cu3   Cu    Cu3+1 0.500000 1.000000 0.580420 1.167382
Cu4   Cu    Cu3+1 0.500000 0.000000 0.419580 1.167382
C17   C     C_R   0.169480 0.685229 0.574857 0.047471
C18   C     C_R   0.830496 0.314800 0.425129 0.047448
C19   C     C_R   0.808902 0.353828 0.563488 0.048891
C20   C     C_R   0.191119 0.646144 0.436540 0.048898
C21   C     C_R   0.809663 0.646013 0.436181 0.047787
C22   C     C_R   0.190352 0.354007 0.563794 0.047783
C23   C     C_R   0.170698 0.314764 0.425706 0.051396
C24   C     C_R   0.829277 0.685207 0.574307 0.051388
C25   C     C_R   0.669508 0.185193 0.574877 0.047442
C26   C     C_R   0.330521 0.814770 0.425140 0.047460
C27   C     C_R   0.308892 0.853842 0.563466 0.048902
C28   C     C_R   0.691095 0.146176 0.436510 0.048891
C29   C     C_R   0.309648 0.145995 0.436205 0.047786
C30   C     C_R   0.690334 0.853984 0.563820 0.047785
C31   C     C_R   0.670720 0.814790 0.425693 0.051388
C32   C     C_R   0.329298 0.185232 0.574298 0.051394
C33   C     C_R   0.129628 0.646285 0.575837 0.308852
C34   C     C_R   0.870349 0.353746 0.424147 0.308867
C35   C     C_R   0.847961 0.394055 0.561727 0.326006
C36   C     C_R   0.152055 0.605922 0.438299 0.326039
C37   C     C_R   0.848645 0.605798 0.438150 0.326552
C38   C     C_R   0.151369 0.394222 0.561823 0.326599
C39   C     C_R   0.130829 0.353535 0.424910 0.308405
C40   C     C_R   0.869151 0.646441 0.575099 0.308433
C41   C     C_R   0.629656 0.146247 0.575858 0.308872
C42   C     C_R   0.370370 0.853719 0.424158 0.308852
C43   C     C_R   0.347949 0.894070 0.561703 0.326041
C44   C     C_R   0.652037 0.105948 0.438270 0.326008
C45   C     C_R   0.348631 0.105780 0.438175 0.326599
C46   C     C_R   0.651354 0.894201 0.561849 0.326552
C47   C     C_R   0.630847 0.853557 0.424900 0.308428
C48   C     C_R   0.369168 0.146461 0.575093 0.308406
C49   C     C_R   0.119019 0.608110 0.506072 -0.295180
C50   C     C_R   0.880978 0.391894 0.493931 -0.295254
C51   C     C_R   0.880580 0.607822 0.506161 -0.293622
C52   C     C_R   0.119418 0.392175 0.493833 -0.293533
C53   C     C_R   0.619023 0.108104 0.506070 -0.295256
C54   C     C_R   0.380982 0.891889 0.493926 -0.295187
C55   C     C_R   0.380581 0.107824 0.506167 -0.293537
C56   C     C_R   0.619419 0.892176 0.493838 -0.293623
C57   C     C_R   0.197843 0.687186 0.503598 0.018098
C58   C     C_R   0.802159 0.312812 0.496406 0.018097
C59   C     C_R   0.801770 0.686915 0.503303 0.017560
C60   C     C_R   0.198225 0.313080 0.496696 0.017567
C61   C     C_R   0.697841 0.187188 0.503596 0.018095
C62   C     C_R   0.302166 0.812803 0.496404 0.018097
C63   C     C_R   0.301774 0.186919 0.503307 0.017565
C64   C     C_R   0.698227 0.813081 0.496698 0.017562
C65   C     C_1   0.234821 0.731335 0.500646 0.023756
C66   C     C_1   0.765184 0.268658 0.499357 0.023754
C67   C     C_1   0.765034 0.731207 0.500450 0.024116
C68   C     C_1   0.234963 0.268789 0.499552 0.024119
C69   C     C_1   0.734815 0.231342 0.500647 0.023754
C70   C     C_1   0.265191 0.768650 0.499357 0.023758
C71   C     C_1   0.265036 0.231210 0.500452 0.024118
C72   C     C_1   0.734962 0.768788 0.499551 0.024116
C73   C     C_R   0.007121 0.548190 0.839280 0.148827
C74   C     C_R   0.992851 0.451808 0.160727 0.148842
C75   C     C_R   0.995434 0.446904 0.820848 0.166650
C76   C     C_R   0.004573 0.553090 0.179145 0.166633
C77   C     C_R   0.507153 0.048193 0.839272 0.148847
C78   C     C_R   0.492882 0.951811 0.160720 0.148824
C79   C     C_R   0.495433 0.946911 0.820856 0.166633
C80   C     C_R   0.504571 0.053097 0.179153 0.166651
C81   C     C_R   0.001978 0.550163 0.754258 0.374138
C82   C     C_R   0.998005 0.449836 0.245746 0.374164
C83   C     C_R   0.997804 0.448719 0.735037 0.415742
C84   C     C_R   0.002213 0.551279 0.264959 0.415735
C85   C     C_R   0.501996 0.050164 0.754253 0.374173
C86   C     C_R   0.498023 0.949837 0.245742 0.374146
C87   C     C_R   0.497788 0.948722 0.735042 0.415745
C88   C     C_R   0.502198 0.051281 0.264964 0.415744
N1    N     N_R   0.000000 0.500000 0.701220 -0.300089
N2    N     N_R   0.000000 0.500000 0.298780 -0.300092
N3    N     N_R   0.500000 0.000000 0.701220 -0.300091
N4    N     N_R   0.500000 0.000000 0.298780 -0.300088
C89   C     C_3   0.182845 0.724647 0.649863 -0.659781
H1    H     H_    0.163278 0.714476 0.705599 0.285659
H2    H     H_    0.223296 0.721023 0.662034 0.218796
H3    H     H_    0.174216 0.769412 0.640023 0.227651
C90   C     C_3   0.817106 0.275415 0.350104 -0.659779
H4    H     H_    0.836646 0.285620 0.294362 0.285653
H5    H     H_    0.825747 0.230643 0.359887 0.227674
H6    H     H_    0.776649 0.279040 0.337983 0.218780
C91   C     C_3   0.772858 0.355103 0.634667 -0.677399
H7    H     H_    0.777329 0.392687 0.679806 0.279283
H8    H     H_    0.733957 0.356530 0.612725 0.217225
H9    H     H_    0.777748 0.316065 0.665687 0.234597
C92   C     C_3   0.227187 0.644837 0.365390 -0.677401
H10   H     H_    0.222731 0.607233 0.320281 0.279274
H11   H     H_    0.222310 0.683858 0.334326 0.234605
H12   H     H_    0.266080 0.643423 0.387370 0.217221
C93   C     C_3   0.775160 0.645030 0.364427 -0.681762
H13   H     H_    0.781144 0.608103 0.318434 0.278640
H14   H     H_    0.735832 0.642652 0.385533 0.218855
H15   H     H_    0.780284 0.684619 0.334571 0.233293
C94   C     C_3   0.224878 0.355019 0.635522 -0.681763
H16   H     H_    0.218915 0.391970 0.681483 0.278633
H17   H     H_    0.219757 0.315451 0.665427 0.233313
H18   H     H_    0.264201 0.357376 0.614378 0.218849
C95   C     C_3   0.184501 0.274735 0.350985 -0.662652
H19   H     H_    0.164769 0.283910 0.295644 0.284859
H20   H     H_    0.224928 0.278726 0.337370 0.218639
H21   H     H_    0.176297 0.230056 0.362131 0.226983
C96   C     C_3   0.815452 0.725207 0.649045 -0.662653
H22   H     H_    0.835170 0.716012 0.704391 0.284851
H23   H     H_    0.823656 0.769894 0.637941 0.226997
H24   H     H_    0.775022 0.721205 0.662627 0.218632
C97   C     C_3   0.682904 0.224570 0.649906 -0.659774
H25   H     H_    0.663370 0.214359 0.705650 0.285650
H26   H     H_    0.723363 0.220946 0.662017 0.218782
H27   H     H_    0.674261 0.269345 0.640135 0.227678
C98   C     C_3   0.317151 0.775360 0.350130 -0.659776
H28   H     H_    0.336707 0.785542 0.294391 0.285655
H29   H     H_    0.325787 0.730593 0.359954 0.227660
H30   H     H_    0.276697 0.778979 0.337975 0.218794
C99   C     C_3   0.272829 0.855138 0.634623 -0.677400
H31   H     H_    0.277287 0.892737 0.679741 0.279281
H32   H     H_    0.233934 0.856554 0.612652 0.217217
H33   H     H_    0.277711 0.816113 0.665675 0.234601
C100  C     C_3   0.727134 0.144907 0.365326 -0.677398
H34   H     H_    0.722660 0.107328 0.320179 0.279286
H35   H     H_    0.722244 0.183950 0.334316 0.234593
H36   H     H_    0.766037 0.143476 0.387260 0.217223
C101  C     C_3   0.275125 0.144987 0.364475 -0.681760
H37   H     H_    0.281089 0.108039 0.318511 0.278635
H38   H     H_    0.235801 0.142628 0.385616 0.218846
H39   H     H_    0.280246 0.184558 0.334576 0.233308
C102  C     C_3   0.724836 0.854965 0.635575 -0.681768
H40   H     H_    0.718851 0.891891 0.681569 0.278639
H41   H     H_    0.719712 0.815376 0.665428 0.233292
H42   H     H_    0.764165 0.857343 0.614470 0.218858
C103  C     C_3   0.684545 0.774790 0.350954 -0.662654
H43   H     H_    0.664830 0.783988 0.295608 0.284849
H44   H     H_    0.724976 0.778790 0.337375 0.218630
H45   H     H_    0.676339 0.730103 0.362057 0.226999
C104  C     C_3   0.315492 0.225255 0.649023 -0.662649
H46   H     H_    0.335222 0.216076 0.704365 0.284856
H47   H     H_    0.323697 0.269936 0.637884 0.226986
H48   H     H_    0.275065 0.221262 0.662632 0.218643
N5    N     N_R   0.099705 0.646774 0.647652 0.154606
O17   O     O_R   0.074676 0.692594 0.673197 -0.260425
O18   O     O_R   0.108052 0.608862 0.697379 -0.265527
N6    N     N_R   0.900250 0.353284 0.352312 0.154613
O19   O     O_R   0.925260 0.307464 0.326697 -0.260402
O20   O     O_R   0.891902 0.391232 0.302642 -0.265521
N7    N     N_R   0.852519 0.439047 0.626651 0.142301
O21   O     O_R   0.862865 0.427551 0.699517 -0.283541
O22   O     O_R   0.847461 0.491909 0.612363 -0.332271
N8    N     N_R   0.147510 0.560910 0.373401 0.142295
O23   O     O_R   0.137192 0.572380 0.300512 -0.283519
O24   O     O_R   0.152554 0.508055 0.387733 -0.332318
N9    N     N_R   0.854658 0.561554 0.372442 0.142553
O25   O     O_R   0.868557 0.573931 0.301044 -0.289951
O26   O     O_R   0.848310 0.508483 0.384964 -0.325691
N10   N     N_R   0.145374 0.438490 0.627504 0.142552
O27   O     O_R   0.131506 0.426142 0.698930 -0.289923
O28   O     O_R   0.151703 0.491553 0.614929 -0.325773
N11   N     N_R   0.100877 0.351414 0.354597 0.153997
O29   O     O_R   0.075179 0.305372 0.334158 -0.258548
O30   O     O_R   0.111666 0.385527 0.300251 -0.270380
N12   N     N_R   0.899096 0.648556 0.645421 0.154001
O31   O     O_R   0.924777 0.694605 0.665890 -0.258517
O32   O     O_R   0.888312 0.614422 0.699745 -0.270398
N13   N     N_R   0.599759 0.146703 0.647697 0.154613
O33   O     O_R   0.574753 0.192523 0.673328 -0.260402
O34   O     O_R   0.608106 0.108746 0.697354 -0.265518
N14   N     N_R   0.400285 0.853241 0.352335 0.154610
O35   O     O_R   0.425310 0.807422 0.326765 -0.260425
O36   O     O_R   0.391936 0.891165 0.302630 -0.265522
N15   N     N_R   0.352490 0.939085 0.626598 0.142299
O37   O     O_R   0.362812 0.927621 0.699488 -0.283522
O38   O     O_R   0.347440 0.991939 0.612260 -0.332313
N16   N     N_R   0.647478 0.060958 0.373344 0.142301
O39   O     O_R   0.637126 0.072456 0.300480 -0.283548
O40   O     O_R   0.652538 0.008095 0.387627 -0.332261
N17   N     N_R   0.354627 0.061513 0.372493 0.142557
O41   O     O_R   0.368495 0.073863 0.301067 -0.289917
O42   O     O_R   0.348297 0.008450 0.385066 -0.325749
N18   N     N_R   0.645343 0.938447 0.627555 0.142552
O43   O     O_R   0.631438 0.926074 0.698952 -0.289949
O44   O     O_R   0.651694 0.991516 0.615030 -0.325687
N19   N     N_R   0.600902 0.851443 0.354579 0.154000
O45   O     O_R   0.575220 0.805394 0.334109 -0.258522
O46   O     O_R   0.611685 0.885577 0.300256 -0.270402
N20   N     N_R   0.399120 0.148581 0.645407 0.153995
O47   O     O_R   0.424814 0.194624 0.665853 -0.258553
O48   O     O_R   0.388332 0.114462 0.699748 -0.270380
N21   N     N_R   0.019502 0.598809 0.891194 0.184783
O49   O     O_R   0.059948 0.626982 0.877591 -0.212052
O50   O     O_R   0.988491 0.619289 0.947761 -0.241469
N22   N     N_R   0.980449 0.401191 0.108824 0.184762
O51   O     O_R   0.940005 0.373025 0.122460 -0.212062
O52   O     O_R   0.011445 0.380700 0.052241 -0.241453
N23   N     N_R   0.988106 0.393605 0.853810 0.185254
O53   O     O_R   0.017432 0.350537 0.832757 -0.213680
O54   O     O_R   0.952049 0.388092 0.905496 -0.245815
N24   N     N_R   0.011914 0.606384 0.146175 0.185262
O55   O     O_R   0.982631 0.649482 0.167287 -0.213655
O56   O     O_R   0.047949 0.611870 0.094438 -0.245850
N25   N     N_R   0.519555 0.098811 0.891173 0.184765
O57   O     O_R   0.559997 0.126978 0.877531 -0.212058
O58   O     O_R   0.488561 0.119300 0.947759 -0.241459
N26   N     N_R   0.480501 0.901193 0.108804 0.184779
O59   O     O_R   0.440054 0.873022 0.122402 -0.212054
O60   O     O_R   0.511514 0.880711 0.052242 -0.241465
N27   N     N_R   0.488098 0.893616 0.853827 0.185262
O61   O     O_R   0.517386 0.850523 0.832716 -0.213665
O62   O     O_R   0.452062 0.888125 0.905560 -0.245842
N28   N     N_R   0.511904 0.106395 0.146191 0.185254
O63   O     O_R   0.482587 0.149470 0.167252 -0.213672
O64   O     O_R   0.547959 0.111903 0.094499 -0.245825
N29   N     N_R   0.994077 0.606006 0.728120 0.206823
O65   O     O_R   0.977380 0.647708 0.778923 -0.191608
O66   O     O_R   0.000923 0.616410 0.654178 -0.258425
N30   N     N_R   0.005907 0.393992 0.271881 0.206817
O67   O     O_R   0.022603 0.352292 0.221075 -0.191623
O68   O     O_R   0.999065 0.383586 0.345824 -0.258443
N31   N     N_R   0.995561 0.395801 0.684208 0.167014
O69   O     O_R   0.036637 0.367580 0.667058 -0.282215
O70   O     O_R   0.953697 0.367819 0.679424 -0.281402
N32   N     N_R   0.004499 0.604196 0.315783 0.167028
O71   O     O_R   0.046374 0.632160 0.320499 -0.281380
O72   O     O_R   0.963440 0.632436 0.333011 -0.282210
N33   N     N_R   0.494092 0.106008 0.728118 0.206815
O73   O     O_R   0.477394 0.147706 0.778924 -0.191629
O74   O     O_R   0.500936 0.116415 0.654177 -0.258451
N34   N     N_R   0.505921 0.893993 0.271879 0.206823
O75   O     O_R   0.522617 0.852291 0.221077 -0.191606
O76   O     O_R   0.499074 0.883590 0.345821 -0.258437
N35   N     N_R   0.495496 0.895804 0.684219 0.167023
O77   O     O_R   0.453621 0.867841 0.679520 -0.281373
O78   O     O_R   0.536553 0.867564 0.666977 -0.282222
N36   N     N_R   0.504435 0.104200 0.315794 0.167019
O79   O     O_R   0.546298 0.132184 0.320590 -0.281403
O80   O     O_R   0.463357 0.132418 0.332935 -0.282209

loop_
_geom_bond_atom_site_label_1
_geom_bond_atom_site_label_2
_geom_bond_distance
_ccdc_geom_bond_type
C10   C74   1.392320 A    
C84   N2    1.387180 A    
N31   O70   1.300432 A    
C22   C60   1.408875 A    
C102  H40   1.106328 S    
O2    C2    1.295315 A    
C83   N31   1.432217 S    
C103  H43   1.106985 S    
Cu3   Cu4   2.671374 S    
C77   N25   1.437447 S    
C33   C49   1.421286 A    
C22   C38   1.415037 A    
C25   C61   1.404108 A    
C59   C67   1.441206 S    
C101  H37   1.106322 S    
C30   C64   1.408868 A    
C103  H44   1.110621 S    
C86   N4    1.399354 A    
N17   O41   1.301159 A    
O10   C6    1.295325 A    
C48   C55   1.416181 A    
C45   N17   1.435422 S    
C95   H20   1.110621 S    
C5    C56   1.499857 S    
C11   C79   1.406813 A    
N29   O65   1.302145 A    
C100  H34   1.105889 S    
C29   C45   1.415036 A    
C26   C42   1.409318 A    
C22   C94   1.515468 S    
C25   C97   1.519442 S    
C78   N26   1.437442 S    
N18   O44   1.300860 A    
C93   H13   1.106325 S    
C90   H5    1.110193 S    
O16   Cu3   1.938779 S    
C27   C43   1.414413 A    
N33   O73   1.302145 A    
C8    C53   1.496687 S    
C28   C44   1.414400 A    
C98   H28   1.106823 S    
C17   C89   1.519448 S    
O3    Cu1   1.969621 S    
C87   N35   1.432215 S    
C81   N1    1.399353 A    
N27   O61   1.300748 A    
C28   C61   1.409082 A    
O13   C7    1.300876 A    
O3    C2    1.307322 A    
C93   H14   1.110568 S    
N13   O33   1.302118 A    
C27   C62   1.409093 A    
O14   C8    1.300884 A    
N9    O26   1.300873 A    
C91   H9    1.110160 S    
C97   H26   1.110639 S    
C26   C62   1.404104 A    
C18   C90   1.519442 S    
C96   H22   1.106980 S    
O11   Cu3   1.969621 S    
C79   N27   1.435546 S    
C19   C35   1.414403 A    
C75   C83   1.431071 A    
C24   C96   1.519789 S    
C20   C36   1.414412 A    
C18   C34   1.409330 A    
Cu4   N4    2.006351 S    
C94   H18   1.110568 S    
C44   C53   1.420813 A    
N12   O31   1.301760 A    
C99   H32   1.110608 S    
C29   C101  1.515471 S    
C32   C48   1.408467 A    
C23   C39   1.408470 A    
C39   C52   1.416175 A    
C93   H15   1.110180 S    
C17   C33   1.409317 A    
O16   C7    1.300015 A    
C58   C66   1.441122 S    
C104  H47   1.110229 S    
C85   N3    1.399349 A    
C57   C65   1.441123 S    
C61   C69   1.441124 S    
C100  H35   1.110158 S    
C43   N15   1.436554 S    
C67   C72   1.200122 T    
C90   H6    1.110643 S    
C9    C13   1.480907 S    
N14   O35   1.302118 A    
N13   O34   1.301025 A    
C98   H29   1.110197 S    
C44   N16   1.436550 S    
N20   O47   1.301759 A    
N24   O56   1.300922 A    
C6    C55   1.499850 S    
N22   O52   1.301372 A    
N22   O51   1.301150 A    
C101  H38   1.110571 S    
C36   C49   1.420805 A    
N6    O20   1.301021 A    
N21   O49   1.301140 A    
O4    Cu2   1.969621 S    
N17   O42   1.300855 A    
C10   C76   1.406816 A    
C95   H21   1.110233 S    
N28   O64   1.300918 A    
C80   C88   1.431074 A    
O8    C3    1.300011 A    
N29   O66   1.288626 A    
O1    Cu1   1.937124 S    
N15   O37   1.301032 A    
C19   C58   1.409082 A    
C29   C63   1.408872 A    
C12   C16   1.480907 S    
C80   N28   1.435540 S    
N18   O43   1.301172 A    
O13   Cu4   1.964022 S    
N27   O62   1.300921 A    
C96   H24   1.110622 S    
C73   C81   1.426107 A    
O14   Cu3   1.964018 S    
N33   O74   1.288632 A    
N34   O75   1.302146 A    
C84   N32   1.432228 S    
C27   C99   1.515969 S    
C40   C51   1.416182 A    
N5    O18   1.301029 A    
C23   C60   1.402470 A    
C104  H46   1.106982 S    
C11   C15   1.480910 S    
O12   C5    1.307318 A    
C25   C41   1.409329 A    
C88   N4    1.387178 A    
C33   N5    1.428679 S    
C96   H23   1.110230 S    
N10   O28   1.300856 A    
C32   C63   1.402472 A    
N32   O72   1.300391 A    
N7    O21   1.301030 A    
C37   N9    1.435417 S    
C13   C14   1.226867 T    
C92   H11   1.110159 S    
C92   H12   1.110610 S    
N7    O22   1.300938 A    
C38   C52   1.422165 A    
C15   C16   1.226869 T    
C34   C50   1.421293 A    
C68   C71   1.200128 T    
C31   C103  1.519791 S    
C9    C73   1.392316 A    
N35   O77   1.300446 A    
C46   C56   1.422187 A    
O5    Cu2   1.964022 S    
N30   O67   1.302147 A    
C30   C102  1.515473 S    
N26   O60   1.301375 A    
Cu1   Cu2   2.671374 S    
N23   O54   1.300918 A    
C31   C47   1.408468 A    
C37   C51   1.422188 A    
C99   H33   1.110157 S    
N20   O48   1.301095 A    
C30   C46   1.415022 A    
C12   C80   1.406803 A    
C42   N14   1.428688 S    
C91   H7    1.105888 S    
O4    C1    1.307303 A    
C85   N33   1.446147 S    
O15   C8    1.300011 A    
N14   O36   1.301023 A    
N5    O17   1.302120 A    
C102  H42   1.110563 S    
N16   O40   1.300936 A    
N25   O58   1.301368 A    
C38   N10   1.435422 S    
C94   H16   1.106329 S    
Cu2   N2    2.006351 S    
O7    Cu2   1.938775 S    
C82   N30   1.446147 S    
C4    C49   1.496678 S    
C98   H30   1.110643 S    
O12   Cu4   1.969621 S    
N24   O55   1.300751 A    
C36   N8    1.436551 S    
C7    C54   1.496676 S    
N8    O24   1.300938 A    
N31   O69   1.300376 A    
O9    C5    1.295316 A    
N34   O76   1.288627 A    
O15   Cu4   1.938775 S    
N19   O45   1.301758 A    
C97   H27   1.110194 S    
Cu3   N3    2.006351 S    
N6    O19   1.302114 A    
C32   C104  1.519793 S    
C101  H39   1.110182 S    
N30   O68   1.288628 A    
C89   H1    1.106829 S    
C95   H19   1.106971 S    
C104  H48   1.110620 S    
C12   C78   1.392317 A    
C2    C51   1.499856 S    
C76   C84   1.431089 A    
N28   O63   1.300737 A    
C11   C77   1.392323 A    
C35   N7    1.436547 S    
C41   C53   1.421300 A    
C86   N34   1.446147 S    
N36   O79   1.300429 A    
C87   N3    1.387183 A    
C24   C59   1.402469 A    
C48   N20   1.421574 S    
C97   H25   1.106830 S    
C75   N23   1.435534 S    
C66   C69   1.199970 T    
C62   C70   1.441126 S    
C21   C59   1.408863 A    
N12   O32   1.301087 A    
C65   C70   1.199973 T    
C9    C75   1.406798 A    
O5    C3    1.300886 A    
C43   C54   1.420798 A    
C74   N22   1.437449 S    
C100  H36   1.110612 S    
C18   C58   1.404105 A    
C79   C87   1.431083 A    
C28   C100  1.515977 S    
O11   C6    1.307303 A    
C81   N29   1.446139 S    
C78   C86   1.426104 A    
O6    Cu1   1.964018 S    
C83   N1    1.387177 A    
C39   N11   1.421571 S    
N10   O27   1.301162 A    
C89   H3    1.110194 S    
C88   N36   1.432227 S    
N32   O71   1.300442 A    
N8    O23   1.301034 A    
C77   C85   1.426091 A    
N15   O38   1.300946 A    
C60   C68   1.441217 S    
C90   H4    1.106824 S    
C40   N12   1.421573 S    
C21   C93   1.515475 S    
N35   O78   1.300398 A    
O2    Cu2   1.937124 S    
C92   H10   1.105890 S    
C17   C57   1.404104 A    
O6    C4    1.300878 A    
C24   C40   1.408470 A    
C20   C92   1.515971 S    
C63   C71   1.441217 S    
C47   N19   1.421575 S    
N26   O59   1.301150 A    
N21   O50   1.301381 A    
C34   N6    1.428699 S    
C23   C95   1.519791 S    
N36   O80   1.300373 A    
O8    Cu1   1.938779 S    
N16   O39   1.301031 A    
C46   N18   1.435420 S    
N9    O25   1.301166 A    
C91   H8    1.110611 S    
C35   C50   1.420810 A    
C82   N2    1.399353 A    
C21   C37   1.415026 A    
N11   O29   1.301761 A    
C103  H45   1.110230 S    
C73   N21   1.437449 S    
C26   C98   1.519446 S    
Cu1   N1    2.006351 S    
O1    C1    1.295323 A    
C74   C82   1.426091 A    
C1    C52   1.499847 S    
C102  H41   1.110181 S    
O7    C4    1.300011 A    
N23   O53   1.300731 A    
O9    Cu3   1.937124 S    
C94   H17   1.110179 S    
C76   N24   1.435549 S    
C20   C57   1.409094 A    
C42   C54   1.421287 A    
C3    C50   1.496685 S    
O10   Cu4   1.937124 S    
C47   C56   1.416188 A    
C64   C72   1.441207 S    
C89   H2    1.110640 S    
C99   H31   1.105887 S    
N25   O57   1.301156 A    
C31   C64   1.402473 A    
N19   O46   1.301091 A    
C45   C55   1.422170 A    
C41   N13   1.428705 S    
C19   C91   1.515977 S    
N11   O30   1.301080 A    
C10   C14   1.480910 S    
