data_mof_unit_44454.cif
_audit_creation_date              2012-12-10T19:14:28-0500
_audit_creation_method            fapswitch 2.2
_symmetry_space_group_name_H-M    P1
_symmetry_Int_Tables_number       1
_space_group_crystal_system       triclinic
_cell_length_a                    15.968203
_cell_length_b                    14.730497
_cell_length_c                    10.839705
_cell_angle_alpha                 92.308718
_cell_angle_beta                  89.526377
_cell_angle_gamma                 90.341758
_cell_volume                      2547.51354108

loop_
_atom_site_label
_atom_site_type_symbol
_atom_type_description
_atom_site_fract_x
_atom_site_fract_y
_atom_site_fract_z
_atom_type_partial_charge
C1    C     C_R   0.340792 0.499720 0.500671 0.817369
C2    C     C_R   0.659086 0.500187 0.503767 0.874284
C3    C     C_R   0.954958 0.415678 0.463845 0.373699
C4    C     C_R   0.043014 0.415298 0.461429 0.373506
C5    C     C_1   0.823147 0.499381 0.499097 0.049679
C6    C     C_1   0.176682 0.497990 0.494730 0.011083
C7    C     C_1   0.251710 0.498897 0.498509 -0.162242
C8    C     C_1   0.748149 0.500069 0.503097 -0.083690
C9    C     C_R   0.571939 0.953241 0.529431 -0.109041
C10   C     C_R   0.426099 0.950592 0.473029 -0.221792
C11   C     C_R   0.499281 0.902872 0.499611 -0.087400
C12   C     C_R   0.424813 0.046612 0.476562 0.415865
C13   C     C_R   0.571722 0.049382 0.533362 0.386267
C14   C     C_R   0.498764 0.097190 0.502968 -0.174248
C15   C     C_1   0.499385 0.802792 0.499109 0.330875
C16   C     C_1   0.499615 0.197329 0.501054 0.200081
C17   C     C_R   0.505090 0.498086 0.261279 0.930533
C18   C     C_R   0.493806 0.502072 0.738738 0.825348
C19   C     C_R   0.609731 0.625548 0.111940 0.312411
C20   C     C_R   0.519859 0.670891 0.902225 0.304485
C21   C     C_R   0.622260 0.711646 0.060516 0.187407
C22   C     C_R   0.581223 0.731222 0.949728 0.147327
C23   C     C_R   0.516199 0.581952 0.944922 -0.160580
C24   C     C_R   0.546275 0.566816 0.062904 -0.172744
C25   C     C_R   0.511160 0.493301 0.126294 -0.154721
C26   C     C_R   0.484903 0.506581 0.873887 -0.175239
C27   C     C_R   0.469478 0.422165 0.059909 0.321516
C28   C     C_R   0.456258 0.428872 0.933576 0.364994
C29   C     C_R   0.957087 0.578811 0.511594 -0.200005
C30   C     C_R   0.044154 0.578331 0.510400 -0.218780
C31   C     C_R   0.912556 0.497812 0.491019 -0.038982
C32   C     C_R   0.087191 0.496955 0.487879 -0.031397
Cu1   Cu    Cu3+1 0.500000 0.589220 0.500000 1.070448
Cu2   Cu    Cu3+1 0.500000 0.410780 0.500000 0.993744
H1    H     H_    0.078023 0.641261 0.529393 0.187800
H2    H     H_    0.924408 0.642102 0.531203 0.197081
H3    H     H_    0.629115 0.918171 0.550790 0.215942
H4    H     H_    0.369169 0.913310 0.450658 0.171825
N1    N     N_1   0.500000 0.276710 0.500000 -0.165475
N2    N     N_1   0.500000 0.723290 0.500000 -0.126705
O1    O     O_R   0.380310 0.575320 0.500020 -0.549506
O2    O     O_R   0.619690 0.575320 0.499980 -0.541581
O3    O     O_R   0.380310 0.424640 0.499960 -0.596301
O4    O     O_R   0.619690 0.424640 0.500040 -0.591128
O5    O     O_R   0.500000 0.575360 0.319640 -0.596627
O6    O     O_R   0.500000 0.575360 0.680360 -0.544514
O7    O     O_R   0.500000 0.424670 0.319580 -0.551364
O8    O     O_R   0.500000 0.424670 0.680420 -0.564173
O9    O     O_3   0.434878 0.349372 0.119527 -0.603054
C33   C     C_3   0.491118 0.275610 0.110103 0.099052
H5    H     H_    0.548559 0.291571 0.164650 0.163074
H6    H     H_    0.509628 0.259366 0.012322 0.157853
C34   C     C_3   0.448259 0.191801 0.160996 -0.344919
H7    H     H_    0.425238 0.207764 0.256371 0.251668
H8    H     H_    0.393457 0.172983 0.102588 0.227945
C35   C     C_3   0.507899 0.111256 0.162597 -0.824497
H9    H     H_    0.532075 0.094363 0.068087 0.271114
H10   H     H_    0.474144 0.051065 0.196964 0.272454
H11   H     H_    0.561308 0.127205 0.224901 0.253040
O10   O     O_3   0.417570 0.356930 0.869358 -0.603939
C36   C     C_3   0.337162 0.382567 0.828989 0.099870
H12   H     H_    0.324008 0.343386 0.741456 0.159614
H13   H     H_    0.332362 0.455733 0.807489 0.142629
C37   C     C_3   0.270345 0.358501 0.924322 -0.361981
H14   H     H_    0.271784 0.284183 0.938090 0.230527
H15   H     H_    0.283850 0.394911 0.013749 0.242640
C38   C     C_3   0.183113 0.385019 0.882589 -0.889695
H16   H     H_    0.179763 0.459636 0.872286 0.276263
H17   H     H_    0.135990 0.365245 0.952608 0.254888
H18   H     H_    0.167753 0.349957 0.793014 0.263289
S1    S     S_3+6 0.696880 0.576387 0.185673 0.017900
O11   O     O_2   0.717272 0.627687 0.303913 -0.237179
O12   O     O_2   0.681999 0.478041 0.210981 -0.385611
O13   O     O_3   0.779921 0.583159 0.090038 -0.493956
H19   H     H_    0.827000 0.557053 0.135577 0.365258
S2    S     S_3+6 0.424101 0.719272 0.854095 0.073205
O14   O     O_2   0.437511 0.780731 0.748748 -0.232384
O15   O     O_2   0.361347 0.647110 0.816556 -0.285326
O16   O     O_3   0.383702 0.780810 0.974130 -0.505520
H20   H     H_    0.422945 0.832495 0.987723 0.360200
S3    S     S_3+6 0.678747 0.798283 0.145151 0.126447
O17   O     O_2   0.771072 0.785833 0.123291 -0.151192
O18   O     O_2   0.654107 0.891626 0.108238 -0.236624
O19   O     O_3   0.658308 0.792314 0.296616 -0.469273
H21   H     H_    0.596832 0.784705 0.300864 0.312536
S4    S     S_3+6 0.618849 0.816777 0.852003 0.067865
O20   O     O_2   0.565777 0.900353 0.868466 -0.262613
O21   O     O_2   0.708689 0.841312 0.877758 -0.213055
O22   O     O_3   0.613330 0.777478 0.704878 -0.519673
H22   H     H_    0.648859 0.722523 0.700719 0.344845
O23   O     O_3   0.911201 0.334286 0.453601 -0.580941
C39   C     C_3   0.877278 0.322591 0.333744 0.031327
H23   H     H_    0.924322 0.288584 0.271938 0.152472
H24   H     H_    0.858846 0.387781 0.292620 0.147141
C40   C     C_3   0.799443 0.261879 0.340109 -0.269902
H25   H     H_    0.816275 0.196402 0.380764 0.244900
H26   H     H_    0.751553 0.295774 0.400743 0.234122
C41   C     C_3   0.762152 0.242608 0.212400 -0.869902
H27   H     H_    0.743862 0.306914 0.170188 0.282198
H28   H     H_    0.705555 0.199107 0.220679 0.260043
H29   H     H_    0.808232 0.206502 0.151110 0.258656
O24   O     O_3   0.084695 0.333503 0.445849 -0.587758
C42   C     C_3   0.116512 0.324979 0.323876 0.044629
H30   H     H_    0.163087 0.379391 0.305680 0.149032
H31   H     H_    0.065254 0.328454 0.255303 0.121424
C43   C     C_3   0.159940 0.233242 0.306733 -0.287986
H32   H     H_    0.208733 0.228068 0.378259 0.234932
H33   H     H_    0.113404 0.177745 0.318288 0.229056
C44   C     C_3   0.201521 0.221965 0.180007 -0.916487
H34   H     H_    0.251467 0.274008 0.170273 0.269284
H35   H     H_    0.154577 0.228628 0.105925 0.256870
H36   H     H_    0.230453 0.153686 0.169930 0.271333
O25   O     O_3   0.644072 0.096502 0.564606 -0.603852
C45   C     C_3   0.644200 0.112699 0.694011 0.070179
H37   H     H_    0.653727 0.047722 0.741058 0.205485
H38   H     H_    0.584265 0.144104 0.727424 0.140423
C46   C     C_3   0.715665 0.178095 0.728451 -0.305205
H39   H     H_    0.776367 0.147074 0.699474 0.240503
H40   H     H_    0.707951 0.242169 0.678980 0.230254
C47   C     C_3   0.716974 0.200184 0.867324 -0.887425
H41   H     H_    0.657685 0.233626 0.897664 0.248592
H42   H     H_    0.769892 0.247114 0.889540 0.263478
H43   H     H_    0.725194 0.137186 0.918815 0.279939
O26   O     O_3   0.350970 0.089525 0.448491 -0.613945
C48   C     C_3   0.316176 0.133258 0.555845 0.041464
H44   H     H_    0.309092 0.206474 0.537509 0.163665
H45   H     H_    0.355201 0.129649 0.640719 0.133656
C49   C     C_3   0.230212 0.091889 0.582577 -0.329975
H46   H     H_    0.192432 0.088139 0.496892 0.233845
H47   H     H_    0.238430 0.021673 0.614203 0.230583
C50   C     C_3   0.182995 0.148173 0.681496 -0.869473
H48   H     H_    0.219881 0.153962 0.767942 0.253005
H49   H     H_    0.122081 0.114959 0.701635 0.271499
H50   H     H_    0.170670 0.217156 0.648338 0.269846

loop_
_geom_bond_atom_site_label_1
_geom_bond_atom_site_label_2
_ccdc_geom_bond_type
C6    C32   S    
Cu1   O5    S    
C19   S1    S    
C40   H25   S    
C18   C26   S    
S2    O16   S    
C50   H50   S    
C49   H46   S    
C45   H37   S    
C40   C41   S    
C34   H7    S    
C29   H2    S    
C30   H1    S    
Cu1   O2    S    
C19   C21   A    
S2    O15   D    
C46   H40   S    
S4    O21   D    
C43   H32   S    
C35   H9    S    
C20   S2    S    
C3    O23   S    
C23   C26   A    
C36   H13   S    
C9    C13   A    
C11   C15   S    
C1    O3    A    
C2    O4    A    
C4    O24   S    
C48   C49   S    
C33   H6    S    
C23   C24   A    
C47   H43   S    
C28   O10   S    
C21   C22   A    
Cu1   O6    S    
C36   H12   S    
C18   O6    A    
C9    H3    S    
S3    O18   D    
C47   H42   S    
Cu1   Cu2   S    
S2    O14   D    
C34   H8    S    
C17   O5    A    
C33   C34   S    
O13   H19   S    
C38   H16   S    
Cu1   N2    S    
C37   C38   S    
Cu2   O4    S    
C24   C25   A    
C46   C47   S    
O23   C39   S    
S1    O12   D    
S4    O20   D    
C39   C40   S    
S3    O17   D    
C3    C4    A    
Cu2   N1    S    
C18   O8    A    
O10   C36   S    
C38   H17   S    
C37   H15   S    
C36   C37   S    
C29   C30   A    
C5    C8    T    
C12   O26   S    
C20   C23   A    
C39   H24   S    
C33   H5    S    
C21   S3    S    
C42   H31   S    
O19   H21   S    
C3    C31   A    
C9    C11   A    
C4    C32   A    
C10   C12   A    
C1    O1    A    
C12   C14   A    
O9    C33   S    
C41   H28   S    
C48   H44   S    
C14   C16   S    
C44   H36   S    
Cu2   O8    S    
C50   H48   S    
C49   C50   S    
C42   H30   S    
S3    O19   S    
C47   H41   S    
O25   C45   S    
C34   C35   S    
C1    C7    S    
C2    C8    S    
Cu2   O3    S    
C17   O7    A    
C20   C22   A    
C50   H49   S    
S4    O22   S    
C49   H47   S    
S1    O13   S    
C45   H38   S    
C40   H26   S    
C6    C7    T    
C25   C27   A    
C41   H29   S    
C26   C28   A    
C35   H11   S    
C10   H4    S    
C38   H18   S    
Cu1   O1    S    
C37   H14   S    
C44   H35   S    
C19   C24   A    
C17   C25   S    
S1    O11   D    
C29   C31   A    
C46   H39   S    
C30   C32   A    
C43   H33   S    
C2    O2    A    
C39   H23   S    
C35   H10   S    
C42   C43   S    
C22   S4    S    
O24   C42   S    
C15   N2    T    
C45   C46   S    
C10   C11   A    
C16   N1    T    
O16   H20   S    
C41   H27   S    
C44   H34   S    
C27   C28   A    
C48   H45   S    
Cu2   O7    S    
O22   H22   S    
C13   C14   A    
C13   O25   S    
C27   O9    S    
O26   C48   S    
C5    C31   S    
C43   C44   S    
