data_mof_unit_34771.cif
_audit_creation_date              2012-12-11T14:24:42-0500
_audit_creation_method            fapswitch 2.2
_symmetry_space_group_name_H-M    P1
_symmetry_Int_Tables_number       1
_space_group_crystal_system       triclinic
_cell_length_a                    18.897747
_cell_length_b                    11.185829
_cell_length_c                    18.563965
_cell_angle_alpha                 89.41194
_cell_angle_beta                  91.970503
_cell_angle_gamma                 90.655625
_cell_volume                      3921.41170091

loop_
_atom_site_label
_atom_site_type_symbol
_atom_type_description
_atom_site_fract_x
_atom_site_fract_y
_atom_site_fract_z
_atom_type_partial_charge
C1    C     C_R   0.728882 0.372199 0.144467 0.533009
C2    C     C_R   0.285675 0.335040 0.861979 0.559420
C3    C     C_R   0.228882 0.872199 0.144468 0.533011
C4    C     C_R   0.785675 0.835040 0.861979 0.559419
C5    C     C_3   0.482533 0.054671 0.026178 -0.102890
C6    C     C_3   0.539838 0.074143 0.969928 -0.111277
C7    C     C_3   0.982533 0.554672 0.026178 -0.102891
C8    C     C_3   0.039837 0.574143 0.969928 -0.111275
C9    C     C_R   0.771222 0.855221 0.938336 -0.001133
C10   C     C_R   0.241579 0.893447 0.067678 -0.002292
C11   C     C_R   0.271222 0.355221 0.938336 -0.001133
C12   C     C_R   0.741579 0.393447 0.067678 -0.002295
C13   C     C_R   0.712620 0.804690 0.976573 0.019497
C14   C     C_R   0.300912 0.846731 0.032002 0.020781
C15   C     C_R   0.212620 0.304690 0.976573 0.019496
C16   C     C_R   0.800912 0.346731 0.032002 0.020782
C17   C     C_R   0.711268 0.821154 0.052344 0.022382
C18   C     C_R   0.298284 0.841845 0.955647 0.024347
C19   C     C_R   0.211268 0.321154 0.052344 0.022382
C20   C     C_R   0.798284 0.341846 0.955646 0.024348
C21   C     C_R   0.817586 0.944164 0.047809 -0.161663
C22   C     C_R   0.183491 0.935187 0.952279 -0.158484
C23   C     C_R   0.317586 0.444163 0.047809 -0.161663
C24   C     C_R   0.683491 0.435186 0.952278 -0.158485
C25   C     C_R   0.824027 0.919146 0.976402 -0.161139
C26   C     C_R   0.182491 0.931295 0.026059 -0.150779
C27   C     C_R   0.324027 0.419146 0.976402 -0.161139
C28   C     C_R   0.682490 0.431294 0.026059 -0.150778
C29   C     C_R   0.654806 0.740099 0.944042 -0.097092
C30   C     C_R   0.361962 0.802227 0.068972 -0.098361
C31   C     C_R   0.154805 0.240100 0.944042 -0.097093
C32   C     C_R   0.861962 0.302228 0.068972 -0.098362
C33   C     C_R   0.102714 0.186880 0.985441 -0.143429
C34   C     C_R   0.912440 0.238615 0.032606 -0.142183
C35   C     C_R   0.602714 0.686880 0.985441 -0.143429
C36   C     C_R   0.412440 0.738615 0.032606 -0.142183
C37   C     C_R   0.607548 0.691816 0.059933 -0.123115
C38   C     C_R   0.405132 0.722535 0.958612 -0.121092
C39   C     C_R   0.107548 0.191817 0.059933 -0.123117
C40   C     C_R   0.905132 0.222535 0.958612 -0.121091
C41   C     C_R   0.661603 0.757299 0.093325 -0.078989
C42   C     C_R   0.349272 0.775328 0.920043 -0.071497
C43   C     C_R   0.161603 0.257299 0.093325 -0.078989
C44   C     C_R   0.849273 0.275329 0.920043 -0.071497
C45   C     C_R   0.532767 0.154986 0.144458 0.539437
C46   C     C_R   0.468785 0.155345 0.854571 0.540477
C47   C     C_R   0.032767 0.654986 0.144459 0.539422
C48   C     C_R   0.968785 0.655345 0.854571 0.540490
C49   C     C_R   0.759399 0.902179 0.085325 -0.006070
C50   C     C_R   0.243829 0.902541 0.917032 -0.007529
C51   C     C_R   0.259399 0.402179 0.085325 -0.006067
C52   C     C_R   0.743829 0.402540 0.917032 -0.007531
C53   C     C_R   0.490543 0.166383 0.569720 -0.028490
C54   C     C_R   0.489446 0.167213 0.417489 -0.031699
C55   C     C_R   0.990507 0.666382 0.569697 -0.028504
C56   C     C_R   0.989406 0.667181 0.417465 -0.031732
C57   C     C_R   0.490743 0.059161 0.529938 0.002004
C58   C     C_R   0.475924 0.061728 0.455496 -0.006630
C59   C     C_R   0.990718 0.559149 0.529920 0.002001
C60   C     C_R   0.975904 0.561697 0.455478 -0.006605
C61   C     C_R   0.489332 0.276640 0.454586 0.153933
C62   C     C_R   0.491589 0.276541 0.530613 0.140526
C63   C     C_R   0.989233 0.776612 0.454546 0.153982
C64   C     C_R   0.991509 0.776534 0.530574 0.140522
C65   C     C_R   0.505756 0.947974 0.562118 -0.082385
C66   C     C_R   0.457395 0.955013 0.419678 -0.071099
C67   C     C_R   0.005739 0.447968 0.562105 -0.082412
C68   C     C_R   0.957391 0.454973 0.419662 -0.071098
C69   C     C_R   0.992179 0.343774 0.525702 -0.149237
C70   C     C_R   0.967935 0.346236 0.454048 -0.133784
C71   C     C_R   0.492185 0.843779 0.525708 -0.149225
C72   C     C_R   0.467932 0.846265 0.454057 -0.133772
C73   C     C_R   0.735792 0.969852 0.593485 -0.004730
C74   C     C_R   0.266091 0.943063 0.412569 -0.010948
C75   C     C_R   0.235794 0.469865 0.593488 -0.004722
C76   C     C_R   0.766085 0.443059 0.412570 -0.010949
C77   C     C_R   0.781277 0.056391 0.564828 0.039049
C78   C     C_R   0.239207 0.051830 0.432503 0.032423
C79   C     C_R   0.281283 0.556398 0.564832 0.039078
C80   C     C_R   0.739186 0.551810 0.432510 0.032419
C81   C     C_R   0.789954 0.055179 0.489737 0.023817
C82   C     C_R   0.230072 0.071939 0.506505 0.014696
C83   C     C_R   0.289953 0.555201 0.489740 0.023830
C84   C     C_R   0.730037 0.571898 0.506511 0.014733
C85   C     C_R   0.670597 0.974251 0.479430 -0.147997
C86   C     C_R   0.310641 0.908287 0.532962 -0.131511
C87   C     C_R   0.170591 0.474306 0.479438 -0.148011
C88   C     C_R   0.810633 0.408284 0.532961 -0.131552
C89   C     C_R   0.743499 0.965108 0.151401 0.549620
C90   C     C_R   0.256770 0.964576 0.848907 0.542918
C91   C     C_R   0.243499 0.465108 0.151401 0.549632
C92   C     C_R   0.756770 0.464576 0.848907 0.542912
C93   C     C_R   0.675836 0.939467 0.552420 -0.160021
C94   C     C_R   0.305559 0.875667 0.461790 -0.154110
C95   C     C_R   0.175831 0.439513 0.552427 -0.160052
C96   C     C_R   0.805550 0.375663 0.461791 -0.154118
C97   C     C_R   0.830627 0.117413 0.609808 -0.086357
C98   C     C_R   0.210005 0.129270 0.379531 -0.079523
C99   C     C_R   0.330639 0.617410 0.609812 -0.086338
C100  C     C_R   0.709991 0.629263 0.379541 -0.079552
C101  C     C_R   0.899278 0.129643 0.587455 -0.125837
C102  C     C_R   0.157086 0.205101 0.397682 -0.099728
C103  C     C_R   0.399290 0.629624 0.587456 -0.125841
C104  C     C_R   0.657076 0.705109 0.397696 -0.099782
C105  C     C_R   0.913990 0.102523 0.516610 -0.120042
C106  C     C_R   0.139104 0.210974 0.468909 -0.143400
C107  C     C_R   0.413996 0.602516 0.516608 -0.120093
C108  C     C_R   0.639059 0.710924 0.468918 -0.143399
C109  C     C_R   0.859006 0.080749 0.466743 -0.110261
C110  C     C_R   0.177989 0.153726 0.523965 -0.114360
C111  C     C_R   0.359002 0.580781 0.466743 -0.110370
C112  C     C_R   0.677929 0.653655 0.523971 -0.114256
C113  C     C_R   0.731110 0.016688 0.444634 -0.005621
C114  C     C_R   0.268947 0.001165 0.557945 -0.010200
C115  C     C_R   0.231106 0.516719 0.444638 -0.005605
C116  C     C_R   0.768930 0.501145 0.557948 -0.010225
C117  C     C_R   0.734015 0.382708 0.351016 0.534679
C118  C     C_R   0.264771 0.390946 0.652268 0.552076
C119  C     C_R   0.234015 0.882707 0.351017 0.534676
C120  C     C_R   0.764773 0.890940 0.652264 0.552091
C121  C     C_R   0.529290 0.157273 0.350521 0.522239
C122  C     C_R   0.466663 0.158164 0.645641 0.531629
C123  C     C_R   0.029283 0.657267 0.350515 0.522205
C124  C     C_R   0.966655 0.658164 0.645633 0.531630
C125  C     C_R   0.728701 0.025266 0.364242 0.569011
C126  C     C_R   0.271566 0.023717 0.635897 0.567170
C127  C     C_R   0.228699 0.525273 0.364242 0.569044
C128  C     C_R   0.771561 0.523708 0.635896 0.567172
C129  C     C_3   0.521321 0.268596 0.972014 -0.127902
C130  C     C_3   0.464251 0.248691 0.028912 -0.139879
C131  C     C_3   0.021321 0.768595 0.972014 -0.127900
C132  C     C_3   0.964251 0.748691 0.028913 -0.139881
C133  C     C_3   0.570986 0.180616 0.013301 -0.107770
C134  C     C_3   0.432972 0.142381 0.985425 -0.105907
C135  C     C_3   0.070986 0.680616 0.013301 -0.107767
C136  C     C_3   0.932972 0.642381 0.985425 -0.105911
C137  C     C_3   0.513094 0.160965 0.068560 0.052031
C138  C     C_3   0.490813 0.161869 0.929838 0.056757
C139  C     C_3   0.013094 0.660964 0.068560 0.052031
C140  C     C_3   0.990813 0.661869 0.929838 0.056754
Cr1   Cr    Cr6+3 0.772820 0.169820 0.252640 0.973050
Cr2   Cr    Cr6+3 0.227180 0.169820 0.747360 0.968249
Cr3   Cr    Cr6+3 0.272820 0.669820 0.252640 0.973071
Cr4   Cr    Cr6+3 0.727180 0.669820 0.747360 0.968232
Cr5   Cr    Cr6+3 0.615040 0.323610 0.249150 0.984891
Cr6   Cr    Cr6+3 0.384960 0.323610 0.750850 0.984815
Cr7   Cr    Cr6+3 0.115040 0.823610 0.249150 0.984916
Cr8   Cr    Cr6+3 0.884960 0.823610 0.750850 0.984826
Cr9   Cr    Cr6+3 0.616720 0.011130 0.250660 0.981992
Cr10  Cr    Cr6+3 0.383280 0.011130 0.749340 0.992130
Cr11  Cr    Cr6+3 0.116720 0.511130 0.250660 0.981997
Cr12  Cr    Cr6+3 0.883280 0.511130 0.749340 0.992133
H1    H     H_    0.628060 0.194681 0.027124 0.130367
H2    H     H_    0.375877 0.126368 0.972175 0.118768
H3    H     H_    0.128059 0.694679 0.027124 0.130367
H4    H     H_    0.875877 0.626368 0.972175 0.118768
H5    H     H_    0.531833 0.939865 0.614660 0.134691
H6    H     H_    0.438470 0.955392 0.363910 0.128086
H7    H     H_    0.031814 0.439865 0.614648 0.134711
H8    H     H_    0.938471 0.455340 0.363892 0.128074
H9    H     H_    0.008234 0.262537 0.552455 0.088956
H10   H     H_    0.960497 0.265284 0.423464 0.095522
H11   H     H_    0.508229 0.762522 0.552457 0.088942
H12   H     H_    0.460477 0.765313 0.423466 0.095511
H13   H     H_    0.622574 0.954663 0.448335 0.157700
H14   H     H_    0.343083 0.854091 0.568996 0.169772
H15   H     H_    0.122568 0.454731 0.448346 0.157702
H16   H     H_    0.843084 0.354103 0.568994 0.169780
H17   H     H_    0.820349 0.131401 0.666189 0.125514
H18   H     H_    0.221945 0.120555 0.323131 0.112799
H19   H     H_    0.320365 0.631399 0.666193 0.125513
H20   H     H_    0.721949 0.620575 0.323143 0.112785
H21   H     H_    0.637003 0.881112 0.575505 0.108121
H22   H     H_    0.329269 0.794361 0.445482 0.148490
H23   H     H_    0.136996 0.381168 0.575511 0.108100
H24   H     H_    0.829255 0.294357 0.445485 0.148510
H25   H     H_    0.941045 0.153629 0.626100 0.098173
H26   H     H_    0.127861 0.255016 0.356523 0.133049
H27   H     H_    0.441063 0.653606 0.626097 0.098162
H28   H     H_    0.627881 0.755101 0.356542 0.133103
H29   H     H_    0.967901 0.102377 0.499000 0.146597
H30   H     H_    0.097070 0.265854 0.481074 0.117445
H31   H     H_    0.467907 0.602382 0.498998 0.146646
H32   H     H_    0.597017 0.765797 0.481076 0.117431
H33   H     H_    0.874236 0.084023 0.412288 0.151448
H34   H     H_    0.162985 0.169558 0.578289 0.152365
H35   H     H_    0.374215 0.584119 0.412285 0.151344
H36   H     H_    0.662890 0.669442 0.578300 0.152292
H37   H     H_    0.535890 0.355836 0.947578 0.101380
H38   H     H_    0.435804 0.318445 0.057635 0.112319
H39   H     H_    0.035890 0.855835 0.947578 0.101383
H40   H     H_    0.935804 0.818445 0.057635 0.112318
H41   H     H_    0.467243 0.968126 0.050734 0.137882
H42   H     H_    0.570992 0.003448 0.944453 0.130016
H43   H     H_    0.967243 0.468127 0.050734 0.137882
H44   H     H_    0.070992 0.503448 0.944453 0.130018
H45   H     H_    0.857716 0.001571 0.072773 0.147395
H46   H     H_    0.138265 0.971875 0.922781 0.132284
H47   H     H_    0.357716 0.501571 0.072773 0.147396
H48   H     H_    0.638265 0.471874 0.922781 0.132281
H49   H     H_    0.646105 0.728467 0.887314 0.166758
H50   H     H_    0.372829 0.817349 0.125572 0.133508
H51   H     H_    0.146105 0.228468 0.887314 0.166759
H52   H     H_    0.872829 0.317349 0.125572 0.133505
H53   H     H_    0.870770 0.953535 0.950641 0.144667
H54   H     H_    0.133499 0.955583 0.050175 0.152964
H55   H     H_    0.370770 0.453535 0.950641 0.144667
H56   H     H_    0.633499 0.455581 0.050175 0.152963
H57   H     H_    0.060366 0.135797 0.959531 0.089042
H58   H     H_    0.956934 0.200861 0.062334 0.102694
H59   H     H_    0.560366 0.635796 0.959531 0.089041
H60   H     H_    0.456934 0.700861 0.062333 0.102696
H61   H     H_    0.070156 0.142975 0.092167 0.097546
H62   H     H_    0.942962 0.170003 0.930671 0.097960
H63   H     H_    0.570156 0.642974 0.092167 0.097548
H64   H     H_    0.442962 0.670003 0.930671 0.097959
H65   H     H_    0.665014 0.755039 0.151583 0.123694
H66   H     H_    0.344703 0.759566 0.862653 0.127896
H67   H     H_    0.165014 0.255039 0.151582 0.123696
H68   H     H_    0.844703 0.259566 0.862653 0.127896
O1    O     O_R   0.788190 0.043000 0.172520 -0.523921
O2    O     O_R   0.211810 0.043000 0.827480 -0.536894
O3    O     O_R   0.288190 0.543000 0.172520 -0.523907
O4    O     O_R   0.711810 0.543000 0.827480 -0.536902
O5    O     O_R   0.556550 0.253260 0.323480 -0.497430
O6    O     O_R   0.443450 0.253260 0.676520 -0.504540
O7    O     O_R   0.056550 0.753260 0.323480 -0.497367
O8    O     O_R   0.943450 0.753260 0.676520 -0.504553
O9    O     O_R   0.545830 0.051610 0.330160 -0.542343
O10   O     O_R   0.454170 0.051610 0.669840 -0.532687
O11   O     O_R   0.045830 0.551610 0.330160 -0.542356
O12   O     O_R   0.954170 0.551610 0.669840 -0.532683
O13   O     O_R   0.681920 0.959720 0.327070 -0.512802
O14   O     O_R   0.318080 0.959720 0.672930 -0.508323
O15   O     O_R   0.181920 0.459720 0.327070 -0.512758
O16   O     O_R   0.818080 0.459720 0.672930 -0.508324
O17   O     O_3   0.668190 0.168190 0.250820 -0.257259
O18   O     O_3   0.331810 0.168190 0.749180 -0.272878
O19   O     O_3   0.168190 0.668190 0.250820 -0.257280
O20   O     O_3   0.831810 0.668190 0.749180 -0.272871
O21   O     O_R   0.766240 0.292300 0.176860 -0.511823
O22   O     O_R   0.233760 0.292300 0.823140 -0.525460
O23   O     O_R   0.266240 0.792300 0.176860 -0.511825
O24   O     O_R   0.733760 0.792300 0.823140 -0.525461
O25   O     O_R   0.670310 0.409160 0.168720 -0.529110
O26   O     O_R   0.329690 0.409160 0.831280 -0.527029
O27   O     O_R   0.170310 0.909160 0.168720 -0.529117
O28   O     O_R   0.829690 0.909160 0.831280 -0.527027
O29   O     O_R   0.556160 0.251900 0.173380 -0.507939
O30   O     O_R   0.443840 0.251900 0.826620 -0.519136
O31   O     O_R   0.056160 0.751900 0.173380 -0.507933
O32   O     O_R   0.943840 0.751900 0.826620 -0.519126
O33   O     O_R   0.545410 0.050140 0.168240 -0.523593
O34   O     O_R   0.454590 0.050140 0.831760 -0.513767
O35   O     O_R   0.045410 0.550140 0.168240 -0.523601
O36   O     O_R   0.954590 0.550140 0.831760 -0.513763
O37   O     O_R   0.681530 0.958350 0.176970 -0.502001
O38   O     O_R   0.318470 0.958350 0.823030 -0.503481
O39   O     O_R   0.181530 0.458350 0.176970 -0.502004
O40   O     O_R   0.818470 0.458350 0.823030 -0.503480
O41   O     O_R   0.788610 0.044480 0.334450 -0.558096
O42   O     O_R   0.211390 0.044480 0.665550 -0.547759
O43   O     O_R   0.288610 0.544480 0.334450 -0.558035
O44   O     O_R   0.711390 0.544480 0.665550 -0.547814
O45   O     O_R   0.766630 0.293670 0.326970 -0.532105
O46   O     O_R   0.233370 0.293670 0.673030 -0.524326
O47   O     O_R   0.266630 0.793670 0.326970 -0.532121
O48   O     O_R   0.733370 0.793670 0.673030 -0.524291
O49   O     O_R   0.670730 0.410640 0.330640 -0.519237
O50   O     O_R   0.329270 0.410640 0.669360 -0.520360
O51   O     O_R   0.170730 0.910640 0.330640 -0.519204
O52   O     O_R   0.829270 0.910640 0.669360 -0.520385
N1    N     N_2   0.486230 0.387688 0.416296 -0.496612
H69   H     H_    0.534815 0.425315 0.405461 0.280647
C141  C     C_3   0.432655 0.396412 0.358466 -0.270848
H70   H     H_    0.435457 0.486228 0.332781 0.126889
H71   H     H_    0.379409 0.379970 0.380234 0.176851
H72   H     H_    0.439868 0.330827 0.315306 0.148408
N2    N     N_2   0.499316 0.388134 0.565881 -0.508460
H73   H     H_    0.458208 0.410894 0.597575 0.298221
C142  C     C_3   0.568790 0.411981 0.597742 -0.283830
H74   H     H_    0.570866 0.504790 0.618378 0.143068
H75   H     H_    0.609758 0.403156 0.556631 0.169921
H76   H     H_    0.580262 0.349118 0.643264 0.153662
N3    N     N_2   0.986008 0.887648 0.416223 -0.496614
H77   H     H_    0.034566 0.925398 0.405368 0.280492
C143  C     C_3   0.932418 0.896112 0.358366 -0.270777
H78   H     H_    0.935185 0.985853 0.332534 0.127078
H79   H     H_    0.879178 0.879740 0.380175 0.176900
H80   H     H_    0.939637 0.830318 0.315296 0.148193
N4    N     N_2   0.999220 0.888140 0.565826 -0.508482
H81   H     H_    0.958140 0.910854 0.597567 0.298276
C144  C     C_3   0.068717 0.912075 0.597609 -0.283921
H82   H     H_    0.070774 0.004873 0.618259 0.143001
H83   H     H_    0.109635 0.903340 0.556442 0.169928
H84   H     H_    0.080273 0.849209 0.643105 0.153714

loop_
_geom_bond_atom_site_label_1
_geom_bond_atom_site_label_2
_ccdc_geom_bond_type
C128  O16   A    
C99   C103  A    
C133  C137  S    
C55   C59   A    
Cr8   O52   S    
N4    H81   S    
C73   C93   A    
C136  C140  S    
C75   C95   A    
C142  H76   S    
C135  C139  S    
C84   C112  A    
C71   H11   S    
C64   N4    S    
C79   C99   A    
C5    C6    S    
Cr10  O34   S    
C123  O7    A    
C100  C104  A    
C121  O5    A    
C95   H23   S    
C46   O30   A    
C131  C140  S    
C92   O40   A    
C11   C15   A    
C50   C90   S    
C87   H15   S    
C12   C16   A    
C88   H16   S    
Cr9   O17   S    
C143  H79   S    
C87   C115  A    
C59   C60   A    
C8    C135  S    
C26   H54   S    
C70   H10   S    
C30   H50   S    
Cr8   O32   S    
C108  H32   S    
C56   C123  S    
Cr3   O19   S    
C92   O4    A    
Cr12  O36   S    
C48   C140  S    
C109  H33   S    
C98   C102  A    
Cr5   O5    S    
C32   C34   A    
C48   O32   A    
C78   C82   A    
C11   C27   A    
C16   C20   A    
C124  O12   A    
C36   H60   S    
C129  C133  S    
C28   H56   S    
C90   O38   A    
C6    H42   S    
Cr8   O20   S    
Cr1   O41   S    
C21   H45   S    
C42   H66   S    
Cr10  O10   S    
C117  O49   A    
C5    C137  S    
Cr12  O16   S    
C54   C61   A    
C30   C36   A    
C6    C133  S    
C119  O51   A    
C29   C35   A    
C127  O15   A    
C120  O52   A    
Cr5   O25   S    
C8    C140  S    
C85   H13   S    
N3    C143  S    
C1    O25   A    
C76   C96   A    
Cr4   O24   S    
C93   H21   S    
N2    C142  S    
C69   C70   A    
C63   N3    S    
C24   H48   S    
C40   H62   S    
C73   C77   A    
C103  C107  A    
C68   H8    S    
C75   C79   A    
C130  H38   S    
Cr1   O1    S    
C88   C116  A    
C100  H20   S    
Cr8   O8    S    
C21   C49   A    
Cr11  O39   S    
C7    C8    S    
C132  C139  S    
Cr6   O50   S    
Cr5   O29   S    
N4    C144  S    
C53   C122  S    
C18   C42   A    
C89   O1    A    
C114  C126  S    
Cr9   O33   S    
Cr4   O20   S    
Cr3   O47   S    
C16   C32   A    
C9    C13   A    
C34   H58   S    
C59   C67   A    
C85   C93   A    
Cr11  O11   S    
Cr6   O18   S    
C129  H37   S    
Cr7   O51   S    
C77   C97   A    
C132  H40   S    
C47   O31   A    
C84   C116  A    
C1    C12   S    
C2    C11   S    
C20   C44   A    
C66   C72   A    
C121  O9    A    
C39   H61   S    
C83   C115  A    
C141  H72   S    
C10   C14   A    
C17   C49   A    
Cr7   O7    S    
Cr2   O22   S    
Cr9   O13   S    
C87   C95   A    
C144  H82   S    
C132  C136  S    
Cr11  O15   S    
C2    O22   A    
Cr9   O37   S    
C54   C121  S    
C74   C78   A    
C102  H26   S    
Cr3   O23   S    
C62   N2    S    
C47   C139  S    
C67   H7    S    
C129  C130  S    
C21   C25   A    
C110  H34   S    
C107  C111  A    
Cr2   O46   S    
C41   H65   S    
C15   C31   A    
Cr7   O19   S    
C142  H75   S    
C13   C17   A    
Cr9   O9    S    
C85   C113  A    
C71   C72   A    
C57   C58   A    
N1    C141  S    
C46   O34   A    
C37   C41   A    
C61   C62   A    
C126  O14   A    
C91   O39   A    
C63   C64   A    
C98   H18   S    
C40   C44   A    
C125  O41   A    
C105  H29   S    
C4    C9    S    
C4    O24   A    
C117  O45   A    
Cr12  O12   S    
C24   C52   A    
C88   C96   A    
C120  O48   A    
C74   C94   A    
C141  H70   S    
C86   H14   S    
C80   C84   A    
C9    C25   A    
C130  C134  S    
C15   C19   A    
Cr7   O31   S    
C12   C28   A    
C13   C29   A    
C144  H84   S    
C54   C58   A    
C122  O6    A    
C105  C109  A    
C51   C91   S    
C44   H68   S    
N2    H73   S    
C22   C50   A    
C73   C120  S    
Cr4   O48   S    
C75   C118  S    
C3    O27   A    
C25   H53   S    
C19   C43   A    
C29   H49   S    
C24   C28   A    
C65   H5    S    
C135  H3    S    
C49   C89   S    
C53   C57   A    
Cr6   O6    S    
Cr1   O21   S    
C108  C112  A    
C32   H52   S    
C134  C138  S    
N3    H77   S    
C143  H78   S    
C77   C81   A    
C72   H12   S    
C143  H80   S    
C81   C109  A    
C83   C111  A    
C52   C92   S    
Cr3   O43   S    
C7    H43   S    
C131  C132  S    
Cr4   O44   S    
C104  C108  A    
C18   C50   A    
C5    H41   S    
Cr2   O18   S    
C55   C124  S    
C96   H24   S    
C141  H71   S    
C22   H46   S    
C43   H67   S    
C57   C65   A    
C38   C42   A    
Cr11  O19   S    
Cr6   O26   S    
C111  H35   S    
C76   C117  S    
C36   C38   A    
C2    O26   A    
Cr10  O14   S    
C79   C83   A    
C134  H2    S    
C127  O43   A    
C8    H44   S    
C103  H27   S    
C128  O44   A    
C101  H25   S    
C56   C60   A    
C7    C136  S    
C123  O11   A    
C60   C68   A    
C20   C52   A    
C22   C26   A    
C81   C113  A    
C61   N1    S    
Cr2   O42   S    
C130  C137  S    
C37   H63   S    
C99   H19   S    
C14   C18   A    
C97   H17   S    
C47   O35   A    
C74   C119  S    
C33   C39   A    
Cr6   O30   S    
C133  H1    S    
C82   C110  A    
C35   C37   A    
C69   H9    S    
C90   O2    A    
C131  C135  S    
Cr3   O3    S    
C136  H4    S    
C113  C125  S    
C23   H47   S    
Cr8   O28   S    
C115  C127  S    
C126  O42   A    
Cr5   O49   S    
C35   H59   S    
C4    O28   A    
C86   C94   A    
C118  O46   A    
C33   H57   S    
C58   C66   A    
C106  H30   S    
C129  C138  S    
Cr10  O18   S    
Cr5   O17   S    
C78   C98   A    
C31   C33   A    
C23   C27   A    
C48   O36   A    
C31   H51   S    
C46   C138  S    
C45   O29   A    
C10   C26   A    
Cr7   O27   S    
C80   C100  A    
C14   C30   A    
C124  O8    A    
C101  C105  A    
C5    C134  S    
C122  O10   A    
C89   O37   A    
C82   C114  A    
C39   C43   A    
C142  H74   S    
C65   C71   A    
C107  H31   S    
C67   C69   A    
Cr1   O45   S    
C6    C138  S    
C53   C62   A    
Cr12  O40   S    
C23   C51   A    
Cr12  O20   S    
C119  O47   A    
C55   C64   A    
C45   C137  S    
N1    H69   S    
C56   C63   A    
C3    O23   A    
C1    O21   A    
C94   H22   S    
C76   C80   A    
C66   H6    S    
Cr11  O35   S    
C106  C110  A    
Cr1   O17   S    
C38   H64   S    
C112  H36   S    
C131  H39   S    
C86   C114  A    
C144  H83   S    
C3    C10   S    
Cr10  O38   S    
C7    C139  S    
C104  H28   S    
C102  C106  A    
C27   H55   S    
C17   C41   A    
Cr4   O4    S    
C125  O13   A    
C19   C51   A    
C68   C70   A    
C116  C128  S    
C34   C40   A    
C118  O50   A    
C91   O3    A    
Cr2   O2    S    
C97   C101  A    
C45   O33   A    
