data_mof_unit_21502.cif
_audit_creation_date              2012-12-10T18:11:02-0500
_audit_creation_method            fapswitch 2.2
_symmetry_space_group_name_H-M    P1
_symmetry_Int_Tables_number       1
_space_group_crystal_system       triclinic
_cell_length_a                    10.725895
_cell_length_b                    9.453659
_cell_length_c                    10.672792
_cell_angle_alpha                 89.212189
_cell_angle_beta                  90.036068
_cell_angle_gamma                 90.07693
_cell_volume                      1082.10646596

loop_
_atom_site_label
_atom_site_type_symbol
_atom_type_description
_atom_site_fract_x
_atom_site_fract_y
_atom_site_fract_z
_atom_type_partial_charge
C1    C     C_R   0.259819 0.500126 0.500644 0.817262
C2    C     C_3   0.502008 0.503314 0.123942 -0.253803
C3    C     C_3   0.071927 0.654818 0.508281 -0.390889
C4    C     C_3   0.072367 0.416473 0.616919 -0.416045
C5    C     C_3   0.929161 0.655367 0.510597 0.506188
C6    C     C_3   0.928330 0.412501 0.615343 0.536410
C7    C     C_3   0.071355 0.432644 0.380364 -0.373060
C8    C     C_3   0.121852 0.500852 0.501535 -0.042089
C9    C     C_3   0.878038 0.501265 0.502459 -0.073738
C10   C     C_3   0.927464 0.435360 0.379753 -0.583806
C11   C     C_3   0.621059 0.084356 0.459143 -0.341560
C12   C     C_3   0.619733 0.917662 0.455686 -0.342268
C13   C     C_3   0.477454 0.082624 0.630469 0.209773
C14   C     C_3   0.480993 0.914052 0.631201 0.202304
C15   C     C_3   0.401728 0.084379 0.419011 0.577171
C16   C     C_3   0.398740 0.917664 0.422934 0.578287
C17   C     C_R   0.500535 0.501076 0.259874 0.922873
C18   C     C_R   0.739955 0.500285 0.501181 0.846214
C19   C     C_R   0.500844 0.498996 0.740228 0.953888
C20   C     C_3   0.496475 0.633717 0.036246 0.306319
C21   C     C_3   0.403164 0.430523 0.043039 0.313413
C22   C     C_3   0.394826 0.562428 0.955674 -0.398084
C23   C     C_3   0.501053 0.497250 0.876172 -0.235655
C24   C     C_3   0.600260 0.570194 0.956543 0.259457
C25   C     C_3   0.506974 0.366648 0.963544 0.320095
C26   C     C_3   0.606660 0.439389 0.043537 0.465168
Cu1   Cu    Cu3+1 0.499860 0.642410 0.500060 1.042497
Cu2   Cu    Cu3+1 0.499860 0.357590 0.500060 1.029789
H1    H     H_    0.308303 0.612311 0.918993 0.202217
H2    H     H_    0.893904 0.497824 0.297248 0.227410
H3    H     H_    0.891461 0.325580 0.369745 0.223495
H4    H     H_    0.697637 0.118317 0.522332 0.167365
H5    H     H_    0.698608 0.878076 0.513712 0.211621
H6    H     H_    0.644263 0.127842 0.364636 0.249209
H7    H     H_    0.637618 0.881699 0.358549 0.238724
H8    H     H_    0.553055 0.119836 0.693895 0.162546
H9    H     H_    0.561208 0.879954 0.691269 0.140306
H10   H     H_    0.308569 0.123600 0.447636 0.080106
H11   H     H_    0.306369 0.883635 0.459661 0.072791
H12   H     H_    0.104718 0.717581 0.425554 0.150413
H13   H     H_    0.108714 0.306238 0.616373 0.171743
H14   H     H_    0.108624 0.707250 0.593573 0.235720
H15   H     H_    0.106167 0.466156 0.704626 0.210817
H16   H     H_    0.894881 0.719310 0.429223 0.061878
H17   H     H_    0.897212 0.300662 0.606691 0.074900
H18   H     H_    0.107382 0.490850 0.296509 0.219435
H19   H     H_    0.104102 0.321272 0.374104 0.215781
N1    N     N_3   0.500250 0.143650 0.502780 -0.223561
N2    N     N_3   0.500250 0.856350 0.502780 -0.214798
O1    O     O_R   0.317570 0.620260 0.500070 -0.570103
O2    O     O_R   0.317570 0.379740 0.500070 -0.566943
O3    O     O_R   0.499850 0.620240 0.316900 -0.513765
O4    O     O_R   0.499850 0.379760 0.316900 -0.510100
O5    O     O_R   0.682190 0.620260 0.500030 -0.576127
O6    O     O_R   0.682190 0.379740 0.500030 -0.622497
O7    O     O_R   0.499910 0.620280 0.683200 -0.553381
O8    O     O_R   0.499910 0.379720 0.683200 -0.545321
F1    F     F_    0.419181 0.130328 0.296453 -0.591909
F2    F     F_    0.405860 0.866838 0.302395 -0.574496
O9    O     O_3   0.362543 0.132378 0.675930 -0.694205
H20   H     H_    0.362323 0.116494 0.767956 0.361475
O10   O     O_3   0.370408 0.858038 0.683071 -0.698460
H21   H     H_    0.379216 0.861430 0.775606 0.321927
O11   O     O_3   0.494290 0.774032 0.075549 -0.602975
H22   H     H_    0.490682 0.832113 0.997605 0.334736
O12   O     O_3   0.301227 0.355585 0.091574 -0.660040
H23   H     H_    0.254832 0.321619 0.017468 0.348720
O13   O     O_3   0.702634 0.644446 0.908131 -0.609241
H24   H     H_    0.749031 0.678309 0.982272 0.354804
O14   O     O_3   0.512371 0.226201 0.925116 -0.720101
H25   H     H_    0.512393 0.168555 0.003400 0.376829
F3    F     F_    0.714488 0.377256 0.089067 -0.629581
F4    F     F_    0.888161 0.719862 0.619101 -0.600819
F5    F     F_    0.881866 0.462757 0.727486 -0.572657

loop_
_geom_bond_atom_site_label_1
_geom_bond_atom_site_label_2
_ccdc_geom_bond_type
C19   O7    A    
C7    C10   S    
C3    H14   S    
C22   H1    S    
C21   O12   S    
C1    C8    S    
C26   F3    S    
C4    C8    S    
C6    C9    S    
C12   N2    S    
Cu1   O5    S    
C7    C8    S    
C13   O9    S    
Cu2   O8    S    
C19   O8    A    
C6    H17   S    
C24   C26   S    
Cu2   O2    S    
C14   N2    S    
C4    H13   S    
C15   C16   S    
C14   O10   S    
C10   H3    S    
C20   C24   S    
O13   H24   S    
C23   C24   S    
O14   H25   S    
C1    O1    A    
Cu1   O1    S    
O12   H23   S    
C13   C14   S    
C2    C17   S    
C11   N1    S    
C15   N1    S    
C17   O3    A    
Cu2   O6    S    
C6    F5    S    
C2    C20   S    
C7    H18   S    
C16   N2    S    
C13   H8    S    
C4    C6    S    
C3    C8    S    
C24   O13   S    
Cu1   O7    S    
C25   C26   S    
O9    H20   S    
C16   F2    S    
C7    H19   S    
C20   O11   S    
C19   C23   S    
C15   H10   S    
C5    C9    S    
O10   H21   S    
C10   H2    S    
C11   C12   S    
C2    C21   S    
C2    C26   S    
C12   H7    S    
C1    O2    A    
C18   O6    A    
C5    H16   S    
C20   C22   S    
C3    H12   S    
C15   F1    S    
C17   O4    A    
Cu1   O3    S    
C9    C10   S    
C21   C25   S    
Cu2   N1    S    
C11   H6    S    
C3    C5    S    
C11   H4    S    
C13   N1    S    
Cu2   O4    S    
C4    H15   S    
O11   H22   S    
C14   H9    S    
C23   C25   S    
C5    F4    S    
C18   O5    A    
C16   H11   S    
C9    C18   S    
Cu1   Cu2   S    
C22   C23   S    
C25   O14   S    
C12   H5    S    
C21   C22   S    
Cu1   N2    S    
