data_mof_unit_26491.cif
_audit_creation_date              2012-12-11T14:58:37-0500
_audit_creation_method            fapswitch 2.2
_symmetry_space_group_name_H-M    P1
_symmetry_Int_Tables_number       1
_space_group_crystal_system       triclinic
_cell_length_a                    10.922347
_cell_length_b                    10.948464
_cell_length_c                    18.680982
_cell_angle_alpha                 90.14241
_cell_angle_beta                  90.208014
_cell_angle_gamma                 59.626034
_cell_volume                      1927.29228448

loop_
_atom_site_label
_atom_site_type_symbol
_atom_type_description
_atom_site_fract_x
_atom_site_fract_y
_atom_site_fract_z
_atom_type_partial_charge
C1    C     C_R   0.356474 0.777197 0.398487 0.556840
C2    C     C_R   0.209324 0.377994 0.215529 -0.108152
C3    C     C_R   0.214543 0.400674 0.288558 0.007406
C4    C     C_R   0.378719 0.346285 0.392737 0.541074
C5    C     C_R   0.921279 0.759219 0.411784 -0.141123
C6    C     C_R   0.944999 0.624858 0.428049 -0.107616
C7    C     C_R   0.034017 0.509507 0.384794 -0.126375
C8    C     C_R   0.099817 0.527799 0.324388 0.034746
C9    C     C_R   0.334461 0.304658 0.326957 0.001931
C10   C     C_R   0.695783 0.334737 0.272943 -0.129261
C11   C     C_R   0.746222 0.306638 0.202476 -0.128861
C12   C     C_R   0.598227 0.054572 0.195397 0.034902
C13   C     C_R   0.830195 0.360487 0.178154 0.022667
C14   C     C_R   0.842180 0.460551 0.219588 -0.141377
C15   C     C_R   0.796138 0.484210 0.288895 -0.150728
C16   C     C_R   0.708163 0.419791 0.395217 0.571856
C17   C     C_R   0.736061 0.409486 0.318491 0.017020
C18   C     C_R   0.454602 0.802689 0.285084 -0.109153
C19   C     C_R   0.435024 0.842016 0.213559 -0.101335
C20   C     C_R   0.299055 0.938529 0.188388 0.040850
C21   C     C_R   0.184910 0.001465 0.236456 -0.112137
C22   C     C_R   0.203788 0.957146 0.307608 -0.097670
C23   C     C_R   0.324896 0.264631 0.179734 0.004821
C24   C     C_R   0.338067 0.852384 0.331179 0.054337
C25   C     C_R   0.381227 0.195470 0.692158 -0.124709
C26   C     C_R   0.371063 0.182501 0.764776 -0.119074
C27   C     C_R   0.297199 0.304230 0.807793 0.024099
C28   C     C_R   0.368868 0.710051 0.611610 0.572596
C29   C     C_R   0.221418 0.437842 0.776928 -0.156906
C30   C     C_R   0.228723 0.450216 0.703660 -0.138880
C31   C     C_R   0.316555 0.330044 0.662130 0.023064
C32   C     C_R   0.905286 0.396536 0.707405 -0.131451
C33   C     C_R   0.941446 0.378715 0.778957 -0.133206
C34   C     C_R   0.432744 0.175414 0.295427 -0.154084
C35   C     C_R   0.922551 0.283463 0.820469 0.014144
C36   C     C_R   0.876729 0.197583 0.788226 -0.117028
C37   C     C_R   0.836499 0.218123 0.716357 -0.091806
C38   C     C_R   0.844779 0.322533 0.676678 0.026303
C39   C     C_R   0.213101 0.796870 0.720358 0.208480
C40   C     C_R   0.367119 0.349424 0.594458 0.533808
C41   C     C_R   0.200155 0.824638 0.792346 -0.100816
C42   C     C_R   0.312681 0.817214 0.831538 -0.008433
C43   C     C_R   0.445594 0.766224 0.800039 -0.152361
C44   C     C_R   0.463378 0.728593 0.728236 -0.179643
C45   C     C_R   0.446368 0.160436 0.221108 -0.021529
C46   C     C_R   0.346847 0.747955 0.687094 0.030988
C47   C     C_R   0.905073 0.319605 0.110403 0.536822
C48   C     C_R   0.304265 0.254761 0.102168 0.546508
C49   C     C_R   0.270390 0.965315 0.111941 0.544109
C50   C     C_R   0.948943 0.280211 0.897081 0.570743
C51   C     C_R   0.292711 0.284471 0.883599 0.557296
C52   C     C_R   0.768882 0.373418 0.609047 0.546821
C53   C     C_R   0.278977 0.888130 0.899960 0.557774
C54   C     C_R   0.881021 0.890241 0.142924 -0.064743
C55   C     C_R   0.854269 0.965226 0.206472 -0.103161
C56   C     C_R   0.078547 0.663061 0.309333 0.271310
C57   C     C_R   0.717032 0.038044 0.234723 -0.133268
C58   C     C_R   0.988996 0.777952 0.353256 -0.055280
C59   C     C_R   0.633108 0.963982 0.135953 -0.074380
C60   C     C_R   0.770863 0.884809 0.109174 -0.130896
Cl1   Cl    Cl    0.051389 0.840661 0.676808 -0.659381
Cl2   Cl    Cl    0.178902 0.685535 0.242593 -0.656267
Cr1   Cr    Cr6+3 0.601770 0.606860 0.505860 0.991452
Cr2   Cr    Cr6+3 0.291380 0.601660 0.495070 1.058630
Cr3   Cr    Cr6+3 0.606880 0.291510 0.499120 1.018972
Cr4   Cr    Cr6+3 0.062440 0.063090 0.008210 1.012824
Cr5   Cr    Cr6+3 0.062880 0.375170 0.998920 1.007530
Cr6   Cr    Cr6+3 0.374700 0.061720 0.992470 0.992187
H1    H     H_    0.514147 0.093798 0.328791 0.137500
H2    H     H_    0.524296 0.789904 0.177528 0.126422
H3    H     H_    0.079843 0.078849 0.217892 0.109154
H4    H     H_    0.791545 0.819918 0.061878 0.109358
H5    H     H_    0.113173 0.999271 0.343033 0.113272
H6    H     H_    0.447068 0.101684 0.660489 0.139918
H7    H     H_    0.424330 0.076911 0.787447 0.145123
H8    H     H_    0.159964 0.531650 0.809316 0.135883
H9    H     H_    0.175482 0.554582 0.680463 0.195254
H10   H     H_    0.915057 0.476008 0.677643 0.145400
H11   H     H_    0.977347 0.445102 0.802902 0.141598
H12   H     H_    0.853841 0.848237 0.445849 0.120196
H13   H     H_    0.864164 0.121153 0.819172 0.144598
H14   H     H_    0.790524 0.159389 0.693412 0.174063
H15   H     H_    0.976526 0.880987 0.344668 0.113973
H16   H     H_    0.096312 0.864877 0.816112 0.165577
H17   H     H_    0.533608 0.759786 0.830167 0.142531
H18   H     H_    0.567104 0.688450 0.704415 0.151142
H19   H     H_    0.987205 0.832988 0.121163 0.185149
H20   H     H_    0.939691 0.968241 0.233785 0.147902
H21   H     H_    0.706393 0.083725 0.286865 0.107669
H22   H     H_    0.557342 0.949972 0.109784 0.176586
H23   H     H_    0.896554 0.609696 0.475022 0.153476
H24   H     H_    0.117773 0.455104 0.185771 0.155034
H25   H     H_    0.054680 0.404973 0.399288 0.124980
H26   H     H_    0.623665 0.302618 0.292223 0.137085
H27   H     H_    0.719128 0.246251 0.166690 0.152855
H28   H     H_    0.890943 0.518328 0.199638 0.134606
H29   H     H_    0.807475 0.562040 0.318881 0.146958
H30   H     H_    0.558954 0.724307 0.303000 0.123772
O1    O     O_R   0.748800 0.497470 0.428000 -0.542286
O2    O     O_R   0.417600 0.174890 0.067840 -0.519545
O3    O     O_R   0.375320 0.946260 0.070860 -0.549905
O4    O     O_R   0.476420 0.724060 0.429470 -0.527570
O5    O     O_R   0.160600 0.919630 0.926660 -0.528601
O6    O     O_R   0.933060 0.190520 0.936020 -0.497235
O7    O     O_R   0.908880 0.403460 0.925020 -0.512564
O8    O     O_R   0.179600 0.361450 0.918490 -0.516949
O9    O     O_R   0.391510 0.170860 0.907530 -0.512534
O10   O     O_R   0.351130 0.942530 0.922260 -0.502331
O11   O     O_3   0.166667 0.166667 0.999870 -0.313608
O12   O     O_R   0.300070 0.471040 0.567100 -0.516751
O13   O     O_R   0.264580 0.744340 0.416750 -0.483705
O14   O     O_R   0.309380 0.472470 0.418200 -0.474967
O15   O     O_R   0.501710 0.260430 0.414300 -0.549379
O16   O     O_R   0.728090 0.305600 0.428960 -0.496626
O17   O     O_R   0.738760 0.495930 0.588610 -0.537939
O18   O     O_R   0.467110 0.722640 0.578360 -0.509553
O19   O     O_R   0.254530 0.742800 0.577360 -0.439398
O20   O     O_R   0.491670 0.258900 0.574910 -0.514710
O21   O     O_R   0.718780 0.304180 0.577850 -0.487274
O22   O     O_3   0.500010 0.500010 0.500020 -0.291848
O23   O     O_R   0.186690 0.923650 0.086970 -0.473376
O24   O     O_R   0.957250 0.194250 0.084630 -0.519345
O25   O     O_R   0.934970 0.407490 0.085330 -0.531857
O26   O     O_R   0.203780 0.365190 0.067090 -0.480993

loop_
_geom_bond_atom_site_label_1
_geom_bond_atom_site_label_2
_ccdc_geom_bond_type
C25   C31   A    
C40   O20   A    
C50   O6    A    
C23   C45   A    
C27   C29   A    
Cr3   O16   S    
C19   C20   A    
Cr5   O26   S    
C8    C56   A    
C7    C8    A    
C39   C41   A    
C29   H8    S    
C54   C60   A    
C54   H19   S    
C28   C46   S    
C26   C27   A    
C29   C30   A    
C57   H21   S    
C5    C58   A    
C21   H3    S    
C18   C24   A    
C36   C37   A    
C37   C38   A    
C18   C19   A    
C28   O19   A    
C42   C53   S    
C49   O3    A    
C30   C31   A    
Cr2   O14   S    
C38   C52   S    
C10   H26   S    
C10   C17   A    
C6    H23   S    
C31   C40   S    
C25   H6    S    
C41   C42   A    
C55   H20   S    
Cr1   O1    S    
C28   O18   A    
C12   C59   A    
Cr2   O12   S    
Cr5   O11   S    
C35   C36   A    
C27   C51   S    
C16   C17   S    
C50   O7    A    
Cr3   O20   S    
Cr4   O24   S    
Cr6   O9    S    
C32   C38   A    
Cr1   O17   S    
C4    O14   A    
C59   C60   A    
C21   C22   A    
C30   H9    S    
C15   H29   S    
Cr1   O4    S    
C44   H18   S    
C14   H28   S    
C44   C46   A    
C7    H25   S    
C43   H17   S    
Cr4   O6    S    
C4    O15   A    
C48   O2    A    
Cr6   O3    S    
C3    C8    S    
C13   C47   S    
Cr5   O7    S    
C47   O24   A    
C40   O12   A    
C25   C26   A    
C41   H16   S    
Cr2   O19   S    
Cr5   O25   S    
C59   H22   S    
C43   C44   A    
Cr6   O2    S    
C20   C49   S    
C3    C9    A    
C47   O25   A    
C36   H13   S    
C49   O23   A    
C35   C50   S    
C26   H7    S    
Cr3   O21   S    
Cr4   O23   S    
Cr5   O8    S    
C34   C45   A    
C5    H12   S    
C2    H24   S    
C34   H1    S    
C39   C46   A    
C12   C57   A    
C55   C57   A    
C9    C34   A    
C56   Cl2   S    
C37   H14   S    
C42   C43   A    
Cr1   O18   S    
C39   Cl1   S    
C52   O17   A    
C11   H27   S    
C15   C17   A    
C54   C55   A    
C23   C48   S    
Cr3   O15   S    
Cr4   O5    S    
C33   H11   S    
C12   C45   S    
Cr2   O13   S    
C16   O16   A    
C48   O26   A    
C16   O1    A    
C6    C7    A    
Cr6   O10   S    
Cr2   O22   S    
C32   C33   A    
C2    C3    A    
C58   H15   S    
C1    O13   A    
Cr1   O22   S    
C11   C13   A    
C53   O10   A    
C5    C6    A    
C53   O5    A    
C51   O8    A    
C33   C35   A    
Cr3   O22   S    
C56   C58   A    
C22   C24   A    
Cr6   O11   S    
Cr4   O11   S    
C10   C11   A    
C32   H10   S    
C52   O21   A    
C20   C21   A    
C1    C24   S    
C51   O9    A    
C2    C23   A    
C60   H4    S    
C14   C15   A    
C19   H2    S    
C18   H30   S    
C22   H5    S    
C4    C9    S    
C13   C14   A    
C1    O4    A    
