data_mof_unit_21048.cif
_audit_creation_date              2012-12-10T17:40:29-0500
_audit_creation_method            fapswitch 2.2
_symmetry_space_group_name_H-M    P1
_symmetry_Int_Tables_number       1
_space_group_crystal_system       triclinic
_cell_length_a                    13.736253
_cell_length_b                    15.082747
_cell_length_c                    15.883215
_cell_angle_alpha                 89.323271
_cell_angle_beta                  70.096334
_cell_angle_gamma                 89.166688
_cell_volume                      3093.71668574

loop_
_atom_site_label
_atom_site_type_symbol
_atom_type_description
_atom_site_fract_x
_atom_site_fract_y
_atom_site_fract_z
_atom_type_partial_charge
C1    C     C_R   0.500283 0.671159 0.497473 0.820899
C2    C     C_R   0.499717 0.328841 0.502527 0.820898
C3    C     C_R   0.374670 0.489712 0.094586 -0.238814
C4    C     C_R   0.625329 0.510210 0.905411 -0.238812
C5    C     C_R   0.303967 0.486183 0.049997 -0.238215
C6    C     C_R   0.696034 0.513732 0.949999 -0.238216
C7    C     C_R   0.540483 0.183771 0.562539 -0.067660
C8    C     C_R   0.459520 0.816229 0.437458 -0.067658
C9    C     C_R   0.500273 0.232197 0.504761 -0.109890
C10   C     C_R   0.499728 0.767803 0.495237 -0.109888
C11   C     C_R   0.460172 0.188440 0.447040 -0.261337
C12   C     C_R   0.539826 0.811560 0.552960 -0.261339
C13   C     C_R   0.460534 0.096391 0.444388 0.113228
C14   C     C_R   0.539464 0.903608 0.555611 0.113229
C15   C     C_R   0.500388 0.046680 0.501256 0.053614
C16   C     C_R   0.499611 0.953319 0.498743 0.053614
C17   C     C_R   0.540415 0.090091 0.560887 0.066318
C18   C     C_R   0.459585 0.909909 0.439111 0.066318
C19   C     C_R   0.421896 0.053520 0.385097 -0.209894
C20   C     C_R   0.578102 0.946479 0.614903 -0.209895
C21   C     C_R   0.421829 0.961489 0.382021 -0.211009
C22   C     C_R   0.578171 0.038510 0.617977 -0.211009
C23   C     C_R   0.437256 0.500636 0.672130 0.803675
C24   C     C_R   0.562743 0.499363 0.327870 0.803678
C25   C     C_R   0.235391 0.524223 0.424318 0.008106
C26   C     C_R   0.764609 0.475777 0.575682 0.008111
C27   C     C_R   0.176969 0.475557 0.575736 0.002837
C28   C     C_R   0.823031 0.524443 0.424263 0.002833
C29   C     C_R   0.073279 0.475649 0.577732 -0.001130
C30   C     C_R   0.926721 0.524350 0.422268 -0.001130
C31   C     C_R   0.051693 0.499945 0.500016 0.089955
C32   C     C_R   0.948307 0.500054 0.499983 0.089954
C33   C     C_R   0.133454 0.524003 0.422284 -0.007283
C34   C     C_R   0.866546 0.475996 0.577715 -0.007282
C35   C     C_R   0.990914 0.452221 0.655377 -0.205580
C36   C     C_R   0.009086 0.547776 0.344623 -0.205578
C37   C     C_R   0.888522 0.452762 0.655473 -0.220534
C38   C     C_R   0.111478 0.547236 0.344526 -0.220540
C39   C     C_R   0.400222 0.500469 0.770311 -0.049569
C40   C     C_R   0.599777 0.499516 0.229689 -0.049572
C41   C     C_R   0.263992 0.485502 0.913546 -0.202385
C42   C     C_R   0.736010 0.514432 0.086449 -0.202381
C43   C     C_R   0.295559 0.489100 0.820523 -0.203300
C44   C     C_R   0.704443 0.510855 0.179473 -0.203301
C45   C     C_R   0.472417 0.509439 0.813872 -0.256912
C46   C     C_R   0.527577 0.490555 0.186131 -0.256921
C47   C     C_R   0.443653 0.501623 0.907351 0.075136
C48   C     C_R   0.556343 0.498334 0.092648 0.075143
C49   C     C_R   0.337030 0.491054 0.957161 0.166701
C50   C     C_R   0.662970 0.508882 0.042835 0.166708
C51   C     C_R   0.517538 0.503275 0.952382 0.069131
C52   C     C_R   0.482459 0.496670 0.047618 0.069130
Cu1   Cu    Cu3+1 0.402580 0.500010 0.499990 0.947860
Cu2   Cu    Cu3+1 0.597420 0.499990 0.500010 0.947859
H1    H     H_    0.222400 0.479696 0.088788 0.141095
H2    H     H_    0.777603 0.520197 0.911205 0.141090
H3    H     H_    0.297759 0.543945 0.364884 0.147729
H4    H     H_    0.702241 0.456054 0.635116 0.147733
H5    H     H_    0.005600 0.433696 0.716105 0.132236
H6    H     H_    0.994401 0.566301 0.283894 0.132238
H7    H     H_    0.826582 0.434968 0.716418 0.131874
H8    H     H_    0.173419 0.565028 0.283580 0.131879
H9    H     H_    0.448919 0.478428 0.227358 0.149265
H10   H     H_    0.551067 0.521610 0.772650 0.149263
H11   H     H_    0.761653 0.517419 0.211943 0.144439
H12   H     H_    0.238352 0.482529 0.788050 0.144436
H13   H     H_    0.182510 0.477084 0.951457 0.129931
H14   H     H_    0.817495 0.522830 0.048535 0.129931
H15   H     H_    0.429964 0.226595 0.402832 0.152082
H16   H     H_    0.570032 0.773405 0.597169 0.152080
N1    N     N_R   0.256170 0.500070 0.500040 -0.181662
N2    N     N_R   0.743830 0.499930 0.499960 -0.181663
O1    O     O_R   0.417730 0.629750 0.499970 -0.564901
O2    O     O_R   0.582270 0.370250 0.500030 -0.564901
O3    O     O_R   0.582270 0.629730 0.499980 -0.580389
O4    O     O_R   0.417730 0.370270 0.500020 -0.580388
O5    O     O_R   0.371590 0.500020 0.629830 -0.596777
O6    O     O_R   0.628410 0.499980 0.370170 -0.596777
O7    O     O_R   0.536130 0.499990 0.629840 -0.594071
O8    O     O_R   0.463870 0.500010 0.370160 -0.594072
H17   H     H_    0.194087 0.455844 0.634908 0.123924
H18   H     H_    0.805913 0.544155 0.365092 0.123926
H19   H     H_    0.341016 0.487109 0.166358 0.136036
H20   H     H_    0.658981 0.512785 0.833638 0.136026
C53   C     C_R   0.576470 0.230257 0.628090 0.118162
C54   C     C_R   0.682733 0.236094 0.614115 -0.116023
C55   C     C_R   0.716130 0.271381 0.680451 -0.170725
C56   C     C_R   0.643821 0.301807 0.760515 -0.145449
C57   C     C_R   0.537971 0.296729 0.774392 -0.117963
C58   C     C_R   0.504199 0.261519 0.708239 -0.156291
H21   H     H_    0.739261 0.211364 0.552927 0.130420
H22   H     H_    0.798058 0.274497 0.670001 0.142519
H23   H     H_    0.669770 0.328804 0.811963 0.135321
H24   H     H_    0.482000 0.319025 0.836883 0.146066
H25   H     H_    0.421970 0.256542 0.720273 0.120922
C59   C     C_R   0.423543 0.769742 0.371901 0.118161
C60   C     C_R   0.495821 0.738477 0.291758 -0.156292
C61   C     C_R   0.462059 0.703261 0.225602 -0.117976
C62   C     C_R   0.356212 0.698179 0.239471 -0.145439
C63   C     C_R   0.283895 0.728608 0.319529 -0.170727
C64   C     C_R   0.317282 0.763902 0.385868 -0.116027
H26   H     H_    0.578048 0.743456 0.279731 0.120920
H27   H     H_    0.518036 0.680962 0.163115 0.146064
H28   H     H_    0.330271 0.671174 0.188021 0.135322
H29   H     H_    0.201970 0.725489 0.329972 0.142516
H30   H     H_    0.260749 0.788633 0.447051 0.130421
H31   H     H_    0.391792 0.091306 0.340706 0.145212
H32   H     H_    0.608206 0.908694 0.659293 0.145212
H33   H     H_    0.391880 0.931534 0.334444 0.163082
H34   H     H_    0.608121 0.068465 0.665554 0.163084

loop_
_geom_bond_atom_site_label_1
_geom_bond_atom_site_label_2
_ccdc_geom_bond_type
C55   C56   A    
C27   C29   A    
C18   C21   A    
C26   N2    A    
C8    C59   S    
C60   C61   A    
C27   N1    A    
C58   H25   S    
C41   H13   S    
Cu1   Cu2   S    
C40   C46   A    
C63   H29   S    
C25   H3    S    
C19   C21   A    
C54   H21   S    
C61   H27   S    
C34   C37   A    
Cu2   O6    S    
C35   H5    S    
C57   H24   S    
Cu2   O2    S    
C26   C34   A    
C47   C51   A    
C62   C63   A    
C22   H34   S    
C31   C33   A    
C25   N1    A    
C60   H26   S    
C2    O2    A    
C39   C45   A    
C48   C50   A    
C62   H28   S    
C59   C64   A    
C42   H14   S    
C41   C43   A    
C5    C49   A    
C44   H11   S    
C28   N2    A    
C42   C44   A    
C41   C49   A    
C24   O8    A    
C45   C47   A    
C46   C48   A    
C13   C19   A    
C4    C51   A    
C28   H18   S    
C51   C52   A    
C1    O3    A    
C14   C20   A    
C27   H17   S    
Cu1   O8    S    
C4    C6    A    
C54   C55   A    
C39   C43   A    
C36   H6    S    
C53   C54   A    
C6    C50   A    
C38   H8    S    
C32   C34   A    
Cu1   O5    S    
C26   H4    S    
C21   H33   S    
C31   C32   A    
C4    H20   S    
C40   C44   A    
C3    C52   A    
C59   C60   A    
C16   C18   A    
C23   O5    A    
C9    C11   A    
C10   C12   A    
C42   C50   A    
C24   O6    A    
C12   C14   A    
C13   C15   A    
C3    H19   S    
C14   C16   A    
Cu1   O4    S    
C20   C22   A    
Cu1   N1    S    
C2    O4    A    
Cu2   O7    S    
C64   H30   S    
C15   C17   A    
C12   H16   S    
C56   H23   S    
C35   C37   A    
C5    H1    S    
Cu1   O1    S    
C1    C10   S    
C33   C38   A    
C6    H2    S    
C3    C5    A    
C7    C17   A    
C37   H7    S    
C53   C58   A    
C11   H15   S    
C47   C49   A    
C29   C35   A    
C45   H10   S    
C17   C22   A    
C30   C36   A    
C46   H9    S    
C1    O1    A    
C28   C30   A    
C29   C31   A    
C30   C32   A    
C11   C13   A    
C7    C53   S    
C43   H12   S    
C23   C39   S    
C36   C38   A    
C63   C64   A    
C24   C40   S    
C8    C18   A    
Cu2   O3    S    
C7    C9    A    
C48   C52   A    
Cu2   N2    S    
C56   C57   A    
C8    C10   A    
C61   C62   A    
C23   O7    A    
C57   C58   A    
C55   H22   S    
C2    C9    S    
C15   C16   A    
C25   C33   A    
C20   H32   S    
C19   H31   S    
