data_mof_unit_17763.cif
_audit_creation_date              2013-03-05T15:52:31-0500
_audit_creation_method            fapswitch 2.2
_symmetry_space_group_name_H-M    P1
_symmetry_Int_Tables_number       1
_space_group_crystal_system       triclinic
_cell_length_a                    6.955321
_cell_length_b                    20.466199
_cell_length_c                    24.432245
_cell_angle_alpha                 89.716779
_cell_angle_beta                  90.307992
_cell_angle_gamma                 89.587331
_cell_volume                      3477.7216299

loop_
_atom_site_label
_atom_site_type_symbol
_atom_site_description
_atom_site_fract_x
_atom_site_fract_y
_atom_site_fract_z
_atom_type_partial_charge
O1    O     O_R   0.507310 0.423620 0.460450 -0.591306
O2    O     O_R   0.170760 0.556060 0.437190 -0.583986
O3    O     O_R   0.004040 0.576380 0.539550 -0.589420
C1    C     C_R   0.339024 0.576156 0.421280 0.968811
O4    O     O_R   0.177350 0.422870 0.454070 -0.591507
O5    O     O_R   0.010680 0.442240 0.556560 -0.572037
C2    C     C_R   0.346283 0.398956 0.443439 0.932081
O6    O     O_R   0.500670 0.557760 0.443440 -0.587539
O7    O     O_3   0.340380 0.506510 0.533610 -0.261638
V1    V     V_3+5 0.064130 0.498790 0.493770 1.205192
O8    O     O_R   0.681170 0.443940 0.562810 -0.585459
C3    C     C_R   0.850426 0.423819 0.578600 0.960542
O9    O     O_R   0.674570 0.577130 0.545930 -0.591063
C4    C     C_R   0.842712 0.601072 0.556574 0.931778
V2    V     V_3+5 0.564560 0.501210 0.506230 1.202906
O10   O     O_3   0.838170 0.493490 0.466390 -0.269335
C5    C     C_R   0.976269 0.838348 0.911019 -0.102574
C6    C     C_R   0.847727 0.661791 0.588774 -0.110702
C7    C     C_R   0.038796 0.722264 0.905751 -0.160623
C8    C     C_R   0.030239 0.779568 0.936052 -0.160484
C9    C     C_R   0.931429 0.839583 0.854792 -0.238190
C10   C     C_R   0.942338 0.781777 0.822516 0.111835
C11   C     C_R   0.996745 0.722844 0.849497 0.166440
C12   C     C_R   0.903804 0.780328 0.764636 0.055341
C13   C     C_R   0.920322 0.719957 0.735095 0.052959
C14   C     C_R   0.974259 0.663104 0.764438 -0.176698
C15   C     C_R   0.011161 0.664709 0.820286 -0.213508
C16   C     C_R   0.849940 0.837188 0.735281 -0.183740
C17   C     C_R   0.813056 0.835561 0.679420 -0.214105
C18   C     C_R   0.827403 0.777397 0.650220 0.164236
C19   C     C_R   0.881752 0.718479 0.677225 0.111523
C20   C     C_R   0.785370 0.777913 0.593957 -0.153805
C21   C     C_R   0.793859 0.720561 0.563692 -0.141426
C22   C     C_R   0.892572 0.660635 0.644992 -0.232045
H1    H     H_    0.052714 0.619679 0.840874 0.153482
H2    H     H_    0.930761 0.613743 0.662220 0.114097
H3    H     H_    0.757128 0.721927 0.520540 0.122791
H4    H     H_    0.771567 0.880591 0.658819 0.149167
H5    H     H_    0.081064 0.677310 0.926301 0.127240
H6    H     H_    0.067021 0.778159 0.979199 0.112882
H7    H     H_    0.893166 0.886485 0.837584 0.109849
H8    H     H_    0.990025 0.616068 0.745422 0.150801
H9    H     H_    0.834264 0.884234 0.754299 0.146674
H10   H     H_    0.743177 0.822854 0.573372 0.130025
C23   C     C_3   0.774204 0.257289 0.801708 -0.366590
C24   C     C_3   0.125099 0.244837 0.783144 -0.537730
C25   C     C_3   0.113762 0.292607 0.731816 0.216328
H11   H     H_    0.761706 0.357190 0.767997 0.215284
H12   H     H_    0.809175 0.284842 0.839594 0.179803
H13   H     H_    0.248033 0.210056 0.780923 0.218414
H14   H     H_    0.153683 0.272559 0.821343 0.207111
C26   C     C_1   0.861849 0.378117 0.624087 -0.188266
C27   C     C_3   0.935248 0.206163 0.790303 0.241014
C28   C     C_3   0.751912 0.306165 0.753308 -0.274331
C29   C     C_3   0.901149 0.291588 0.707720 0.132421
C30   C     C_3   0.855611 0.220902 0.687967 -0.536121
C31   C     C_3   0.894883 0.170245 0.734943 -0.210064
C32   C     C_1   0.876201 0.339373 0.661766 0.055735
C33   C     C_1   0.952611 0.159297 0.837154 -0.031783
C34   C     C_1   0.963246 0.121209 0.875393 -0.258881
H15   H     H_    0.028407 0.142971 0.724115 0.175041
H16   H     H_    0.703679 0.218711 0.673761 0.229117
H17   H     H_    0.634862 0.232797 0.809390 0.189697
H18   H     H_    0.604292 0.301910 0.736216 0.189749
H19   H     H_    0.943432 0.207994 0.651634 0.178276
C35   C     C_3   0.594860 0.701482 0.266067 0.251518
C36   C     C_3   0.236167 0.697385 0.245814 -0.288543
C37   C     C_3   0.263388 0.746911 0.197994 -0.379887
H20   H     H_    0.648842 0.722993 0.178242 0.203274
H21   H     H_    0.088775 0.702289 0.262527 0.201621
H22   H     H_    0.243968 0.646728 0.230041 0.214577
H23   H     H_    0.286952 0.719703 0.159254 0.175558
H24   H     H_    0.129414 0.776365 0.192593 0.171382
C38   C     C_1   0.474989 0.878417 0.124682 -0.288665
C39   C     C_3   0.388982 0.708112 0.291577 0.076542
C40   C     C_3   0.618860 0.749821 0.216783 -0.513252
C41   C     C_3   0.435942 0.792862 0.209060 0.347598
C42   C     C_3   0.397094 0.829590 0.263418 -0.465392
C43   C     C_3   0.371360 0.780451 0.312185 -0.249718
C44   C     C_1   0.459871 0.840074 0.162707 -0.040754
C45   C     C_1   0.364580 0.660330 0.337658 0.006992
C46   C     C_1   0.349280 0.621758 0.375493 -0.206082
H25   H     H_    0.492261 0.788772 0.341441 0.113227
H26   H     H_    0.519744 0.862511 0.272551 0.163950
H27   H     H_    0.700478 0.716012 0.298158 0.086358
H28   H     H_    0.745346 0.781588 0.224398 0.175539
H29   H     H_    0.268272 0.861631 0.258144 0.188939
C47   C     C_R   0.471577 0.161712 0.088873 -0.099773
C48   C     C_R   0.352972 0.338278 0.411242 -0.104473
C49   C     C_R   0.524156 0.278122 0.093720 -0.160226
C50   C     C_R   0.518159 0.220699 0.063539 -0.160327
C51   C     C_R   0.431613 0.160391 0.145255 -0.242163
C52   C     C_R   0.439879 0.218332 0.177385 0.112153
C53   C     C_R   0.486715 0.277477 0.150120 0.164350
C54   C     C_R   0.405739 0.219725 0.235378 0.063617
C55   C     C_R   0.418893 0.280255 0.264756 0.049168
C56   C     C_R   0.465258 0.337327 0.235142 -0.176470
C57   C     C_R   0.498022 0.335769 0.179181 -0.212539
C58   C     C_R   0.359527 0.162647 0.265003 -0.193791
C59   C     C_R   0.326915 0.164196 0.320974 -0.231578
C60   C     C_R   0.338145 0.222493 0.350031 0.181034
C61   C     C_R   0.384732 0.281649 0.322746 0.110501
C62   C     C_R   0.300918 0.221843 0.406448 -0.169285
C63   C     C_R   0.306816 0.279277 0.436619 -0.163439
C64   C     C_R   0.392758 0.339603 0.354854 -0.233703
H30   H     H_    0.533768 0.380970 0.158377 0.154621
H31   H     H_    0.425223 0.386665 0.337432 0.114175
H32   H     H_    0.274202 0.277786 0.479929 0.117430
H33   H     H_    0.291358 0.118987 0.341791 0.137484
H34   H     H_    0.560613 0.323246 0.072943 0.127494
H35   H     H_    0.551007 0.222191 0.020249 0.113392
H36   H     H_    0.398791 0.113349 0.162656 0.100784
H37   H     H_    0.478087 0.384500 0.254026 0.152493
H38   H     H_    0.346836 0.115468 0.246122 0.131450
H39   H     H_    0.264728 0.176707 0.427245 0.124668
O11   O     O_R   0.323590 0.942280 0.056590 -0.590931
O12   O     O_R   0.647030 0.077140 0.045940 -0.591714
O13   O     O_R   0.813570 0.057750 0.943430 -0.588583
C65   C     C_R   0.478129 0.101044 0.056636 0.924244
O14   O     O_R   0.653510 0.943950 0.062820 -0.590461
O15   O     O_R   0.820100 0.923600 0.960440 -0.589471
C66   C     C_R   0.485238 0.923874 0.078759 0.975579
O16   O     O_R   0.317060 0.076430 0.039590 -0.589588
O17   O     O_3   0.483830 0.993520 0.966410 -0.268131
V3    V     V_3+5 0.760140 0.001200 0.006230 1.168568
O18   O     O_R   0.149560 0.922820 0.954030 -0.589842
C67   C     C_R   0.981360 0.898987 0.943298 0.928639
O19   O     O_R   0.143080 0.056020 0.937150 -0.588033
C68   C     C_R   0.973859 0.076051 0.921293 0.978551
V4    V     V_3+5 0.259690 0.998730 0.993720 1.172979
O20   O     O_3   0.986120 0.006480 0.033580 -0.273701
N1    N     N_R   0.165947 0.359427 0.749785 0.227843
O21   O     O_R   0.306190 0.391243 0.727003 -0.388453
O22   O     O_R   0.082941 0.385835 0.791950 -0.419334
C69   C     C_2   0.252676 0.270513 0.686423 0.925127
O23   O     O_2   0.329549 0.216644 0.687897 -0.647508
O24   O     O_R   0.284983 0.311286 0.641268 -0.767869
H40   H     H_    0.377650 0.291452 0.613981 0.313793
C70   C     C_2   0.737964 0.119509 0.738535 1.050751
O25   O     O_2   0.573766 0.135230 0.750511 -0.622568
O26   O     O_R   0.782868 0.054005 0.728355 -0.814694
H41   H     H_    0.667468 0.024371 0.732200 0.321130
N2    N     N_R   0.641835 0.634050 0.250317 0.242067
O27   O     O_R   0.773308 0.601700 0.277407 -0.410220
O28   O     O_R   0.564262 0.607445 0.207346 -0.411028
C71   C     C_2   0.187475 0.794193 0.343358 1.049206
O29   O     O_2   0.193552 0.800274 0.393108 -0.654702
O30   O     O_R   0.012164 0.801184 0.315570 -0.839146
H42   H     H_    0.901064 0.810687 0.341085 0.311985

loop_
_geom_bond_atom_site_label_1
_geom_bond_atom_site_label_2
_geom_bond_distance
_ccdc_geom_bond_type
C42   H29   1.113065 S    
C13   C19   1.438217 A    
C18   C20   1.403806 A    
C29   C30   1.561393 S    
C52   C53   1.419563 A    
C55   C61   1.438262 A    
C54   C55   1.438033 A    
C4    C6    1.474598 S    
O2    C1    1.303908 A    
C7    C8    1.391086 A    
C1    O6    1.297802 A    
O19   C68   1.300021 A    
C35   H27   1.114474 S    
C45   C46   1.218218 T    
C27   C33   1.493622 S    
C69   O23   1.222123 D    
C41   C42   1.553285 S    
H11   C28   1.108349 S    
C64   H31   1.077024 S    
C14   C15   1.387643 A    
O18   C67   1.296723 A    
O11   C66   1.297952 A    
H20   C40   1.112298 S    
C10   C12   1.438384 A    
C16   C17   1.387953 A    
N2    O27   1.301180 A    
O15   C67   1.298528 A    
O12   C65   1.297691 A    
O5    C3    1.298064 A    
C18   C19   1.419552 A    
C8    H6    1.083634 S    
C54   C58   1.411157 A    
C53   C57   1.393814 A    
C30   H19   1.112081 S    
C2    C48   1.473905 S    
C56   C57   1.387808 A    
C5    C8    1.394973 A    
C30   C31   1.564453 S    
C31   C70   1.514464 S    
C61   C64   1.426549 A    
C69   O24   1.400090 S    
C50   H35   1.083619 S    
C59   C60   1.393815 A    
C28   C29   1.555073 S    
O8    V2    1.975052 S    
C47   C51   1.406941 A    
N1    O21   1.302568 A    
C17   H4    1.084422 S    
O1    V2    1.988252 S    
O13   V3    1.956166 S    
C11   C15   1.393726 A    
O7    V1    2.156391 S    
C22   H2    1.076995 S    
C23   C27   1.554513 S    
C59   H33   1.084416 S    
C60   C62   1.403871 A    
C38   C44   1.218628 T    
O9    C4    1.296792 A    
C58   H38   1.076148 S    
C3    C26   1.450508 S    
O14   C66   1.304042 A    
C49   C53   1.403763 A    
C43   C71   1.517359 S    
C71   O30   1.398516 S    
C26   C32   1.215271 T    
C36   C37   1.556196 S    
C60   C61   1.419559 A    
C12   C13   1.438191 A    
O4    C2    1.297627 A    
C27   C31   1.567586 S    
C42   C43   1.567191 S    
C5    C67   1.474255 S    
C35   N2    1.469541 S    
C15   H1    1.084391 S    
C37   H24   1.113059 S    
C24   H14   1.112341 S    
C23   H17   1.110757 S    
C21   H3    1.083651 S    
O11   V4    1.964556 S    
C62   H39   1.083953 S    
O15   V3    1.990196 S    
C17   C18   1.394073 A    
V3    O20   1.708950 S    
C58   C59   1.387880 A    
C47   C50   1.394951 A    
C23   H12   1.112963 S    
C37   H23   1.112811 S    
C35   C40   1.565021 S    
C55   C56   1.411172 A    
C20   H10   1.083959 S    
C19   C22   1.426858 A    
O17   V4    1.701896 S    
C40   C41   1.552354 S    
C47   C65   1.474210 S    
C6    C22   1.406892 A    
O3    C4    1.298606 A    
C7    H5    1.083964 S    
C9    H7    1.077089 S    
C38   C66   1.456346 S    
C23   C28   1.551498 S    
O6    V2    1.964213 S    
C65   O16   1.299022 A    
O9    V2    1.991132 S    
C48   C63   1.394962 A    
C30   H16   1.111784 S    
C36   C39   1.555973 S    
C49   H34   1.083957 S    
C56   H37   1.076162 S    
O2    V1    1.960191 S    
C40   H28   1.113075 S    
C63   H32   1.083723 S    
C14   H8    1.076106 S    
C25   C29   1.589038 S    
C71   O29   1.223000 D    
C41   C44   1.495801 S    
C37   C41   1.553454 S    
N2    O28   1.301403 A    
C24   C25   1.587592 S    
C25   C69   1.542128 S    
O1    C2    1.298895 A    
C51   H36   1.077013 S    
C12   C16   1.411229 A    
O19   V4    1.975123 S    
C34   C68   1.450896 S    
O5    V1    1.956000 S    
C70   O25   1.221738 D    
C31   H15   1.113871 S    
C39   C45   1.498749 S    
O24   H40   1.013998 S    
C24   H13   1.110344 S    
C16   H9    1.076265 S    
C57   H30   1.084425 S    
C25   N1    1.485269 S    
C36   H21   1.109589 S    
C20   C21   1.391427 A    
V4    O20   2.147372 S    
C13   C14   1.411096 A    
O4    V1    1.995173 S    
O16   V4    1.991476 S    
O3    V1    1.990078 S    
V1    O10   1.709136 S    
O26   H41   1.013988 S    
C43   H25   1.115278 S    
C70   O26   1.398120 S    
C49   C50   1.391264 A    
C52   C54   1.438302 A    
C28   H18   1.110497 S    
C35   C39   1.570025 S    
C24   C27   1.554640 S    
C51   C52   1.426688 A    
O14   V3    1.960119 S    
C36   H22   1.108905 S    
O30   H42   1.013784 S    
O7    V2    1.702941 S    
C6    C21   1.395138 A    
C5    C9    1.407147 A    
C42   H26   1.113199 S    
C7    C11   1.403626 A    
C33   C34   1.215390 T    
C1    C46   1.455700 S    
N1    O22   1.301590 A    
C29   C32   1.493901 S    
C48   C64   1.406820 A    
C62   C63   1.391308 A    
O13   C68   1.298551 A    
O18   V4    1.991172 S    
C10   C11   1.419642 A    
C9    C10   1.426826 A    
O12   V3    1.995310 S    
C39   C43   1.570314 S    
V2    O10   2.147351 S    
O8    C3    1.300325 A    
O17   V3    2.156479 S    
