data_mof_unit_55047.cif
_audit_creation_date              2013-03-05T16:14:26-0500
_audit_creation_method            fapswitch 2.2
_symmetry_space_group_name_H-M    P1
_symmetry_Int_Tables_number       1
_space_group_crystal_system       triclinic
_cell_length_a                    8.445629
_cell_length_b                    17.366721
_cell_length_c                    27.115561
_cell_angle_alpha                 99.60004
_cell_angle_beta                  92.948258
_cell_angle_gamma                 81.349151
_cell_volume                      3875.39204663

loop_
_atom_site_label
_atom_site_type_symbol
_atom_site_description
_atom_site_fract_x
_atom_site_fract_y
_atom_site_fract_z
_atom_type_partial_charge
P1    P     P_3+3 0.071770 0.565500 0.613330 0.562606
O1    O     O_2   0.906370 0.542040 0.619810 -0.278668
O2    O     O_3   0.138370 0.541980 0.559630 -0.434063
O3    O     O_3   0.686580 0.398330 0.583860 -0.419488
O4    O     O_2   0.807171 0.439868 0.674917 -0.357251
O5    O     O_3   0.042080 0.668957 0.631305 -0.629614
O6    O     O_3   0.725269 0.299962 0.657699 -0.552871
H1    H     H_    0.674349 0.254225 0.583842 0.059884
C1    C     C_3   0.682966 0.165131 0.630204 0.071050
H2    H     H_    0.811118 0.143101 0.622151 0.075407
P2    P     P_3+3 0.664870 0.318630 0.453960 0.568049
P3    P     P_3+3 0.140589 0.255054 0.545302 0.448100
O7    O     O_2   0.844570 0.306830 0.467970 -0.376370
O8    O     O_3   0.101900 0.357890 0.557750 -0.351043
O9    O     O_2   0.977898 0.223957 0.533600 -0.440855
O10   O     O_3   0.650282 0.305497 0.388790 -0.576619
O11   O     O_3   0.208551 0.222334 0.601620 -0.584867
C2    C     C_3   0.120703 0.268827 0.641804 0.893956
H3    H     H_    0.995069 0.288456 0.630267 0.096969
C3    C     C_3   0.112518 0.219815 0.683702 -0.066943
H4    H     H_    0.029717 0.175649 0.671624 0.120564
C4    C     C_3   0.164756 0.275081 0.387513 0.861030
H5    H     H_    0.111626 0.298442 0.424810 -0.000613
C5    C     C_3   0.078999 0.202498 0.363352 0.930088
Ba1   Ba    Ba6+2 0.860160 0.462360 0.521850 1.634979
C6    C     C_3   0.010749 0.711441 0.591186 0.896541
H6    H     H_    0.059932 0.678831 0.555280 0.091250
C7    C     C_3   0.081848 0.789235 0.603786 -0.121921
H7    H     H_    0.053348 0.817274 0.642930 0.099113
H8    H     H_    0.212825 0.777874 0.600662 0.148913
C8    C     C_3   0.712937 0.364028 0.369579 0.972605
H9    H     H_    0.840631 0.363558 0.381752 -0.134152
C9    C     C_3   0.705067 0.344108 0.311900 0.065442
H10   H     H_    0.814981 0.359308 0.296551 0.071960
H11   H     H_    0.706396 0.278666 0.300694 0.074463
P4    P     P_3+3 0.117940 0.434440 0.386660 0.538946
O12   O     O_2   0.283330 0.457940 0.380160 -0.254071
O13   O     O_3   0.051340 0.457960 0.440360 -0.402105
O14   O     O_3   0.503130 0.601610 0.416130 -0.399829
O15   O     O_3   0.141865 0.334189 0.356382 -0.615291
P5    P     P_3+3 0.049850 0.743138 0.441172 0.477256
O16   O     O_3   0.616890 0.595000 0.528820 -0.356827
O17   O     O_3   0.087820 0.642040 0.442240 -0.393056
O18   O     O_2   0.173991 0.780776 0.477696 -0.401745
O19   O     O_3   0.093707 0.763718 0.382391 -0.582022
Ba2   Ba    Ba6+2 0.329680 0.537570 0.478140 1.620822
P6    P     P_3+3 0.670411 0.397930 0.647977 0.428771
C10   C     C_3   0.641254 0.250956 0.622483 0.219695
H12   H     H_    0.510301 0.267670 0.626734 0.095221
H13   H     H_    0.610264 0.128519 0.603210 0.132166
O20   O     O_3   0.572820 0.404940 0.471170 -0.353823
C11   C     C_3   0.511696 0.716610 0.644501 1.160144
C12   C     C_3   0.458988 0.788902 0.686392 0.732993
H14   H     H_    0.342878 0.817798 0.672140 -0.064655
P7    P     P_3+3 0.529229 0.696068 0.542158 0.571612
O21   O     O_2   0.345130 0.693150 0.532000 -0.366621
O22   O     O_3   0.540721 0.750928 0.602976 -0.601157
H15   H     H_    0.062016 0.259138 0.717916 0.112884
C13   C     C_3   0.027278 0.712595 0.343418 0.778792
H16   H     H_    0.089338 0.651292 0.342607 0.086596
C14   C     C_3   0.049266 0.738926 0.293078 0.038103
H17   H     H_    0.964849 0.712780 0.264432 0.136298
H18   H     H_    0.012645 0.803950 0.297018 0.131637
P8    P     P_3+3 0.523686 0.591004 0.350938 0.519859
C15   C     C_3   0.488558 0.743326 0.370927 0.479375
H19   H     H_    0.603355 0.735815 0.392285 0.044582
O23   O     O_2   0.381493 0.549922 0.327326 -0.368629
O24   O     O_3   0.485091 0.682137 0.330206 -0.482405
H20   H     H_    0.389316 0.744976 0.396534 0.130332
H21   H     H_    0.556135 0.816583 0.319950 0.266653
C16   C     C_3   0.470938 0.820980 0.350692 -0.866197
H22   H     H_    0.498149 0.869401 0.380572 0.221044
H23   H     H_    0.346450 0.835687 0.335966 0.289690
C17   C     C_R   0.046862 0.449520 0.180156 0.500768
O25   O     O_2   0.094066 0.392344 0.200627 -0.601389
N1    N     N_R   0.950159 0.513908 0.205720 -0.171000
C18   C     C_R   0.890614 0.577042 0.181274 0.524191
C19   C     C_2   0.754232 0.535109 0.272758 -0.129346
C20   C     C_3   0.715285 0.531367 0.326038 0.329240
C21   C     C_1   0.995491 0.494324 0.344306 0.250231
C22   C     C_2   0.034923 0.492331 0.296870 -0.221800
C23   C     C_2   0.908489 0.514522 0.257801 0.075792
C24   C     C_R   0.033915 0.513273 0.105462 -0.149702
C25   C     C_R   0.089180 0.448261 0.130084 -0.013014
C26   C     C_R   0.180893 0.381555 0.103488 -0.112461
C27   C     C_R   0.931155 0.577974 0.130968 -0.167458
C28   C     C_2   0.860105 0.536842 0.360585 -0.480548
H24   H     H_    0.158551 0.474693 0.286094 0.198580
H25   H     H_    0.219034 0.329146 0.120415 0.165508
C29   C     C_2   0.361437 0.499495 0.647341 -0.653408
C30   C     C_R   0.233451 0.446931 0.980296 -0.156018
C31   C     C_R   0.059027 0.574412 0.978581 0.113253
C32   C     C_R   0.162849 0.508473 0.953840 0.049186
C33   C     C_R   0.354147 0.388328 0.955561 0.473848
C34   C     C_R   0.371846 0.380718 0.903982 -0.110992
C35   C     C_R   0.294278 0.438030 0.876671 -0.157430
C36   C     C_R   0.198452 0.504549 0.902227 -0.065885
C37   C     C_R   0.139063 0.567154 0.876191 -0.033339
C38   C     C_R   0.179872 0.563212 0.825573 0.508595
N2    N     N_R   0.263412 0.494693 0.799392 -0.163934
C39   C     C_R   0.317385 0.431726 0.824703 0.573498
C40   C     C_2   0.444819 0.457271 0.728578 -0.228180
C41   C     C_3   0.464657 0.438820 0.672978 0.207423
C42   C     C_1   0.210795 0.522130 0.661104 0.302636
C43   C     C_2   0.169119 0.516541 0.707626 0.504704
C44   C     C_2   0.296859 0.488868 0.745965 -0.021359
O26   O     O_2   0.384531 0.369551 0.801990 -0.596681
C45   C     C_R   0.182195 0.446530 0.029881 0.075759
C46   C     C_R   0.079068 0.512507 0.054956 0.103270
C47   C     C_R   0.018020 0.576656 0.029614 0.015373
C48   C     C_R   0.221790 0.379791 0.054199 -0.216555
H26   H     H_    0.543263 0.439187 0.753430 0.188662
H27   H     H_    0.458442 0.332879 0.886077 0.193267
H28   H     H_    0.280467 0.323839 0.035243 0.188110
O27   O     O_2   0.802959 0.633029 0.203495 -0.540640
C49   C     C_R   0.869842 0.641580 0.105437 0.617790
H29   H     H_    0.657077 0.547220 0.246085 0.149073
C50   C     C_R   0.000971 0.636216 0.951081 -0.206634
C51   C     C_R   0.041644 0.632920 0.901473 -0.105084
O28   O     O_2   0.141537 0.621073 0.805018 -0.587977
C52   C     C_R   0.913396 0.640089 0.055853 -0.392598
H30   H     H_    0.923981 0.688959 0.966617 0.129583
H31   H     H_    0.993798 0.682194 0.882622 0.163246
H32   H     H_    0.860972 0.689924 0.038619 0.133652
H33   H     H_    0.852201 0.572274 0.397572 0.169761
H34   H     H_    0.412883 0.526360 0.619913 0.203823
C53   C     C_2   0.409169 0.275711 0.496956 0.287390
C54   C     C_3   0.289373 0.218458 0.495225 0.103175
C55   C     C_2   0.369710 0.136969 0.500125 -0.208757
C56   C     C_2   0.527214 0.114974 0.491243 0.134994
C57   C     C_2   0.625927 0.175985 0.481958 -0.440864
C58   C     C_1   0.558261 0.249987 0.480923 0.246521
C59   C     C_R   0.772034 0.860594 0.460270 0.451134
C60   C     C_R   0.844558 0.782312 0.462565 0.232221
C61   C     C_R   0.607646 0.756601 0.501553 0.362741
C62   C     C_R   0.538762 0.835033 0.501466 -0.357056
C63   C     C_R   0.617852 0.886927 0.480116 -0.224172
C64   C     C_2   0.604577 0.032513 0.493301 -0.168340
C65   C     C_2   0.532723 0.967869 0.476672 0.580803
C66   C     C_R   0.759567 0.730827 0.481721 -0.443879
H35   H     H_    0.752581 0.158554 0.474716 0.202243
H36   H     H_    0.725310 0.025294 0.509140 0.087454
H37   H     H_    0.296338 0.096202 0.510365 0.194882
H38   H     H_    0.424642 0.856330 0.519019 0.187832
H39   H     H_    0.815907 0.671265 0.484020 0.166589
O29   O     O_3   0.089356 0.192675 0.310439 -0.771315
H40   H     H_    0.087232 0.135731 0.296080 0.331121
O30   O     O_3   0.153179 0.133698 0.381659 -0.772976
H41   H     H_    0.122859 0.139026 0.417187 0.313065
O31   O     O_3   0.916547 0.215114 0.375301 -0.814254
H42   H     H_    0.865882 0.170706 0.355707 0.321798
O32   O     O_3   0.846249 0.729644 0.585464 -0.731360
H43   H     H_    0.809750 0.765613 0.616489 0.355147
O33   O     O_3   0.017775 0.841143 0.571090 -0.715866
H44   H     H_    0.072814 0.888584 0.579922 0.332428
O34   O     O_3   0.621895 0.437172 0.385748 -0.671715
H45   H     H_    0.687208 0.466234 0.411931 0.291875
O35   O     O_3   0.567379 0.388637 0.292640 -0.566708
C67   C     C_3   0.519449 0.349235 0.245267 -0.118355
H46   H     H_    0.440317 0.304933 0.250326 0.149155
H47   H     H_    0.623463 0.320045 0.221249 0.111587
H48   H     H_    0.447408 0.393801 0.225071 0.166441
O36   O     O_3   0.390398 0.668557 0.632172 -0.843322
H49   H     H_    0.326665 0.671454 0.662260 0.263239
O37   O     O_3   0.658273 0.673275 0.658368 -0.641941
C68   C     C_3   0.640045 0.619204 0.690368 -0.084487
H50   H     H_    0.529845 0.631507 0.712384 0.113872
H51   H     H_    0.742625 0.617134 0.717371 0.203688
H52   H     H_    0.641168 0.561388 0.667132 0.196908
O38   O     O_3   0.439524 0.765323 0.733348 -0.690560
C69   C     C_3   0.308386 0.813114 0.758692 -0.237039
H53   H     H_    0.193130 0.800505 0.739363 0.138239
H54   H     H_    0.318846 0.877122 0.762224 0.166122
H55   H     H_    0.307295 0.798502 0.796969 0.195006
O39   O     O_3   0.565121 0.846358 0.689976 -0.621726
C70   C     C_3   0.692100 0.835519 0.725437 -0.073026
H56   H     H_    0.756055 0.774200 0.720441 0.155592
H57   H     H_    0.647718 0.853377 0.764184 0.159222
H58   H     H_    0.781074 0.874448 0.720472 0.133523
O40   O     O_3   0.647214 0.156776 0.678826 -0.649398
H59   H     H_    0.738254 0.172467 0.700903 0.346892
O41   O     O_3   0.862965 0.713992 0.349630 -0.832281
H60   H     H_    0.813819 0.770155 0.352475 0.311654
O42   O     O_3   0.211492 0.722099 0.278993 -0.567378
C71   C     C_3   0.234076 0.655530 0.240862 0.001025
H61   H     H_    0.363419 0.642923 0.231732 0.177927
H62   H     H_    0.164347 0.667453 0.206020 0.099381
H63   H     H_    0.200794 0.602141 0.253492 0.090299
O43   O     O_3   0.468992 0.342932 0.980659 -0.760521
H64   H     H_    0.494831 0.375912 0.012801 0.317863
O44   O     O_3   0.764743 0.704649 0.129095 -0.696550
H65   H     H_    0.729884 0.743146 0.105984 0.307795
O45   O     O_3   0.191479 0.336753 0.659763 -0.796772
H66   H     H_    0.297562 0.318985 0.674803 0.310726
O46   O     O_3   0.009918 0.534351 0.719539 -0.713254
H67   H     H_    0.994575 0.511240 0.749633 0.320788
O47   O     O_3   0.379724 0.977040 0.455590 -0.773508
H68   H     H_    0.344085 0.924521 0.447231 0.309704
O48   O     O_3   0.835594 0.906790 0.431484 -0.642223
C72   C     C_3   0.968251 0.938453 0.456331 -0.093870
H69   H     H_    0.078599 0.909632 0.436765 0.194380
H70   H     H_    0.982260 0.933473 0.496845 0.123326
H71   H     H_    0.955423 0.002047 0.453321 0.145326
O49   O     O_3   0.344622 0.354208 0.500312 -0.608086
C73   C     C_3   0.389028 0.393730 0.547405 0.251844
H72   H     H_    0.458878 0.441014 0.544516 0.146514
H73   H     H_    0.433575 0.355011 0.575157 -0.054152
H74   H     H_    0.287586 0.429542 0.564513 0.149786
O50   O     O_3   0.264463 0.178638 0.693967 -0.638849
H75   H     H_    0.317032 0.213508 0.720730 0.366462
O51   O     O_3   0.332077 0.250830 0.395502 -0.678487
C74   C     C_3   0.414241 0.215769 0.350878 -0.007765
H76   H     H_    0.536774 0.189541 0.361602 0.147660
H77   H     H_    0.422635 0.260173 0.326433 0.162256
H78   H     H_    0.365204 0.164172 0.329759 0.145143

loop_
_geom_bond_atom_site_label_1
_geom_bond_atom_site_label_2
_geom_bond_distance
_ccdc_geom_bond_type
C39   O26   1.223409 D    
C7    O33   1.400706 S    
P7    O21   1.571916 D    
C38   N2    1.391032 Am   
C59   C63   1.416053 A    
O37   C68   1.409733 S    
C40   H26   1.085533 S    
C34   C35   1.402876 A    
C69   H53   1.115128 S    
P2    C58   1.856772 S    
C20   C28   1.506632 S    
O3    Ba1   2.753268 S    
C61   C62   1.398694 A    
C12   H14   1.113752 S    
O42   C71   1.413241 S    
O10   C8    1.396925 S    
O14   P8    1.761324 S    
C63   C65   1.494806 S    
C74   H76   1.111032 S    
C6    H6    1.108203 S    
C17   N1    1.386686 Am   
C24   C25   1.413927 A    
C22   H24   1.083842 S    
P8    O24   1.746379 S    
C7    H7    1.113670 S    
C55   C56   1.350113 D    
C21   C28   1.317840 D    
C72   H71   1.109636 S    
C47   C52   1.418091 A    
C50   H30   1.076845 S    
C11   O37   1.416507 S    
P7    C61   1.851081 S    
C71   H62   1.119633 S    
O38   C69   1.413977 S    
P2    Ba1   3.425391 S    
C45   C46   1.426396 A    
C27   C49   1.419061 A    
C2    H3    1.110194 S    
O16   Ba2   2.948699 S    
C14   H18   1.113735 S    
C31   C50   1.421091 A    
O41   H60   0.992964 S    
P5    C60   1.849982 S    
C52   H32   1.077850 S    
C38   O28   1.222957 D    
C50   C51   1.395223 A    
C70   H58   1.110617 S    
O19   C13   1.412688 S    
C67   H46   1.121043 S    
C72   H69   1.105674 S    
P3    O11   1.756556 S    
C67   H47   1.125885 S    
P4    Ba2   3.403551 S    
H21   C16   1.114637 S    
C48   H28   1.081070 S    
C53   O49   1.379855 S    
C29   C42   1.327370 D    
C14   H17   1.113821 S    
C57   H35   1.085713 S    
C70   H57   1.112384 S    
C13   H16   1.110929 S    
C59   O48   1.386568 S    
C35   C39   1.416378 A    
C54   C55   1.498448 S    
C2    O45   1.405911 S    
C68   H51   1.105502 S    
P5    O17   1.741528 S    
O7    Ba1   2.866784 S    
C68   H50   1.105910 S    
C40   C41   1.500813 S    
C42   C43   1.349592 D    
C36   C37   1.409841 A    
C73   H73   1.106119 S    
C61   C66   1.397759 A    
C69   H55   1.109621 S    
C64   H36   1.083680 S    
C13   C14   1.538377 S    
P6    C41   1.890216 S    
C49   C52   1.407151 A    
P1    O5    1.764531 S    
O4    P6    1.544981 D    
P8    O23   1.545130 D    
P4    O15   1.783402 S    
C19   H29   1.085532 S    
C25   C26   1.403922 A    
O50   H75   0.995800 S    
C6    O32   1.384284 S    
C5    O30   1.416749 S    
N1    C23   1.470805 S    
C16   H23   1.113613 S    
C4    O51   1.428693 S    
C26   H25   1.085728 S    
C19   C20   1.512038 S    
C21   C22   1.338769 D    
C71   H63   1.118126 S    
C15   C16   1.523128 S    
Ba2   O20   2.833679 S    
C22   C23   1.518895 S    
O44   H65   0.993935 S    
P1    O2    1.555709 S    
O6    P6    1.754624 S    
C66   H39   1.081974 S    
C13   O41   1.402606 S    
H1    C10   1.110828 S    
Ba1   O20   2.949563 S    
O51   C74   1.424734 S    
Ba1   O13   2.787294 S    
C30   C32   1.425630 A    
C59   C60   1.414602 A    
C69   H54   1.116159 S    
P2    O10   1.743988 S    
C19   C23   1.362153 D    
O39   C70   1.415511 S    
C74   H78   1.103841 S    
O2    Ba1   2.956283 S    
C15   O24   1.401412 S    
C4    O15   1.419909 S    
C35   C36   1.406826 A    
C3    H4    1.112930 S    
C8    C9    1.544672 S    
O11   C2    1.413919 S    
C29   H34   1.081470 S    
C67   H48   1.111092 S    
C33   C34   1.396326 A    
C3    O50   1.410394 S    
N1    C18   1.391648 Am   
C53   C58   1.340311 D    
P1    C42   1.878019 S    
C37   C51   1.401998 A    
O33   H44   0.995073 S    
C1    O40   1.402982 S    
C5    O31   1.402507 S    
C12   O38   1.425300 S    
C68   H52   1.091771 S    
O14   Ba2   2.752683 S    
P3    C54   1.863904 S    
C10   H12   1.107294 S    
C49   O44   1.389547 S    
P3    O8    1.744976 S    
C18   C27   1.426637 A    
C37   C38   1.420385 A    
P3    O9    1.549690 D    
P7    O22   1.767488 S    
P4    C21   1.850038 S    
O35   C67   1.420846 S    
P8    C20   1.876705 S    
C4    C5    1.578954 S    
C3    H15   1.118359 S    
C57   C58   1.329842 D    
P5    O18   1.546213 D    
C32   C36   1.434928 A    
C17   O25   1.222691 D    
C28   H33   1.085187 S    
C9    O35   1.422928 S    
C12   O39   1.426998 S    
O29   H40   1.003050 S    
C1    H2    1.112372 S    
C73   H74   1.058482 S    
O43   H64   0.993395 S    
C43   O46   1.376261 S    
C73   H72   1.095635 S    
P4    O12   1.539333 D    
C14   O42   1.415833 S    
O31   H42   0.999694 S    
C6    C7    1.539984 S    
C30   C45   1.434955 A    
C8    H9    1.110725 S    
C1    H13   1.110421 S    
C17   C25   1.417504 A    
C62   C63   1.410114 A    
C26   C48   1.391801 A    
Ba1   O16   2.834464 S    
C11   O22   1.406886 S    
C65   O47   1.383603 S    
C7    H8    1.099161 S    
C55   H37   1.085164 S    
C51   H31   1.085096 S    
C43   C44   1.539777 S    
O2    Ba2   2.787937 S    
N2    C44   1.474255 S    
C45   C48   1.416211 A    
O6    C10   1.407308 S    
C70   H56   1.109285 S    
C56   C57   1.502476 S    
C33   O43   1.380759 S    
C16   H22   1.108203 S    
C62   H38   1.083293 S    
C24   C46   1.437800 A    
C5    O29   1.421999 S    
C46   C47   1.423112 A    
C30   C33   1.433628 A    
C60   C66   1.403862 A    
P2    O7    1.537126 D    
C31   C47   1.436519 A    
C71   H61   1.113690 S    
O5    C6    1.406108 S    
C34   H27   1.086296 S    
O16   P7    1.784550 S    
C15   H20   1.109708 S    
P1    O1    1.539010 D    
P4    O13   1.555708 S    
C31   C32   1.425651 A    
C9    H11   1.124910 S    
C9    H10   1.120138 S    
C40   C44   1.361226 D    
O1    Ba1   2.820039 S    
C2    C3    1.538936 S    
O30   H41   0.995361 S    
C15   H19   1.105363 S    
O8    Ba1   2.770909 S    
O47   H68   0.990187 S    
O17   Ba2   2.771538 S    
C29   C41   1.503049 S    
O13   Ba2   2.957123 S    
O36   H49   0.990547 S    
P2    O20   1.588202 S    
C64   C65   1.356423 D    
C74   H77   1.109440 S    
C11   O36   1.409461 S    
O46   H67   0.989708 S    
C8    O34   1.397196 S    
O48   C72   1.412686 S    
C24   C27   1.415365 A    
O34   H45   0.993495 S    
O49   C73   1.406485 S    
C1    C10   1.525802 S    
C72   H70   1.115147 S    
O45   H66   0.992697 S    
Ba2   O21   2.867154 S    
P5    O19   1.759532 S    
C4    H5    1.115256 S    
N2    C39   1.393844 Am   
O32   H43   0.993198 S    
O12   Ba2   2.820389 S    
C18   O27   1.220830 D    
Ba1   Ba2   4.625259 S    
P1    Ba1   3.403011 S    
O40   H59   0.992514 S    
C53   C54   1.515476 S    
C11   C12   1.572526 S    
O3    P6    1.752164 S    
C56   C64   1.490739 S    
