data_mof_unit_52040.cif
_audit_creation_date              2012-12-10T19:44:29-0500
_audit_creation_method            fapswitch 2.2
_symmetry_space_group_name_H-M    P1
_symmetry_Int_Tables_number       1
_space_group_crystal_system       triclinic
_cell_length_a                    10.835996
_cell_length_b                    12.418088
_cell_length_c                    13.290056
_cell_angle_alpha                 117.371037
_cell_angle_beta                  76.26512
_cell_angle_gamma                 101.247056
_cell_volume                      1535.05548158

loop_
_atom_site_label
_atom_site_type_symbol
_atom_type_description
_atom_site_fract_x
_atom_site_fract_y
_atom_site_fract_z
_atom_type_partial_charge
C1    C     C_R   0.517707 0.854655 0.286398 0.893125
C2    C     C_R   0.617843 0.841048 0.791928 -0.226555
C3    C     C_R   0.036329 0.954254 0.565973 0.634495
C4    C     C_R   0.129151 0.995913 0.494780 -0.282745
C5    C     C_R   0.092460 0.036087 0.423371 -0.155556
C6    C     C_R   0.963466 0.037570 0.427302 0.621950
C7    C     C_R   0.870959 0.998972 0.500710 -0.304574
C8    C     C_R   0.907604 0.955818 0.569903 -0.114602
C9    C     C_R   0.197386 0.195362 0.356863 -0.070853
C10   C     C_R   0.292881 0.235379 0.286340 -0.034142
C11   C     C_R   0.377895 0.153772 0.201240 -0.206542
C12   C     C_R   0.737013 0.000134 0.500659 0.932533
C13   C     C_R   0.364792 0.032698 0.184357 0.619968
C14   C     C_R   0.268752 0.992858 0.253919 -0.177100
C15   C     C_R   0.186479 0.074751 0.342357 0.130674
C16   C     C_R   0.272054 0.302987 0.006701 0.651667
C17   C     C_R   0.431688 0.230748 0.833390 -0.157639
C18   C     C_R   0.646607 0.799107 0.091483 0.655922
C19   C     C_R   0.682367 0.714065 0.979259 0.577780
C20   C     C_R   0.617932 0.597884 0.938461 -0.373960
C21   C     C_R   0.512905 0.564916 0.008936 0.051919
C22   C     C_R   0.467803 0.656414 0.118866 0.001447
C23   C     C_R   0.473512 0.145365 0.713110 0.766236
C24   C     C_R   0.450400 0.444455 0.973462 0.075852
C25   C     C_R   0.335859 0.421044 0.041415 0.006664
C26   C     C_R   0.284988 0.516397 0.142650 -0.070838
C27   C     C_R   0.350593 0.631747 0.181640 -0.122982
C28   C     C_R   0.499036 0.346413 0.872770 -0.120773
C29   C     C_R   0.316972 0.207883 0.901204 -0.186914
C30   C     C_R   0.540317 0.771169 0.162957 -0.277930
C31   C     C_R   0.684437 0.324447 0.304866 -0.244037
C32   C     C_R   0.322609 0.758765 0.642358 0.021072
C33   C     C_R   0.273547 0.657374 0.662536 -0.286098
C34   C     C_R   0.263048 0.998894 0.498315 0.818058
C35   C     C_R   0.333784 0.550643 0.602455 0.694743
C36   C     C_R   0.451161 0.546520 0.526234 -0.176766
C37   C     C_R   0.492409 0.649815 0.501013 -0.029279
C38   C     C_R   0.523821 0.441380 0.467784 -0.195059
C39   C     C_R   0.621580 0.432163 0.371926 -0.271408
C40   C     C_R   0.659547 0.533227 0.348904 0.629319
C41   C     C_R   0.599048 0.638130 0.411369 0.605350
C42   C     C_R   0.507621 0.346017 0.501896 0.748239
C43   C     C_R   0.660542 0.234398 0.343255 0.745505
C44   C     C_R   0.642263 0.964902 0.815951 0.098597
C45   C     C_R   0.741169 0.002381 0.745676 -0.194893
C46   C     C_R   0.813593 0.916600 0.650635 0.062253
C47   C     C_R   0.790540 0.793107 0.628961 0.728084
C48   C     C_R   0.692916 0.755856 0.699724 -0.193462
Cu1   Cu    Cu3+1 0.529370 0.098270 0.475420 1.106207
Cu2   Cu    Cu3+1 0.470630 0.901730 0.524580 1.009253
H1    H     H_    0.541236 0.810434 0.844846 0.183672
H2    H     H_    0.454352 0.184136 0.148439 0.202229
H3    H     H_    0.260684 0.899310 0.241297 0.125785
H4    H     H_    0.195469 0.501445 0.194077 0.205305
H5    H     H_    0.589123 0.357617 0.820993 0.157063
H6    H     H_    0.651126 0.536810 0.850591 0.194342
H7    H     H_    0.306974 0.702033 0.260656 0.143761
H8    H     H_    0.272248 0.839077 0.686737 0.191956
H9    H     H_    0.184473 0.659648 0.721137 0.217613
H10   H     H_    0.758789 0.097454 0.761767 0.166784
H11   H     H_    0.673860 0.660466 0.681966 0.173861
H12   H     H_    0.133577 0.258624 0.424958 0.183588
N1    N     N_R   0.573890 0.246290 0.438210 -0.331247
N2    N     N_R   0.426890 0.754320 0.561170 -0.193925
O1    O     O_R   0.536940 0.972510 0.318130 -0.499690
O2    O     O_R   0.487330 0.806530 0.359650 -0.537355
O3    O     O_R   0.705160 0.082990 0.479250 -0.502801
O4    O     O_R   0.655550 0.917010 0.520760 -0.538277
O5    O     O_R   0.512670 0.193470 0.640350 -0.523779
O6    O     O_R   0.463060 0.027490 0.681870 -0.636091
O7    O     O_R   0.344450 0.082990 0.479240 -0.570210
O8    O     O_R   0.294840 0.917010 0.520750 -0.554011
F1    F     F_    0.446787 0.954178 0.101920 -0.695962
C49   C     C_2   0.236849 0.090063 0.858719 0.470275
H13   H     H_    0.235212 0.038249 0.767770 0.103247
O9    O     O_2   0.170484 0.050572 0.924946 -0.410382
F2    F     F_    0.161245 0.282664 0.072247 -0.594786
F3    F     F_    0.719702 0.906972 0.131421 -0.502212
F4    F     F_    0.784225 0.742602 0.910714 -0.588345
C50   C     C_2   0.561398 0.053839 0.911934 0.412869
H14   H     H_    0.469042 0.022712 0.948062 0.118694
O10   O     O_2   0.596634 0.162730 0.951223 -0.575786
F5    F     F_    0.722280 0.132589 0.284845 -0.491930
F6    F     F_    0.764869 0.536969 0.270506 -0.620479
C51   C     C_2   0.766190 0.298957 0.190715 0.653495
H15   H     H_    0.745306 0.332678 0.135008 0.126248
O11   O     O_2   0.856384 0.238291 0.156752 -0.371118
F7    F     F_    0.436588 0.355864 0.603617 -0.594844
F8    F     F_    0.266024 0.449356 0.608650 -0.626052
F9    F     F_    0.652273 0.723635 0.375852 -0.600074
F10   F     F_    0.859445 0.708575 0.537246 -0.627705
F11   F     F_    0.070448 0.916575 0.635902 -0.645764
F12   F     F_    0.928336 0.071684 0.355203 -0.558043
C52   C     C_2   0.304078 0.362854 0.303816 0.432229
H16   H     H_    0.233101 0.422888 0.365053 0.098535
O12   O     O_2   0.393756 0.402993 0.251300 -0.582888

loop_
_geom_bond_atom_site_label_1
_geom_bond_atom_site_label_2
_ccdc_geom_bond_type
C45   H10   S    
Cu1   N1    S    
C17   C29   A    
C23   O5    A    
C35   C36   A    
C32   H8    S    
C20   H6    S    
C43   N1    A    
C7    C8    A    
C45   C46   A    
C12   O4    A    
C26   C27   A    
C17   C23   S    
Cu1   O1    S    
C31   C51   S    
Cu2   N2    S    
C36   C37   A    
C38   C42   A    
C5    C6    A    
C10   C52   S    
C43   F5    S    
C16   F2    S    
C40   F6    S    
Cu2   O8    S    
C11   H2    S    
C31   C43   A    
C19   C20   A    
C2    C44   A    
C1    O1    A    
C18   C30   A    
C22   C30   A    
C9    C10   A    
C41   F9    S    
C33   H9    S    
Cu1   O5    S    
C21   C22   A    
C37   C41   A    
C23   O6    A    
C26   H4    S    
C28   H5    S    
C51   O11   D    
C7    C12   S    
C12   O3    A    
C4    C34   S    
C49   H13   S    
C9    H12   S    
C44   C50   S    
C38   C39   A    
C24   C25   A    
C32   N2    A    
C50   O10   D    
C3    C8    A    
C27   H7    S    
C39   C40   A    
C18   C19   A    
C29   C49   S    
C2    C48   A    
C16   C29   A    
C51   H15   S    
C3    F11   S    
C52   O12   D    
C47   C48   A    
C18   F3    S    
C6    F12   S    
C1    O2    A    
C19   F4    S    
Cu2   O2    S    
C49   O9    D    
C35   F8    S    
C40   C41   A    
C13   F1    S    
C22   C27   A    
C42   F7    S    
C3    C4    A    
C34   O8    A    
C37   N2    A    
C44   C45   A    
C16   C25   A    
C46   C47   A    
Cu1   O3    S    
C17   C28   A    
C47   F10   S    
C24   C28   A    
C50   H14   S    
C6    C7    A    
C10   C11   A    
C32   C33   A    
C36   C38   A    
C25   C26   A    
C11   C13   A    
C48   H11   S    
Cu2   O6    S    
C34   O7    A    
C1    C30   S    
C33   C35   A    
C31   C39   A    
C9    C15   A    
C52   H16   S    
C8    C46   S    
C5    C15   S    
C2    H1    S    
C4    C5    A    
C14   H3    S    
C20   C21   A    
Cu1   Cu2   S    
Cu1   O7    S    
C21   C24   A    
C14   C15   A    
C13   C14   A    
Cu2   O4    S    
C42   N1    A    
