data_mof_unit_40942.cif
_audit_creation_date              2012-12-10T17:51:23-0500
_audit_creation_method            fapswitch 2.2
_symmetry_space_group_name_H-M    P1
_symmetry_Int_Tables_number       1
_space_group_crystal_system       triclinic
_cell_length_a                    9.9077
_cell_length_b                    10.755072
_cell_length_c                    16.705192
_cell_angle_alpha                 92.432614
_cell_angle_beta                  84.582281
_cell_angle_gamma                 89.503603
_cell_volume                      1770.37972655

loop_
_atom_site_label
_atom_site_type_symbol
_atom_type_description
_atom_site_fract_x
_atom_site_fract_y
_atom_site_fract_z
_atom_type_partial_charge
C1    C     C_R   0.499496 0.741674 0.500112 0.896528
C2    C     C_R   0.533074 0.476378 0.259694 -0.104715
C3    C     C_R   0.246517 0.902086 0.515852 -0.141027
C4    C     C_R   0.480678 0.493544 0.652848 0.843586
C5    C     C_R   0.129240 0.963285 0.497979 -0.095062
C6    C     C_R   0.139445 0.068877 0.452886 -0.123925
C7    C     C_R   0.266417 0.120479 0.434778 -0.126857
C8    C     C_R   0.383329 0.065451 0.461458 0.110608
C9    C     C_R   0.376593 0.945148 0.489491 0.045257
C10   C     C_R   0.500242 0.876614 0.491936 -0.234799
C11   C     C_R   0.625829 0.938088 0.475233 0.395948
C12   C     C_R   0.347387 0.467923 0.784575 -0.200484
C13   C     C_R   0.626158 0.065055 0.468639 -0.241832
C14   C     C_R   0.504648 0.129814 0.467547 -0.206579
C15   C     C_R   0.840365 0.654329 0.612195 -0.092382
C16   C     C_R   0.502214 0.261772 0.487314 0.900831
C17   C     C_R   0.900011 0.724095 0.670969 -0.176178
C18   C     C_R   0.038845 0.718206 0.674155 -0.218256
C19   C     C_R   0.118743 0.644322 0.617634 -0.203630
C20   C     C_R   0.062028 0.571356 0.557772 0.178829
C21   C     C_R   0.917812 0.573900 0.556419 0.193360
C22   C     C_R   0.937859 0.431343 0.444839 -0.102796
C23   C     C_R   0.426826 0.455287 0.136165 -0.196258
C24   C     C_R   0.080998 0.432844 0.444158 -0.106099
C25   C     C_R   0.519587 0.497635 0.346611 0.887646
C26   C     C_R   0.468960 0.452226 0.734873 -0.024254
C27   C     C_R   0.575793 0.381935 0.760127 -0.191629
C28   C     C_R   0.563824 0.332675 0.835543 -0.156964
C29   C     C_R   0.446463 0.356432 0.887668 0.185398
C30   C     C_R   0.336414 0.420329 0.861104 -0.146298
C31   C     C_R   0.419798 0.491189 0.216948 -0.191117
C32   C     C_R   0.654967 0.428423 0.220326 -0.224846
C33   C     C_R   0.662419 0.391379 0.139218 0.408262
C34   C     C_R   0.546831 0.402217 0.097099 0.097119
C35   C     C_2   0.446750 0.336589 0.973478 -0.247015
C36   C     C_2   0.555367 0.371167 0.010705 -0.145076
Cl1   Cl    Cl    0.816675 0.327963 0.093258 -0.644471
Cl2   Cl    Cl    0.787928 0.866429 0.462488 -0.657588
H1    H     H_    0.668375 0.363770 0.721302 0.166045
H2    H     H_    0.085681 0.774723 0.718782 0.158016
H3    H     H_    0.224960 0.653674 0.619448 0.193301
H4    H     H_    0.142150 0.379521 0.397759 0.134362
H5    H     H_    0.743118 0.415679 0.253013 0.185837
H6    H     H_    0.649818 0.392700 0.975923 0.191496
H7    H     H_    0.245257 0.439242 0.901062 0.146118
H8    H     H_    0.338567 0.471305 0.104282 0.162036
H9    H     H_    0.262555 0.518862 0.764920 0.154523
H10   H     H_    0.648422 0.280550 0.854457 0.150561
H11   H     H_    0.325219 0.529326 0.246129 0.177967
H12   H     H_    0.233636 0.827127 0.554887 0.158497
H13   H     H_    0.350976 0.317778 0.007749 0.169816
H14   H     H_    0.031175 0.928425 0.519387 0.203736
H15   H     H_    0.049187 0.114112 0.435655 0.149811
H16   H     H_    0.273327 0.204048 0.401082 0.139506
H17   H     H_    0.721966 0.113421 0.465800 0.193401
H18   H     H_    0.891757 0.375161 0.399817 0.141198
H19   H     H_    0.734229 0.668904 0.610985 0.200013
H20   H     H_    0.838333 0.784865 0.713271 0.154871
N1    N     N_R   0.857140 0.501200 0.500750 -0.116520
N2    N     N_R   0.142740 0.501280 0.500770 -0.117719
O1    O     O_R   0.385310 0.683220 0.500000 -0.639167
O2    O     O_R   0.614640 0.683250 0.500010 -0.565079
O3    O     O_R   0.371780 0.500010 0.615800 -0.631625
O4    O     O_R   0.601110 0.500030 0.615800 -0.646760
O5    O     O_R   0.385360 0.316750 0.499990 -0.614814
O6    O     O_R   0.614690 0.316780 0.500000 -0.623190
O7    O     O_R   0.398890 0.499970 0.384200 -0.624163
O8    O     O_R   0.628220 0.499990 0.384200 -0.606987
Zn1   Zn    Zn3+2 0.346870 0.499980 0.499990 0.943082
Zn2   Zn    Zn3+2 0.653130 0.500020 0.500010 0.968596

loop_
_geom_bond_atom_site_label_1
_geom_bond_atom_site_label_2
_ccdc_geom_bond_type
C8    C9    A    
C11   Cl2   S    
C4    C26   S    
C5    H14   S    
C6    C7    A    
C3    C9    A    
O4    Zn2   S    
C20   N2    A    
C24   H4    S    
C9    C10   A    
C4    O4    A    
C30   H7    S    
C19   C20   A    
C25   O7    A    
C15   C21   A    
C17   H20   S    
C24   N2    A    
C23   C34   A    
C12   C30   A    
C32   C33   A    
C3    C5    A    
C27   C28   A    
C17   C18   A    
C7    C8    A    
C23   H8    S    
O6    Zn2   S    
C13   C14   A    
C1    O2    A    
C15   H19   S    
C4    O3    A    
C26   C27   A    
C29   C30   A    
C25   O8    A    
N2    Zn1   S    
C31   H11   S    
C12   H9    S    
O5    Zn1   S    
C12   C26   A    
C22   C24   A    
O8    Zn2   S    
C28   C29   A    
C32   H5    S    
C33   C34   A    
C21   N1    A    
C2    C25   S    
C34   C36   S    
C35   H13   S    
C5    C6    A    
C14   C16   S    
C36   H6    S    
C16   O6    A    
C10   C11   A    
C6    H15   S    
C23   C31   A    
C29   C35   S    
C22   H18   S    
O3    Zn1   S    
C11   C13   A    
C20   C21   A    
O2    Zn2   S    
C2    C32   A    
C18   C19   A    
O1    Zn1   S    
C22   N1    A    
C15   C17   A    
C18   H2    S    
C28   H10   S    
C8    C14   A    
C16   O5    A    
N1    Zn2   S    
C7    H16   S    
O7    Zn1   S    
C3    H12   S    
C33   Cl1   S    
C1    C10   S    
C19   H3    S    
C27   H1    S    
C2    C31   A    
C13   H17   S    
C35   C36   D    
C1    O1    A    
