data_mof_unit_19376.cif
_audit_creation_date              2012-12-10T17:38:48-0500
_audit_creation_method            fapswitch 2.2
_symmetry_space_group_name_H-M    P1
_symmetry_Int_Tables_number       1
_space_group_crystal_system       triclinic
_cell_length_a                    12.34884
_cell_length_b                    13.120945
_cell_length_c                    23.469126
_cell_angle_alpha                 77.618318
_cell_angle_beta                  101.046516
_cell_angle_gamma                 116.578389
_cell_volume                      3301.73057364

loop_
_atom_site_label
_atom_site_type_symbol
_atom_type_description
_atom_site_fract_x
_atom_site_fract_y
_atom_site_fract_z
_atom_type_partial_charge
C1    C     C_R   0.855002 0.286615 0.503588 0.846155
C2    C     C_R   0.042957 0.320992 0.054185 -0.049315
C3    C     C_R   0.039197 0.320748 0.993604 -0.050524
C4    C     C_R   0.016590 0.406797 0.951553 -0.086343
C5    C     C_R   0.987920 0.486969 0.970296 -0.051421
C6    C     C_R   0.957780 0.568658 0.928218 -0.095728
C7    C     C_R   0.934681 0.651873 0.947558 0.185400
C8    C     C_R   0.937583 0.651175 0.007777 0.221543
C9    C     C_R   0.024042 0.417457 0.890930 0.552357
C10   C     C_R   0.954219 0.565374 0.868061 0.539395
C11   C     C_R   0.895173 0.406311 0.760939 0.231108
C12   C     C_R   0.998281 0.497855 0.608679 0.902780
C13   C     C_R   0.898075 0.402844 0.701484 -0.080590
C14   C     C_R   0.993911 0.491981 0.671149 -0.125083
C15   C     C_R   0.087287 0.578801 0.700286 -0.254615
C16   C     C_R   0.086958 0.580967 0.759565 -0.004369
C17   C     C_R   0.989766 0.494723 0.789748 0.254449
C18   C     C_R   0.904379 0.400017 0.244441 0.257625
C19   C     C_R   0.906582 0.407209 0.303225 -0.351044
C20   C     C_R   0.999556 0.498786 0.329398 -0.100800
C21   C     C_R   0.089291 0.588088 0.296311 0.155408
C22   C     C_R   0.088587 0.580748 0.236996 0.185010
C23   C     C_R   0.144975 0.713776 0.491781 0.799283
C24   C     C_R   0.995706 0.486594 0.211358 0.280114
C25   C     C_R   0.269982 0.027747 0.429010 -0.150057
C26   C     C_R   0.227325 0.836207 0.480777 -0.035782
C27   C     C_R   0.815105 0.081376 0.532959 -0.143100
C28   C     C_R   0.735961 0.965553 0.541520 -0.140902
C29   C     C_R   0.612134 0.930368 0.523762 -0.156779
C30   C     C_R   0.564904 0.010964 0.494619 0.090603
C31   C     C_R   0.648394 0.126270 0.478967 0.075010
C32   C     C_R   0.438000 0.980296 0.479659 0.051687
C33   C     C_R   0.396329 0.062152 0.444996 0.130677
C34   C     C_R   0.000464 0.500322 0.391429 0.848808
C35   C     C_R   0.482404 0.173675 0.424882 -0.019404
C36   C     C_R   0.606119 0.201107 0.439216 -0.292862
C37   C     C_R   0.351047 0.870052 0.499037 -0.213731
C38   C     C_R   0.186615 0.916011 0.446747 -0.237406
C39   C     C_R   0.772470 0.163394 0.503329 -0.085167
C40   C     C_R   0.339846 0.316843 0.586607 -0.341073
C41   C     C_R   0.762994 0.646817 0.421302 0.023379
C42   C     C_R   0.663296 0.670493 0.398254 -0.236519
C43   C     C_R   0.551867 0.607119 0.422066 0.020035
C44   C     C_R   0.545348 0.527027 0.474668 -0.068361
C45   C     C_R   0.953251 0.556389 0.109867 0.614865
C46   C     C_R   0.649594 0.502111 0.494409 0.264771
C47   C     C_R   0.441830 0.469062 0.508423 -0.010706
C48   C     C_R   0.439423 0.377955 0.554179 0.164566
C49   C     C_R   0.538686 0.350990 0.569507 -0.247953
C50   C     C_R   0.642951 0.414904 0.541923 -0.158029
C51   C     C_R   0.343163 0.500242 0.501608 -0.053232
C52   C     C_R   0.243545 0.348510 0.576065 0.447864
C53   C     C_R   0.025569 0.410319 0.133530 0.556819
C54   C     C_R   0.020694 0.405088 0.073281 -0.081462
C55   C     C_R   0.989629 0.485767 0.030997 -0.063414
C56   C     C_R   0.960001 0.565367 0.049553 -0.109017
Cu1   Cu    Cu3+1 0.098270 0.475410 0.513370 0.982969
Cu2   Cu    Cu3+1 0.901730 0.524590 0.486630 0.934962
H1    H     H_    0.835665 0.341058 0.328697 0.152404
H2    H     H_    0.090875 0.890717 0.431506 0.157536
H3    H     H_    0.233798 0.084061 0.400440 0.195409
H4    H     H_    0.377084 0.807629 0.528375 0.146860
H5    H     H_    0.909579 0.106791 0.550566 0.151920
H6    H     H_    0.556766 0.839040 0.532248 0.130725
H7    H     H_    0.770210 0.902784 0.563778 0.148511
H8    H     H_    0.669224 0.282793 0.418448 0.161213
H9    H     H_    0.538034 0.282899 0.605245 0.150509
H10   H     H_    0.337785 0.246089 0.620897 0.147015
H11   H     H_    0.343152 0.575889 0.472825 0.145910
H12   H     H_    0.846328 0.692945 0.400583 0.138293
H13   H     H_    0.671358 0.733414 0.359038 0.186656
H14   H     H_    0.717152 0.393179 0.559412 0.227611
H15   H     H_    0.160577 0.645329 0.676275 0.185695
N1    N     N_R   0.990182 0.483357 0.149976 -0.425385
N2    N     N_R   0.989288 0.492562 0.851252 -0.446069
N3    N     N_R   0.246280 0.438190 0.533650 -0.191627
N4    N     N_R   0.754320 0.561190 0.466710 -0.209789
O1    O     O_R   0.972510 0.318130 0.516820 -0.556468
O2    O     O_2   0.066927 0.344902 0.175833 -0.583563
O3    O     O_2   0.068224 0.355816 0.871177 -0.556725
O4    O     O_2   0.916390 0.633806 0.826078 -0.562405
O5    O     O_R   0.806530 0.359650 0.494230 -0.600248
O6    O     O_R   0.082990 0.479200 0.593420 -0.548250
O7    O     O_R   0.917010 0.520720 0.570830 -0.595515
O8    O     O_R   0.193470 0.640350 0.505770 -0.589862
O9    O     O_R   0.027490 0.681870 0.483180 -0.594527
O10   O     O_R   0.082990 0.479280 0.429170 -0.567854
O11   O     O_R   0.917010 0.520800 0.406580 -0.604199
O12   O     O_2   0.909216 0.619064 0.128868 -0.508711
C57   C     C_2   0.062686 0.227592 0.096693 0.517325
H16   H     H_    0.145767 0.247360 0.126629 0.103521
O13   O     O_2   0.986068 0.128020 0.098029 -0.543505
N5    N     N_2   0.178354 0.684933 0.322647 -0.421690
H17   H     H_    0.261825 0.720956 0.306928 0.304854
C58   C     C_3   0.137049 0.771261 0.324549 -0.686844
H18   H     H_    0.110554 0.806456 0.279417 0.230128
H19   H     H_    0.211931 0.842970 0.345652 0.241044
H20   H     H_    0.058231 0.734382 0.350483 0.231712
N6    N     N_2   0.176074 0.670276 0.201499 -0.436652
H21   H     H_    0.199484 0.752506 0.209032 0.265184
C59   C     C_3   0.280311 0.650343 0.197545 -0.653947
H22   H     H_    0.340507 0.721790 0.167166 0.230101
H23   H     H_    0.251018 0.568676 0.180150 0.252714
H24   H     H_    0.332859 0.646365 0.241372 0.250291
C60   C     C_2   0.450158 0.266995 0.390060 0.339672
H25   H     H_    0.508270 0.328936 0.357573 0.075804
O14   O     O_2   0.364912 0.281318 0.400085 -0.558797
C61   C     C_2   0.052457 0.225756 0.974788 0.498986
H26   H     H_    0.986413 0.178022 0.941455 0.095499
O15   O     O_2   0.137826 0.201380 0.995785 -0.547441
N7    N     N_2   0.142902 0.287199 0.609431 -0.377125
H27   H     H_    0.101788 0.200462 0.606321 0.225805
C62   C     C_3   0.169291 0.306480 0.670047 -0.608911
H28   H     H_    0.229312 0.265584 0.694990 0.195277
H29   H     H_    0.082862 0.267976 0.690445 0.249119
H30   H     H_    0.214555 0.400153 0.673004 0.241193
C63   C     C_2   0.443806 0.615518 0.385319 0.330642
H31   H     H_    0.356023 0.541406 0.385085 0.110695
O16   O     O_2   0.452731 0.705078 0.353516 -0.577364
N8    N     N_2   0.911900 0.740347 0.907571 -0.424085
H32   H     H_    0.833111 0.715747 0.878993 0.291650
C64   C     C_3   0.016733 0.841885 0.887200 -0.583388
H33   H     H_    0.016848 0.848662 0.839251 0.254313
H34   H     H_    0.103706 0.839931 0.909899 0.213971
H35   H     H_    0.011735 0.919570 0.895719 0.223164
N9    N     N_2   0.920138 0.739268 0.026175 -0.370306
H36   H     H_    0.858078 0.765433 0.999139 0.272102
C65   C     C_3   0.031513 0.834904 0.043834 -0.532860
H37   H     H_    0.008941 0.893522 0.062128 0.251078
H38   H     H_    0.083193 0.884155 0.005640 0.208734
H39   H     H_    0.089918 0.803908 0.078175 0.233484
N10   N     N_2   0.801834 0.317726 0.793819 -0.428000
H40   H     H_    0.777707 0.235415 0.786132 0.253606
C66   C     C_3   0.698098 0.341108 0.794167 -0.666959
H41   H     H_    0.633077 0.270265 0.822842 0.233697
H42   H     H_    0.650871 0.347359 0.749110 0.208517
H43   H     H_    0.727206 0.422675 0.811638 0.265646
C67   C     C_2   0.802746 0.304784 0.672588 0.291193
H44   H     H_    0.711725 0.261157 0.686094 0.085505
O17   O     O_2   0.825821 0.268759 0.634786 -0.560177
C68   C     C_2   0.189076 0.672248 0.790026 0.422621
H45   H     H_    0.192280 0.672360 0.836512 0.069434
O18   O     O_2   0.271590 0.748756 0.763561 -0.547179
N11   N     N_2   0.806194 0.309976 0.217176 -0.416654
H46   H     H_    0.723400 0.311428 0.217235 0.255385
C69   C     C_3   0.801712 0.196239 0.238130 -0.600966
H47   H     H_    0.729799 0.134083 0.210494 0.230989
H48   H     H_    0.779832 0.167892 0.284299 0.203327
H49   H     H_    0.890044 0.195490 0.235335 0.276952

loop_
_geom_bond_atom_site_label_1
_geom_bond_atom_site_label_2
_ccdc_geom_bond_type
C55   C56   A    
N9    H36   S    
C41   C42   A    
C58   H18   S    
C65   H37   S    
C8    C56   A    
C66   H43   S    
C37   H4    S    
Cu1   Cu2   S    
C58   H20   S    
C7    C8    A    
C53   C54   A    
C60   O14   D    
N5    H17   S    
C18   C24   A    
Cu1   N3    S    
C28   C29   A    
C53   O2    S    
C69   H47   S    
C68   O18   D    
C41   N4    A    
C30   C31   A    
C36   H8    S    
C16   C17   A    
C15   C16   A    
C61   H26   S    
C12   O7    A    
C18   C19   A    
C23   C26   S    
C2    C57   S    
C50   H14   S    
Cu2   N4    S    
C47   C51   A    
C47   C48   A    
C45   C56   A    
C27   C39   A    
N10   H40   S    
C23   O9    A    
Cu1   O6    S    
C13   C14   A    
C45   O12   S    
C7    N8    S    
C44   C47   A    
C62   H30   S    
C20   C34   S    
C29   H6    S    
C16   C68   S    
N5    C58   S    
C21   C22   A    
C11   N10   S    
C1    O1    A    
Cu2   O9    S    
C44   C46   A    
C69   H48   S    
C59   H22   S    
C51   N3    A    
N11   C69   S    
C2    C54   A    
C63   O16   D    
C26   C38   A    
C34   O11   A    
C52   N7    S    
C19   H1    S    
C1    O5    A    
C40   C52   A    
Cu1   O10   S    
C12   O6    A    
Cu2   O11   S    
C45   N1    A    
C35   C36   A    
C43   C44   A    
C29   C30   A    
C35   C60   S    
Cu2   O7    S    
C25   C38   A    
C69   H49   S    
C10   N2    A    
C57   O13   D    
N6    H21   S    
N7    C62   S    
C25   H3    S    
C32   C37   A    
C6    C7    A    
C27   H5    S    
C43   C63   S    
C38   H2    S    
C8    N9    S    
C48   C49   A    
C15   H15   S    
C12   C14   S    
C9    O3    S    
C59   H24   S    
C40   H10   S    
C22   C24   A    
C42   C43   A    
C64   H34   S    
C3    C4    A    
C65   H39   S    
N8    H32   S    
N8    C64   S    
C62   H28   S    
C59   H23   S    
C40   C48   A    
C54   C55   A    
C11   C17   A    
N9    C65   S    
C22   N6    S    
C49   H9    S    
N7    H27   S    
N6    C59   S    
C14   C15   A    
Cu1   O1    S    
C5    C55   A    
N11   H46   S    
C52   N3    A    
C65   H38   S    
C6    C10   A    
C46   N4    A    
C66   H42   S    
C58   H19   S    
C26   C37   A    
C66   H41   S    
C67   O17   D    
C3    C61   S    
C51   H11   S    
C60   H25   S    
C46   C50   A    
C10   O4    S    
C13   C67   S    
C64   H35   S    
Cu2   O5    S    
C28   H7    S    
C64   H33   S    
C68   H45   S    
C32   C33   A    
C30   C32   A    
C11   C13   A    
C24   N1    S    
C57   H16   S    
C5    C6    A    
C61   O15   D    
C21   N5    S    
C18   N11   S    
C42   H13   S    
C33   C35   A    
C31   C39   A    
C2    C3    A    
C34   O10   A    
C67   H44   S    
C1    C39   S    
C4    C5    A    
C20   C21   A    
C19   C20   A    
N10   C66   S    
C49   C50   A    
C23   O8    A    
C27   C28   A    
C17   N2    S    
C31   C36   A    
C9    N2    A    
C4    C9    A    
C63   H31   S    
Cu1   O8    S    
C25   C33   A    
C41   H12   S    
C62   H29   S    
C53   N1    A    
