data_mof_unit_65367.cif
_audit_creation_date              2012-12-10T17:55:18-0500
_audit_creation_method            fapswitch 2.2
_symmetry_space_group_name_H-M    P1
_symmetry_Int_Tables_number       1
_space_group_crystal_system       triclinic
_cell_length_a                    18.941726
_cell_length_b                    18.806363
_cell_length_c                    18.78434
_cell_angle_alpha                 109.381342
_cell_angle_beta                  109.439971
_cell_angle_gamma                 109.718314
_cell_volume                      5143.01998266

loop_
_atom_site_label
_atom_site_type_symbol
_atom_type_description
_atom_site_fract_x
_atom_site_fract_y
_atom_site_fract_z
_atom_type_partial_charge
C1    C     C_R   0.380697 0.381137 0.499494 0.794074
C2    C     C_R   0.759860 0.580642 0.756134 0.071341
C3    C     C_R   0.814713 0.500396 0.814399 -0.164096
C4    C     C_R   0.744121 0.420063 0.740352 0.078916
C5    C     C_R   0.675632 0.420007 0.679949 -0.006770
C6    C     C_R   0.685528 0.500311 0.686014 -0.156714
C7    C     C_R   0.739806 0.339167 0.724919 -0.253466
C8    C     C_R   0.665558 0.260482 0.657479 -0.216315
C9    C     C_R   0.594399 0.260381 0.603921 0.653778
C10   C     C_R   0.598901 0.339040 0.614696 -0.240414
C11   C     C_R   0.292549 0.228545 0.461210 0.115425
C12   C     C_R   0.618645 0.500130 0.618830 0.789995
C13   C     C_R   0.312881 0.315040 0.498895 -0.102954
C14   C     C_R   0.265078 0.336350 0.537792 -0.195824
C15   C     C_R   0.200112 0.271386 0.537589 -0.216458
C16   C     C_R   0.183558 0.185077 0.500019 -0.061732
C17   C     C_R   0.231751 0.166892 0.462902 0.108738
C18   C     C_3   0.244750 0.095965 0.415479 -0.491683
C19   C     C_3   0.314483 0.166356 0.413703 -0.408810
C20   C     C_R   0.244248 0.424980 0.242658 0.125735
C21   C     C_R   0.316324 0.501352 0.315132 -0.088544
C22   C     C_R   0.322737 0.580904 0.322960 -0.206320
C23   C     C_R   0.618464 0.619028 0.499919 0.785691
C24   C     C_R   0.258147 0.580907 0.257974 -0.206014
C25   C     C_R   0.185025 0.501358 0.186216 -0.088933
C26   C     C_R   0.180754 0.424981 0.182269 0.125467
C27   C     C_3   0.128063 0.328074 0.129247 -0.473078
C28   C     C_3   0.200045 0.328072 0.198744 -0.473797
C29   C     C_R   0.763908 0.689042 0.517645 0.092648
C30   C     C_R   0.685952 0.687261 0.502459 -0.076519
C31   C     C_R   0.677606 0.757813 0.499265 -0.204652
C32   C     C_R   0.741838 0.822146 0.498840 -0.214805
C33   C     C_R   0.815972 0.817653 0.504599 -0.085479
C34   C     C_R   0.381438 0.499976 0.381222 0.798280
C35   C     C_R   0.828368 0.753831 0.519787 0.140423
C36   C     C_3   0.851812 0.691829 0.474186 -0.479234
C37   C     C_3   0.780720 0.620586 0.471724 -0.453201
C38   C     C_R   0.000331 0.381140 0.881677 0.793769
C39   C     C_R   0.881450 0.500228 0.881422 0.788956
C40   C     C_R   0.000529 0.619056 0.119118 0.786596
C41   C     C_R   0.118519 0.499990 0.118774 0.798776
C42   C     C_R   0.000087 0.118318 0.618722 0.793848
C43   C     C_R   0.118212 0.118093 0.499515 0.793033
C44   C     C_R   0.999879 0.881419 0.380966 0.788021
C45   C     C_R   0.775116 0.661504 0.760209 -0.148039
C46   C     C_R   0.881427 0.881394 0.500431 0.788117
C47   C     C_R   0.931160 0.231181 0.760040 0.130707
C48   C     C_R   0.002093 0.314970 0.816461 -0.103600
C49   C     C_R   0.076192 0.333593 0.806917 -0.200344
C50   C     C_R   0.076365 0.268593 0.742321 -0.217355
C51   C     C_R   0.001775 0.185291 0.685414 -0.071058
C52   C     C_R   0.930571 0.169888 0.696609 0.119359
C53   C     C_3   0.840623 0.102313 0.663350 -0.497748
C54   C     C_3   0.840832 0.172399 0.735343 -0.451395
C55   C     C_R   0.924862 0.688539 0.171734 0.093593
C56   C     C_R   0.843200 0.740204 0.834213 -0.139379
C57   C     C_R   0.001225 0.687318 0.184764 -0.078789
C58   C     C_R   0.080154 0.758383 0.258074 -0.202091
C59   C     C_R   0.080245 0.822707 0.322837 -0.212296
C60   C     C_R   0.001547 0.817685 0.313014 -0.086754
C61   C     C_R   0.925156 0.753321 0.234363 0.140052
C62   C     C_3   0.840254 0.691085 0.218743 -0.480041
C63   C     C_3   0.840141 0.619851 0.149989 -0.452635
C64   C     C_R   0.897361 0.740282 0.905422 -0.138825
C65   C     C_R   0.886636 0.661648 0.900983 -0.146636
C66   C     C_R   0.820846 0.580701 0.824380 0.066118
Cu1   Cu    Cu3+1 0.500020 0.438210 0.438210 0.951071
Cu2   Cu    Cu3+1 0.499980 0.561790 0.561790 0.946712
Cu3   Cu    Cu3+1 0.938170 0.438220 0.000040 0.942927
Cu4   Cu    Cu3+1 0.061780 0.561790 0.000020 0.949061
Cu5   Cu    Cu3+1 0.061800 0.000020 0.561820 0.956600
Cu6   Cu    Cu3+1 0.938200 0.000080 0.438280 0.954010
H1    H     H_    0.163781 0.288552 0.567243 0.141082
H2    H     H_    0.271391 0.070519 0.456821 0.219338
H3    H     H_    0.187047 0.045709 0.350074 0.195336
H4    H     H_    0.381355 0.181706 0.454067 0.253848
H5    H     H_    0.297170 0.156549 0.347205 0.197206
H6    H     H_    0.377806 0.642526 0.378191 0.153347
H7    H     H_    0.264684 0.642531 0.264399 0.154100
H8    H     H_    0.065337 0.302136 0.128118 0.207703
H9    H     H_    0.123785 0.302785 0.064517 0.196854
H10   H     H_    0.179026 0.302760 0.238166 0.196549
H11   H     H_    0.735543 0.665323 0.706473 0.146997
H12   H     H_    0.236849 0.302159 0.173941 0.207799
H13   H     H_    0.619791 0.760764 0.492760 0.150212
H14   H     H_    0.732882 0.874033 0.492288 0.156523
H15   H     H_    0.838135 0.683046 0.408594 0.186450
H16   H     H_    0.917910 0.706658 0.516826 0.205955
H17   H     H_    0.725699 0.570510 0.404644 0.213106
H18   H     H_    0.805861 0.594376 0.512946 0.199038
H19   H     H_    0.133831 0.397566 0.849450 0.165829
H20   H     H_    0.133742 0.283582 0.736111 0.145104
H21   H     H_    0.795315 0.083930 0.596245 0.208577
H22   H     H_    0.853148 0.801354 0.836729 0.136004
H23   H     H_    0.838370 0.046931 0.673771 0.196457
H24   H     H_    0.795866 0.194529 0.709632 0.189040
H25   H     H_    0.838041 0.157198 0.787029 0.205137
H26   H     H_    0.141008 0.761756 0.267228 0.152589
H27   H     H_    0.141154 0.875005 0.380963 0.158485
H28   H     H_    0.845924 0.682743 0.275919 0.186536
H29   H     H_    0.788476 0.705338 0.190974 0.205820
H30   H     H_    0.845885 0.570225 0.167377 0.212925
H31   H     H_    0.788299 0.593067 0.082614 0.198857
H32   H     H_    0.948700 0.801495 0.963914 0.136162
H33   H     H_    0.930086 0.665590 0.958593 0.147427
H34   H     H_    0.793569 0.335369 0.763910 0.170312
H35   H     H_    0.662739 0.199294 0.647510 0.157440
H36   H     H_    0.541335 0.335230 0.571823 0.162795
H37   H     H_    0.277285 0.402505 0.567729 0.167757
O1    O     O_R   0.409840 0.357650 0.447820 -0.590406
O2    O     O_R   0.052170 0.462000 0.909870 -0.584783
O3    O     O_R   0.857610 0.447830 0.909870 -0.584790
O4    O     O_R   0.962000 0.552180 0.909850 -0.585409
O5    O     O_R   0.947780 0.538010 0.090190 -0.582882
O6    O     O_R   0.052160 0.642360 0.090170 -0.593519
O7    O     O_R   0.037950 0.447840 0.090220 -0.583553
O8    O     O_R   0.142340 0.552190 0.090190 -0.586931
O9    O     O_R   0.052210 0.090180 0.642410 -0.583400
O10   O     O_R   0.947830 0.090230 0.538080 -0.584399
O11   O     O_R   0.142360 0.090200 0.552220 -0.582890
O12   O     O_R   0.409810 0.462010 0.552170 -0.586807
O13   O     O_R   0.037990 0.090250 0.447890 -0.583393
O14   O     O_R   0.052170 0.909870 0.462020 -0.585837
O15   O     O_R   0.947790 0.909920 0.357690 -0.582786
O16   O     O_R   0.962010 0.909850 0.552210 -0.582478
O17   O     O_R   0.857640 0.909910 0.447880 -0.586562
O18   O     O_R   0.590190 0.447820 0.538000 -0.583457
O19   O     O_R   0.590150 0.552180 0.642350 -0.586064
O20   O     O_R   0.590190 0.537990 0.447830 -0.582760
O21   O     O_R   0.590160 0.642350 0.552180 -0.594606
O22   O     O_R   0.409850 0.447820 0.357650 -0.583768
O23   O     O_R   0.409810 0.552180 0.462000 -0.587154
O24   O     O_R   0.947790 0.357650 0.909890 -0.592732
F1    F     F_    0.521222 0.183597 0.540184 -0.692374

loop_
_geom_bond_atom_site_label_1
_geom_bond_atom_site_label_2
_ccdc_geom_bond_type
C14   H37   S    
Cu3   O7    S    
C18   H3    S    
C31   H13   S    
C53   H23   S    
C59   H27   S    
C46   O16   A    
C10   H36   S    
C35   C36   S    
C58   H26   S    
C7    C8    A    
C12   O18   A    
Cu1   O20   S    
C53   C54   S    
C36   H16   S    
C56   H22   S    
C11   C19   S    
C26   C27   S    
C62   C63   S    
Cu5   O11   S    
Cu5   O14   S    
C36   C37   S    
C4    C7    A    
C6    C12   S    
C5    C6    A    
Cu3   O3    S    
C42   O10   A    
C40   O6    A    
C28   H12   S    
Cu4   O8    S    
C15   C16   A    
C23   O20   A    
C19   H5    S    
C18   C19   S    
C38   O24   A    
Cu2   O23   S    
Cu1   O1    S    
C40   O5    A    
C47   C48   A    
C45   C56   A    
C8    C9    A    
C39   O4    A    
C55   C63   S    
C56   C64   A    
C54   H25   S    
C9    C10   A    
Cu2   O19   S    
C38   C48   S    
C61   C62   S    
C42   C51   S    
C62   H29   S    
C9    F1    S    
C34   O23   A    
C59   C60   A    
C18   H2    S    
C21   C22   A    
Cu6   O15   S    
C33   C46   S    
C19   H4    S    
C2    C6    A    
C49   H19   S    
C63   H30   S    
C65   H33   S    
C17   C18   S    
Cu4   O4    S    
Cu1   O22   S    
Cu3   O5    S    
C28   H10   S    
Cu1   Cu2   S    
C23   C30   S    
C45   H11   S    
C24   C25   A    
C22   H6    S    
C63   H31   S    
C27   H8    S    
Cu4   O2    S    
C25   C41   S    
C16   C17   A    
C21   C34   S    
C20   C28   S    
C58   C59   A    
C53   H21   S    
C44   O15   A    
C51   C52   A    
C23   O21   A    
Cu6   O17   S    
C60   C61   A    
C29   C30   A    
Cu1   O18   S    
C1    O1    A    
C24   H7    S    
C31   C32   A    
C43   O13   A    
C27   H9    S    
C32   H14   S    
C50   C51   A    
C7    H34   S    
Cu2   O21   S    
C16   C43   S    
C47   C54   S    
C62   H28   S    
C37   H18   S    
C50   H20   S    
C39   O3    A    
C15   H1    S    
C34   O22   A    
C49   C50   A    
C55   C57   A    
C22   C24   A    
C3    C66   A    
C1    C13   S    
C41   O7    A    
C3    C4    A    
C8    H35   S    
C43   O11   A    
C52   C53   S    
C64   H32   S    
C11   C17   A    
Cu3   O24   S    
C40   C57   S    
Cu5   O9    S    
Cu6   O13   S    
C54   H24   S    
C46   O17   A    
C42   O9    A    
C4    C5    A    
C2    C66   A    
Cu2   O12   S    
C47   C52   A    
C12   O19   A    
Cu4   O6    S    
C29   C35   A    
C44   O14   A    
C37   H17   S    
C64   C65   A    
C25   C26   A    
Cu5   Cu6   S    
C32   C33   A    
C11   C13   A    
C57   C58   A    
C30   C31   A    
C20   C26   A    
C44   C60   S    
C48   C49   A    
C55   C61   A    
Cu6   O10   S    
C33   C35   A    
Cu3   Cu4   S    
C1    O12   A    
C2    C45   A    
C3    C39   S    
C36   H15   S    
C5    C10   A    
C20   C21   A    
C65   C66   A    
C29   C37   S    
C27   C28   S    
C14   C15   A    
Cu5   O16   S    
C41   O8    A    
C38   O2    A    
C13   C14   A    
