data_mof_unit_60687.cif
_audit_creation_date              2013-03-05T16:19:21-0500
_audit_creation_method            fapswitch 2.2
_symmetry_space_group_name_H-M    P1
_symmetry_Int_Tables_number       1
_space_group_crystal_system       triclinic
_cell_length_a                    18.89856
_cell_length_b                    18.865271
_cell_length_c                    18.741919
_cell_angle_alpha                 109.348504
_cell_angle_beta                  109.421431
_cell_angle_gamma                 109.674205
_cell_volume                      5141.8282282

loop_
_atom_site_label
_atom_site_type_symbol
_atom_site_description
_atom_site_fract_x
_atom_site_fract_y
_atom_site_fract_z
_atom_type_partial_charge
O1    O     O_R   0.090180 0.947810 0.537990 -0.593278
O2    O     O_R   0.090150 0.052180 0.642350 -0.583734
C1    C     C_R   0.118591 0.000178 0.619240 0.775931
O3    O     O_R   0.090190 0.037990 0.447830 -0.590348
O4    O     O_R   0.090170 0.142360 0.552190 -0.575719
C2    C     C_R   0.121337 0.118643 0.502449 0.777795
Cu1   Cu    Cu3+1 0.000020 0.938200 0.438210 1.005944
Cu2   Cu    Cu3+1 0.999980 0.061800 0.561790 0.982550
O5    O     O_R   0.909850 0.947820 0.357650 -0.567612
O6    O     O_R   0.909820 0.052190 0.462010 -0.589255
O7    O     O_R   0.909830 0.857640 0.447810 -0.567641
O8    O     O_R   0.909810 0.962010 0.552170 -0.588834
C3    C     C_R   0.881262 0.000014 0.381060 0.809968
C4    C     C_R   0.881571 0.881364 0.500444 0.804422
H1    H     H_    0.131345 0.263957 0.506822 0.169426
C5    C     C_R   0.275296 0.107791 0.509795 -0.167014
H2    H     H_    0.234910 0.063488 0.522710 0.146275
C6    C     C_R   0.342275 0.096960 0.501961 -0.127527
H3    H     H_    0.350842 0.044472 0.506700 0.141993
C7    C     C_R   0.397717 0.152991 0.487213 -0.120570
H4    H     H_    0.448570 0.143322 0.479422 0.143120
C8    C     C_R   0.388507 0.222092 0.483364 -0.169103
H5    H     H_    0.432473 0.263148 0.470636 0.143329
C9    C     C_R   0.322995 0.236322 0.494276 0.096252
C10   C     C_R   0.262462 0.175399 0.502681 0.102690
C11   C     C_R   0.191802 0.184836 0.505135 -0.102082
C12   C     C_R   0.185123 0.256322 0.504873 -0.184924
H6    H     H_    0.240648 0.373502 0.502180 0.197989
C13   C     C_R   0.246448 0.317870 0.500558 -0.169572
C14   C     C_R   0.315425 0.308957 0.495754 -0.108411
C15   C     C_R   0.256996 0.001395 0.679625 0.090732
C16   C     C_R   0.187307 0.004307 0.687981 -0.075791
C17   C     C_R   0.187790 0.017412 0.766639 -0.183446
H7    H     H_    0.136736 0.024268 0.776775 0.157643
C18   C     C_R   0.251364 0.015892 0.830402 -0.203039
H8    H     H_    0.249067 0.022394 0.889107 0.147244
C19   C     C_R   0.316054 0.003730 0.816806 -0.071123
C20   C     C_R   0.320725 0.001581 0.743399 0.129619
C21   C     C_3   0.324056 0.934581 0.676618 -0.473937
C22   C     C_3   0.256063 0.936283 0.607113 -0.417619
H9    H     H_    0.387929 0.959296 0.679656 0.217653
H10   H     H_    0.298284 0.871940 0.675791 0.202366
H11   H     H_    0.281178 0.964512 0.571429 0.190150
H12   H     H_    0.193330 0.873864 0.565110 0.225936
C23   C     C_R   0.755992 0.734211 0.428825 0.095363
C24   C     C_R   0.815963 0.815599 0.502134 -0.080859
C25   C     C_R   0.809635 0.832113 0.578453 -0.190528
H13   H     H_    0.854968 0.894250 0.637897 0.161667
C26   C     C_R   0.744950 0.767102 0.578524 -0.185354
H14   H     H_    0.741554 0.780252 0.637755 0.147136
C27   C     C_R   0.684539 0.686145 0.501619 -0.050638
C28   C     C_R   0.692332 0.673223 0.428166 0.069126
C29   C     C_3   0.655470 0.608359 0.335553 -0.391336
C30   C     C_3   0.727617 0.678191 0.335854 -0.371697
H15   H     H_    0.663186 0.551062 0.329115 0.218669
H16   H     H_    0.589153 0.593534 0.293107 0.260294
H17   H     H_    0.776504 0.660840 0.328722 0.217418
H18   H     H_    0.702872 0.703890 0.293964 0.264968
C31   C     C_R   0.769892 0.937709 0.227421 0.061708
C32   C     C_R   0.814899 0.000952 0.314933 -0.108268
C33   C     C_R   0.792855 0.066699 0.337299 -0.173232
H19   H     H_    0.825627 0.118186 0.404265 0.170644
C34   C     C_R   0.728064 0.066669 0.272465 -0.200267
H20   H     H_    0.712197 0.117598 0.290593 0.135688
C35   C     C_R   0.684111 0.000543 0.184914 -0.029979
C36   C     C_R   0.707289 0.937441 0.165447 0.052571
C37   C     C_3   0.688852 0.857893 0.092406 -0.539251
C38   C     C_3   0.759935 0.857495 0.163035 0.201122
H21   H     H_    0.622016 0.803129 0.061375 0.246298
H22   H     H_    0.707582 0.872172 0.046381 0.163430
H23   H     H_    0.818657 0.868571 0.156672 0.106222
O9    O     O_R   0.447770 0.590190 0.538000 -0.509587
O10   O     O_R   0.552150 0.590170 0.642370 -0.597786
C39   C     C_R   0.500687 0.619274 0.619180 0.807811
O11   O     O_R   0.357600 0.409850 0.447820 -0.556349
O12   O     O_R   0.461980 0.409830 0.552180 -0.588748
C40   C     C_R   0.381390 0.379147 0.498065 0.780655
Cu3   Cu    Cu3+1 0.438170 0.500030 0.438220 1.119461
Cu4   Cu    Cu3+1 0.561770 0.500000 0.561810 0.974680
O13   O     O_R   0.447790 0.409860 0.357660 -0.568669
O14   O     O_R   0.552170 0.409840 0.462020 -0.603194
O15   O     O_R   0.537960 0.590200 0.447840 -0.548280
O16   O     O_R   0.642340 0.590180 0.552210 -0.593395
C41   C     C_R   0.499827 0.381105 0.381070 0.771718
C42   C     C_R   0.618406 0.618671 0.500092 0.789832
O17   O     O_R   0.552220 0.142430 0.090190 -0.572235
O18   O     O_R   0.447830 0.038100 0.090230 -0.586765
C43   C     C_R   0.499409 0.118415 0.117871 0.788831
O19   O     O_R   0.462030 0.052220 0.909860 -0.576654
O20   O     O_R   0.357640 0.947890 0.909900 -0.581909
C44   C     C_R   0.381407 0.000205 0.881182 0.783473
Cu5   Cu    Cu3+1 0.561810 0.061820 0.000030 0.993415
Cu6   Cu    Cu3+1 0.438190 0.938280 0.000080 0.998951
O21   O     O_R   0.552170 0.962000 0.909870 -0.582936
O22   O     O_R   0.447780 0.857670 0.909910 -0.570390
O23   O     O_R   0.642360 0.052210 0.090200 -0.586341
O24   O     O_R   0.537970 0.947880 0.090240 -0.571269
C45   C     C_R   0.500494 0.881211 0.881926 0.788637
C46   C     C_R   0.618299 0.999494 0.117983 0.786335
C47   C     C_R   0.423634 0.683301 0.677113 0.016481
C48   C     C_R   0.500801 0.684508 0.687552 -0.081124
C49   C     C_R   0.577713 0.746175 0.768197 -0.159377
H24   H     H_    0.637959 0.746507 0.779807 0.154096
C50   C     C_R   0.578321 0.811419 0.832467 -0.190463
H25   H     H_    0.638612 0.860780 0.892683 0.137608
C51   C     C_R   0.501449 0.813549 0.817548 -0.028595
C52   C     C_R   0.423967 0.746047 0.742055 0.038417
C53   C     C_3   0.357044 0.752225 0.678571 -0.579668
C54   C     C_3   0.355601 0.682813 0.606485 0.655949
H26   H     H_    0.296468 0.731453 0.682175 0.226817
H27   H     H_    0.384895 0.816914 0.683857 0.192271
C55   C     C_R   0.452293 0.285228 0.226631 0.061382
C56   C     C_R   0.500154 0.314123 0.314948 -0.105960
C57   C     C_R   0.549860 0.275335 0.338067 -0.184893
H28   H     H_    0.588471 0.294564 0.405690 0.168292
C58   C     C_R   0.549730 0.210493 0.273200 -0.203293
H29   H     H_    0.588086 0.181475 0.291954 0.134138
C59   C     C_R   0.500218 0.183993 0.184759 -0.029076
C60   C     C_R   0.452273 0.223004 0.164523 0.050904
C61   C     C_3   0.390982 0.223692 0.090565 -0.543617
C62   C     C_3   0.390991 0.295098 0.161303 0.198791
H30   H     H_    0.421524 0.245725 0.054798 0.243707
H31   H     H_    0.327825 0.161819 0.048796 0.166249
H32   H     H_    0.327586 0.276088 0.159312 0.105332
N1    N     N_R   0.726141 0.784133 0.176755 0.152784
O25   O     O_R   0.764508 0.738595 0.179708 -0.353901
O26   O     O_R   0.658596 0.764249 0.187016 -0.355826
S1    S     S_3+6 0.254467 0.581490 0.541807 0.026782
O27   O     O_2   0.235888 0.547123 0.599198 -0.313420
O28   O     O_2   0.182764 0.596211 0.497553 -0.263100
O29   O     O_3   0.259932 0.508585 0.465847 -0.503888
H33   H     H_    0.199472 0.459525 0.425859 0.363706
N2    N     N_R   0.386473 0.714864 0.554856 0.119910
O30   O     O_R   0.461262 0.784889 0.593381 -0.383724
O31   O     O_R   0.338150 0.676058 0.470467 -0.263884
N3    N     N_R   0.431607 0.380268 0.168735 0.156555
O32   O     O_R   0.393427 0.426179 0.173330 -0.334183
O33   O     O_R   0.506177 0.411443 0.172049 -0.360831

loop_
_geom_bond_atom_site_label_1
_geom_bond_atom_site_label_2
_geom_bond_distance
_ccdc_geom_bond_type
O18   C43   1.289899 A    
C34   C35   1.406459 A    
C48   C49   1.409208 A    
C12   C13   1.384331 A    
O10   C39   1.293389 A    
C18   H8    1.083232 S    
O12   Cu4   1.973047 S    
O13   C41   1.297631 A    
S1    O27   1.503502 D    
C27   C42   1.436667 S    
C50   C51   1.402477 A    
C57   H28   1.082768 S    
O22   C45   1.291766 A    
Cu1   Cu2   2.687981 S    
C4    C24   1.447048 S    
C3    C32   1.450865 S    
C2    C11   1.459224 S    
C29   C30   1.541152 S    
C58   H29   1.083483 S    
Cu1   O7    1.971854 S    
C11   C12   1.397598 A    
C41   C56   1.450972 S    
Cu5   Cu6   2.688202 S    
H6    C13   1.083035 S    
C18   C19   1.403380 A    
C19   C20   1.395866 A    
C47   C54   1.502481 S    
C31   C36   1.351709 A    
O4    C2    1.297076 A    
O7    C4    1.295147 A    
O17   C43   1.290783 A    
C51   C52   1.392991 A    
O21   C45   1.296010 A    
O23   C46   1.289587 A    
Cu5   O23   1.970829 S    
C53   C54   1.523133 S    
C6    H3    1.082246 S    
C33   C34   1.409036 A    
O5    C3    1.297508 A    
C59   C60   1.382720 A    
C50   H25   1.083108 S    
C62   H32   1.112590 S    
O9    Cu3   1.970283 S    
C15   C22   1.489773 S    
C14   C40   1.457364 S    
C22   H11   1.110440 S    
C15   C16   1.393644 A    
C53   H26   1.111575 S    
C5    H2    1.080297 S    
C26   C27   1.409396 A    
C52   C53   1.489702 S    
O19   C44   1.293256 A    
C61   H31   1.111289 S    
C36   C37   1.488927 S    
C31   C32   1.388986 A    
Cu6   O22   1.971743 S    
C49   H24   1.083169 S    
O3    Cu1   1.972589 S    
C8    H5    1.080799 S    
C55   C56   1.389088 A    
O24   C46   1.291262 A    
C61   H30   1.111603 S    
C21   H10   1.108708 S    
C29   H15   1.111575 S    
C19   C44   1.450184 S    
C54   N2    1.472378 S    
C37   C38   1.545224 S    
O12   C40   1.293619 A    
C35   C46   1.431889 S    
C25   C26   1.411101 A    
C21   C22   1.513752 S    
Cu4   O14   1.970402 S    
Cu3   Cu4   2.687958 S    
C23   C28   1.349077 A    
C10   C11   1.418637 A    
C23   C24   1.387285 A    
C27   C28   1.383089 A    
C32   C33   1.416773 A    
O1    C1    1.298221 A    
C13   C14   1.396876 A    
C31   C38   1.492907 S    
C55   C60   1.351620 A    
N2    O30   1.302391 A    
Cu3   O15   1.973141 S    
C54   S1    1.800028 S    
H1    C12   1.083858 S    
C25   H13   1.083033 S    
Cu2   O8    1.972590 S    
Cu5   O21   1.972426 S    
C17   H7    1.083235 S    
O10   Cu4   1.973648 S    
Cu3   O13   1.973648 S    
C1    C16   1.450885 S    
C9    C10   1.417383 A    
O19   Cu5   1.972962 S    
C49   C50   1.401742 A    
O11   C40   1.296004 A    
C39   C48   1.451893 S    
O9    C39   1.296735 A    
O16   C42   1.290497 A    
C7    C8    1.393418 A    
C23   C30   1.489091 S    
C35   C36   1.382645 A    
N1    O25   1.300408 A    
C8    C9    1.415110 A    
O3    C2    1.293690 A    
C43   C59   1.431503 S    
O29   H33   0.991287 S    
S1    O29   1.680787 S    
Cu6   O24   1.972866 S    
O14   C41   1.292307 A    
C28   C29   1.486579 S    
O20   Cu6   1.970948 S    
N1    O26   1.302220 A    
C56   C57   1.416986 A    
C30   H18   1.109425 S    
C29   H16   1.111448 S    
C5    C10   1.415222 A    
Cu1   O5    1.973636 S    
C24   C25   1.414530 A    
C47   C52   1.384875 A    
O1    Cu1   1.970172 S    
Cu2   O6    1.970172 S    
O2    Cu2   1.973638 S    
O8    C4    1.292743 A    
N3    O32   1.300371 A    
O6    C3    1.292338 A    
S1    O28   1.503301 D    
O4    Cu2   1.971854 S    
C57   C58   1.408866 A    
C60   C61   1.489124 S    
C15   C20   1.384275 A    
O15   C42   1.292434 A    
C45   C51   1.447395 S    
C53   H27   1.108548 S    
C37   H22   1.111198 S    
C16   C17   1.408019 A    
O2    C1    1.291219 A    
C55   C62   1.492955 S    
O17   Cu5   1.971622 S    
Cu4   O16   1.971277 S    
O20   C44   1.296048 A    
C20   C21   1.491919 S    
C38   H23   1.112581 S    
O18   Cu6   1.972325 S    
C47   C48   1.396607 A    
C17   C18   1.401250 A    
C58   C59   1.406213 A    
C6    C7    1.389981 A    
C62   N3    1.463003 S    
C33   H19   1.082791 S    
O11   Cu3   1.971278 S    
C9    C14   1.417178 A    
C34   H20   1.083483 S    
C22   H12   1.112186 S    
C7    H4    1.082560 S    
C21   H9    1.111517 S    
C5    C6    1.394080 A    
C26   H14   1.083329 S    
N3    O33   1.302019 A    
N2    O31   1.301333 A    
C61   C62   1.545513 S    
C37   H21   1.111620 S    
C38   N1    1.462660 S    
C30   H17   1.111462 S    
