data_mof_unit_43377.cif
_audit_creation_date              2012-12-10T19:01:53-0500
_audit_creation_method            fapswitch 2.2
_symmetry_space_group_name_H-M    P1
_symmetry_Int_Tables_number       1
_space_group_crystal_system       triclinic
_cell_length_a                    11.689678
_cell_length_b                    10.833345
_cell_length_c                    9.661459
_cell_angle_alpha                 90.543744
_cell_angle_beta                  89.442256
_cell_angle_gamma                 92.826582
_cell_volume                      1221.9146963

loop_
_atom_site_label
_atom_site_type_symbol
_atom_type_description
_atom_site_fract_x
_atom_site_fract_y
_atom_site_fract_z
_atom_type_partial_charge
C1    C     C_R   0.496137 0.262714 0.499613 0.782552
C2    C     C_R   0.483081 0.129222 0.500552 -0.126422
C3    C     C_R   0.453416 0.061080 0.380586 -0.175655
C4    C     C_R   0.453241 0.931967 0.382080 -0.111134
C5    C     C_R   0.486367 0.870432 0.501987 -0.111577
C6    C     C_R   0.501031 0.939470 0.624070 0.027886
C7    C     C_3   0.591803 0.943897 0.733493 -0.204663
C8    C     C_3   0.584954 0.084421 0.733412 -0.197438
C9    C     C_R   0.594649 0.538345 0.071019 0.124607
C10   C     C_R   0.416398 0.434039 0.075175 0.249723
C11   C     C_R   0.412803 0.439724 0.926166 0.205631
C12   C     C_R   0.284305 0.499739 0.500519 0.808748
C13   C     C_R   0.596942 0.532027 0.926014 0.188948
C14   C     C_3   0.674714 0.644746 0.915843 -0.303701
C15   C     C_3   0.669350 0.654533 0.074595 -0.231609
C16   C     C_R   0.497926 0.737418 0.500574 0.793284
C17   C     C_R   0.715688 0.500493 0.499502 0.815795
C18   C     C_1   0.162503 0.499873 0.501351 -0.169134
C19   C     C_1   0.059934 0.500102 0.500821 0.028075
C20   C     C_1   0.940056 0.500387 0.499535 0.036845
C21   C     C_1   0.837489 0.500511 0.498800 -0.163380
C22   C     C_R   0.496140 0.066151 0.623910 0.109332
Cu1   Cu    Cu3+1 0.499990 0.499980 0.640670 0.941248
Cu2   Cu    Cu3+1 0.500010 0.500020 0.359330 0.962162
H1    H     H_    0.434785 0.106999 0.284920 0.176360
H2    H     H_    0.634097 0.718502 0.859153 0.129710
H3    H     H_    0.752171 0.641930 0.127324 0.208240
H4    H     H_    0.432021 0.881262 0.288068 0.166296
H5    H     H_    0.560978 0.900060 0.831246 0.173313
H6    H     H_    0.663374 0.136416 0.695156 0.146953
N1    N     N_R   0.500710 0.500930 0.147930 -0.215037
N2    N     N_R   0.500710 0.500890 0.852020 -0.221586
O1    O     O_R   0.500000 0.319640 0.618810 -0.596035
O2    O     O_R   0.500010 0.319680 0.381230 -0.584312
O3    O     O_R   0.337190 0.499990 0.618790 -0.580276
O4    O     O_R   0.337200 0.500030 0.381210 -0.579631
O5    O     O_R   0.499990 0.680320 0.618770 -0.588217
O6    O     O_R   0.500000 0.680360 0.381190 -0.568374
O7    O     O_R   0.662800 0.499970 0.618790 -0.577326
O8    O     O_R   0.662810 0.500010 0.381210 -0.557745
C23   C     C_2   0.609375 0.766819 0.121966 0.445005
H7    H     H_    0.523133 0.782095 0.087442 0.057716
O9    O     O_2   0.658348 0.842801 0.197557 -0.534815
C24   C     C_2   0.706637 0.903126 0.683823 0.329059
H8    H     H_    0.715317 0.853943 0.586225 0.089209
O10   O     O_2   0.791379 0.924370 0.754573 -0.529362
C25   C     C_2   0.537882 0.137574 0.865769 0.430625
H9    H     H_    0.583848 0.214935 0.915726 0.082676
O11   O     O_2   0.448876 0.095217 0.917789 -0.567316
C26   C     C_3   0.329546 0.346937 0.146704 -0.746309
H10   H     H_    0.342797 0.328326 0.254949 0.262685
H11   H     H_    0.242082 0.381244 0.136335 0.217019
H12   H     H_    0.333855 0.253043 0.100652 0.218426
C27   C     C_3   0.310506 0.378383 0.852276 -0.684345
H13   H     H_    0.248665 0.449307 0.828051 0.232218
H14   H     H_    0.337214 0.325160 0.761031 0.259110
H15   H     H_    0.259482 0.308226 0.911017 0.201386
C28   C     C_2   0.791578 0.617252 0.859697 0.469735
H16   H     H_    0.829838 0.674512 0.778489 0.097507
O12   O     O_2   0.844098 0.531396 0.903863 -0.542683

loop_
_geom_bond_atom_site_label_1
_geom_bond_atom_site_label_2
_ccdc_geom_bond_type
C2    C22   A    
C8    C22   S    
Cu1   Cu2   S    
C6    C7    S    
C7    H5    S    
C12   O4    A    
C23   H7    S    
C13   N2    A    
C26   H11   S    
C19   C20   S    
C14   C15   S    
C16   O5    A    
C8    H6    S    
Cu1   N2    S    
C6    C22   A    
C2    C3    A    
C9    C15   S    
Cu2   N1    S    
C1    O1    A    
C7    C8    S    
C25   O11   D    
Cu1   O5    S    
C13   C14   S    
C14   H2    S    
C12   O3    A    
C23   O9    D    
Cu2   O4    S    
C11   C27   S    
Cu1   O7    S    
Cu2   O8    S    
C24   O10   D    
C1    O2    A    
C18   C19   T    
Cu1   O3    S    
C5    C6    A    
C14   C28   S    
C27   H14   S    
C8    C25   S    
C26   H12   S    
C10   C11   A    
C9    N1    A    
C28   O12   D    
Cu2   O6    S    
C10   C26   S    
C25   H9    S    
C3    H1    S    
C20   C21   T    
C15   C23   S    
Cu1   O1    S    
C1    C2    S    
C17   O7    A    
C12   C18   S    
C9    C13   A    
C27   H13   S    
C5    C16   S    
C26   H10   S    
C4    H4    S    
C28   H16   S    
C7    C24   S    
C15   H3    S    
C10   N1    A    
C17   O8    A    
Cu2   O2    S    
C24   H8    S    
C3    C4    A    
C16   O6    A    
C4    C5    A    
C11   N2    A    
C27   H15   S    
C17   C21   S    
