data_mof_unit_64384.cif
_audit_creation_date              2012-12-10T18:12:11-0500
_audit_creation_method            fapswitch 2.2
_symmetry_space_group_name_H-M    P1
_symmetry_Int_Tables_number       1
_space_group_crystal_system       triclinic
_cell_length_a                    18.749889
_cell_length_b                    18.653619
_cell_length_c                    18.755253
_cell_angle_alpha                 109.523099
_cell_angle_beta                  109.537996
_cell_angle_gamma                 109.332904
_cell_volume                      5050.87809155

loop_
_atom_site_label
_atom_site_type_symbol
_atom_type_description
_atom_site_fract_x
_atom_site_fract_y
_atom_site_fract_z
_atom_type_partial_charge
C1    C     C_R   0.621966 0.620622 0.501898 0.868416
C2    C     C_R   0.309435 0.798459 0.263969 -0.154745
C3    C     C_R   0.264417 0.827531 0.301976 0.152965
C4    C     C_R   0.380168 0.500583 0.379864 0.882806
C5    C     C_R   0.217153 0.776698 0.328198 -0.146939
C6    C     C_R   0.213780 0.697035 0.315521 0.076784
C7    C     C_R   0.258947 0.667869 0.276667 0.112271
C8    C     C_R   0.753424 0.767595 0.584833 0.107562
C9    C     C_R   0.814434 0.835370 0.584166 0.074379
C10   C     C_R   0.814623 0.818584 0.504955 -0.058663
C11   C     C_R   0.753213 0.739204 0.427657 -0.218379
C12   C     C_R   0.208582 0.170822 0.204863 -0.222313
C13   C     C_R   0.691110 0.674325 0.427708 -0.228199
C14   C     C_R   0.690651 0.688293 0.505336 -0.078841
C15   C     C_R   0.670834 0.482223 0.745967 -0.215940
C16   C     C_R   0.379536 0.379702 0.499704 0.922265
C17   C     C_R   0.733608 0.480717 0.809295 -0.182086
C18   C     C_R   0.813928 0.500340 0.813112 -0.068512
C19   C     C_R   0.831572 0.520765 0.753452 -0.160619
C20   C     C_R   0.768335 0.520469 0.688561 0.087295
C21   C     C_R   0.687835 0.501269 0.685541 -0.039782
C22   C     C_R   0.242890 0.324535 0.502408 0.044027
C23   C     C_R   0.179102 0.423261 0.178364 -0.263286
C24   C     C_R   0.178428 0.260607 0.503103 0.065601
C25   C     C_R   0.185688 0.187684 0.501156 -0.061566
C26   C     C_R   0.255655 0.177769 0.499505 -0.282216
C27   C     C_R   0.320047 0.240591 0.498685 0.082838
C28   C     C_R   0.620900 0.500672 0.619980 0.846016
C29   C     C_R   0.312977 0.313660 0.499753 -0.050718
C30   C     C_R   0.000170 0.620454 0.120268 0.866238
C31   C     C_R   0.119987 0.501083 0.121064 0.883412
C32   C     C_R   0.000218 0.379771 0.880282 0.877931
C33   C     C_R   0.879804 0.500120 0.879659 0.869214
C34   C     C_R   0.186085 0.503086 0.188737 -0.122024
C35   C     C_R   0.000337 0.880066 0.379884 0.856243
C36   C     C_R   0.880069 0.881376 0.501442 0.860130
C37   C     C_R   0.000104 0.120350 0.620226 0.865041
C38   C     C_R   0.119997 0.120592 0.500409 0.912066
C39   C     C_R   0.015265 0.765681 0.186977 -0.175446
C40   C     C_R   0.246678 0.207239 0.163472 0.144210
C41   C     C_R   0.014146 0.829189 0.250341 -0.207434
C42   C     C_R   0.000868 0.814401 0.314189 -0.008363
C43   C     C_R   0.987858 0.736730 0.315157 -0.195215
C44   C     C_R   0.986230 0.672090 0.250254 -0.174252
C45   C     C_R   0.256251 0.583439 0.261922 0.006520
C46   C     C_R   0.000479 0.686986 0.186674 -0.016359
C47   C     C_R   0.079138 0.311646 0.832064 0.106647
C48   C     C_R   0.078020 0.247127 0.766783 -0.210699
C49   C     C_R   0.000510 0.186820 0.686891 -0.043173
C50   C     C_R   0.923444 0.189399 0.671459 -0.188556
C51   C     C_R   0.923653 0.252423 0.736404 -0.229610
C52   C     C_R   0.257424 0.289065 0.173922 0.144281
C53   C     C_R   0.001227 0.313528 0.815592 -0.018460
C54   C     C_R   0.231574 0.334854 0.227412 0.023497
C55   C     C_R   0.193704 0.297583 0.268159 -0.194634
C56   C     C_R   0.321601 0.582971 0.324469 0.031904
C57   C     C_R   0.181336 0.215448 0.256632 0.152266
C58   C     C_R   0.314182 0.501630 0.314028 -0.124487
C59   C     C_R   0.242773 0.421537 0.240448 0.000149
C60   C     C_R   0.307230 0.719513 0.251897 -0.154516
H1    H     H_    0.182582 0.798775 0.358230 0.157912
H2    H     H_    0.863213 0.142154 0.609881 0.155520
H3    H     H_    0.173013 0.332232 0.308334 0.141588
H4    H     H_    0.124180 0.362077 0.121158 0.157961
H5    H     H_    0.199742 0.107561 0.196411 0.132292
H6    H     H_    0.330826 0.959140 0.358732 0.176041
H7    H     H_    0.227690 0.919331 0.338985 0.177704
H8    H     H_    0.206312 0.637793 0.387546 0.195216
H9    H     H_    0.115915 0.585633 0.288359 0.180603
H10   H     H_    0.803894 0.838379 0.718953 0.201640
H11   H     H_    0.769071 0.731411 0.676740 0.170105
H12   H     H_    0.753917 0.727327 0.367274 0.152509
H13   H     H_    0.913614 0.965878 0.654235 0.194308
H14   H     H_    0.833896 0.945280 0.677360 0.176912
H15   H     H_    0.893911 0.535719 0.756540 0.162018
H16   H     H_    0.258098 0.100159 0.105467 0.172638
H17   H     H_    0.341978 0.197550 0.141377 0.188066
H18   H     H_    0.777752 0.593804 0.629601 0.168744
H19   H     H_    0.745020 0.487208 0.565307 0.208635
H20   H     H_    0.237514 0.434775 0.559404 0.186336
H21   H     H_    0.178176 0.377846 0.448567 0.170292
H22   H     H_    0.131062 0.327902 0.563985 0.175813
H23   H     H_    0.642747 0.613425 0.366838 0.164281
H24   H     H_    0.071680 0.272748 0.452972 0.186168
H25   H     H_    0.259517 0.120643 0.498216 0.149739
H26   H     H_    0.448601 0.280509 0.559435 0.170266
H27   H     H_    0.385680 0.171539 0.492826 0.177054
H28   H     H_    0.026186 0.777191 0.137655 0.153926
H29   H     H_    0.210000 0.365254 0.914789 0.179627
H30   H     H_    0.148344 0.361660 0.962241 0.163191
H31   H     H_    0.249974 0.333971 0.088715 0.178660
H32   H     H_    0.350634 0.386199 0.177117 0.195819
H33   H     H_    0.863925 0.254600 0.724630 0.146940
H34   H     H_    0.608638 0.467405 0.743188 0.141685
H35   H     H_    0.138709 0.118360 0.285554 0.183071
H36   H     H_    0.076556 0.165056 0.269733 0.177801
H37   H     H_    0.393896 0.674162 0.454124 0.214032
H38   H     H_    0.452969 0.665979 0.402310 0.186631
H39   H     H_    0.342364 0.698014 0.222315 0.142062
H40   H     H_    0.346181 0.837132 0.243595 0.138494
H41   H     H_    0.720051 0.465530 0.855869 0.156816
H42   H     H_    0.024731 0.890000 0.250475 0.137150
H43   H     H_    0.977568 0.725840 0.365018 0.143921
H44   H     H_    0.975447 0.611405 0.250447 0.153917
H45   H     H_    0.137337 0.244291 0.777798 0.149068
N1    N     N_3   0.266740 0.908275 0.312745 -0.465320
N2    N     N_3   0.157902 0.374315 0.914925 -0.443479
N3    N     N_3   0.295075 0.324892 0.130229 -0.454405
N4    N     N_3   0.141135 0.178362 0.298086 -0.450688
N5    N     N_3   0.395469 0.665608 0.396832 -0.455529
N6    N     N_3   0.164546 0.647091 0.342901 -0.473309
N7    N     N_3   0.754516 0.777164 0.664884 -0.430131
N8    N     N_3   0.872558 0.920102 0.662728 -0.463529
N9    N     N_3   0.273881 0.161312 0.109825 -0.439247
N10   N     N_3   0.787884 0.541618 0.628126 -0.462995
N11   N     N_3   0.237066 0.399470 0.502543 -0.447188
N12   N     N_3   0.106554 0.269584 0.507387 -0.447335
N13   N     N_3   0.393407 0.231727 0.498595 -0.429129
O1    O     O_R   0.591640 0.539900 0.448310 -0.634963
O2    O     O_R   0.948270 0.908330 0.356580 -0.621592
O3    O     O_R   0.960090 0.908280 0.551610 -0.614800
O4    O     O_R   0.591610 0.643330 0.551710 -0.601576
O5    O     O_R   0.856650 0.908310 0.448190 -0.623254
O6    O     O_R   0.051730 0.091500 0.643240 -0.629583
O7    O     O_R   0.948290 0.091530 0.539820 -0.620069
O8    O     O_R   0.143350 0.091510 0.551630 -0.632736
O9    O     O_R   0.039910 0.091550 0.448210 -0.605304
O10   O     O_R   0.408400 0.448280 0.356670 -0.624663
O11   O     O_R   0.408370 0.551710 0.460080 -0.630319
O12   O     O_R   0.051750 0.643320 0.091550 -0.616580
O13   O     O_R   0.408390 0.356670 0.448290 -0.597980
O14   O     O_R   0.408360 0.460100 0.551690 -0.613334
O15   O     O_R   0.591630 0.448290 0.539920 -0.629177
O16   O     O_R   0.591600 0.551720 0.643330 -0.619348
O17   O     O_R   0.948300 0.539910 0.091570 -0.630200
O18   O     O_R   0.039910 0.448280 0.091610 -0.628539
O19   O     O_R   0.143370 0.551700 0.091590 -0.613225
O20   O     O_R   0.948300 0.356650 0.908390 -0.628788
O21   O     O_R   0.051750 0.460070 0.908380 -0.602043
O22   O     O_R   0.856690 0.448280 0.908350 -0.624320
O23   O     O_R   0.960140 0.551690 0.908340 -0.628414
O24   O     O_R   0.051710 0.908290 0.460000 -0.624681
Zn1   Zn    Zn3+2 0.500020 0.430940 0.430950 0.952259
Zn2   Zn    Zn3+2 0.499980 0.569060 0.569050 0.959618
Zn3   Zn    Zn3+2 0.930950 0.430940 0.999980 0.945845
Zn4   Zn    Zn3+2 0.069100 0.569040 0.999960 0.968523
Zn5   Zn    Zn3+2 0.069070 0.999890 0.568970 0.955300
Zn6   Zn    Zn3+2 0.930930 0.999930 0.430860 0.956112

loop_
_geom_bond_atom_site_label_1
_geom_bond_atom_site_label_2
_ccdc_geom_bond_type
O14   Zn2   S    
O21   Zn4   S    
H38   N5    S    
C22   C29   A    
H19   N10   S    
O12   Zn4   S    
O1    Zn1   S    
C6    N6    S    
C32   C53   S    
H18   N10   S    
O4    Zn2   S    
C60   H39   S    
C15   H34   S    
C38   O9    A    
C44   H44   S    
C39   C41   A    
O11   Zn2   S    
C23   C59   A    
C26   C27   A    
C28   O16   A    
C7    C45   S    
H30   N2    S    
C8    N7    S    
C1    O1    A    
C5    C6    A    
C2    C60   A    
C27   C29   A    
C33   O22   A    
H13   N8    S    
C41   H42   S    
C18   C19   A    
C41   C42   A    
C16   O13   A    
C35   C42   S    
C17   H41   S    
C1    O4    A    
H32   N3    S    
C40   N9    S    
H20   N11   S    
C45   C56   A    
C44   C46   A    
H24   N12   S    
O17   Zn3   S    
C55   H3    S    
H16   N9    S    
O3    Zn5   S    
C31   O19   A    
C9    C10   A    
O18   Zn3   S    
O9    Zn6   S    
C47   C53   A    
C22   N11   S    
C2    H40   S    
C48   H45   S    
C13   C14   A    
C35   O2    A    
C39   H28   S    
H6    N1    S    
C16   O14   A    
H31   N3    S    
C56   N5    S    
C38   O8    A    
C52   C54   A    
C50   C51   A    
C37   O7    A    
C54   C59   S    
C3    N1    S    
O6    Zn5   S    
C57   N4    S    
O15   Zn1   S    
C4    O10   A    
C28   O15   A    
O19   Zn4   S    
C36   O5    A    
C24   C25   A    
H27   N13   S    
H35   N4    S    
C11   H12   S    
C8    C9    A    
C33   O23   A    
C58   C59   A    
C40   C52   A    
H14   N8    S    
C51   C53   A    
H8    N6    S    
C12   C40   A    
C43   C44   A    
C32   O20   A    
C25   C38   S    
C37   O6    A    
C37   C49   S    
C47   C48   A    
C23   C34   A    
H11   N7    S    
H29   N2    S    
C17   C18   A    
C24   N12   S    
C31   C34   S    
C5    H1    S    
H26   N13   S    
C34   C45   A    
C20   C21   A    
C52   N3    S    
C6    C7    A    
H10   N7    S    
O23   Zn4   S    
C32   O21   A    
C39   C46   A    
C12   C57   A    
C48   C49   A    
C21   C28   S    
C51   H33   S    
O2    Zn6   S    
C47   N2    S    
C55   C57   A    
C50   H2    S    
C49   C50   A    
C22   C24   A    
C42   C43   A    
O10   Zn1   S    
H17   N9    S    
C7    C60   A    
O13   Zn1   S    
H36   N4    S    
C27   N13   S    
C15   C17   A    
C54   C55   A    
C23   H4    S    
C8    C14   A    
O24   Zn5   S    
C30   C46   S    
C31   O18   A    
C3    C5    A    
O7    Zn6   S    
O22   Zn3   S    
C20   N10   S    
O8    Zn5   S    
H7    N1    S    
C4    O11   A    
C12   H5    S    
C13   H23   S    
C9    N8    S    
C19   C20   A    
C19   H15   S    
C2    C3    A    
C25   C26   A    
C30   O12   A    
H37   N5    S    
C11   C13   A    
C26   H25   S    
H21   N11   S    
C56   C58   A    
C36   O3    A    
H9    N6    S    
C18   C33   S    
C43   H43   S    
C10   C11   A    
C35   O24   A    
O16   Zn2   S    
C15   C21   A    
O5    Zn6   S    
C16   C29   S    
C30   O17   A    
C4    C58   S    
C10   C36   S    
C1    C14   S    
O20   Zn3   S    
H22   N12   S    
