data_mof_unit_47164.cif
_audit_creation_date              2012-12-10T16:52:42-0500
_audit_creation_method            fapswitch 2.2
_symmetry_space_group_name_H-M    P1
_symmetry_Int_Tables_number       1
_space_group_crystal_system       triclinic
_cell_length_a                    12.976599
_cell_length_b                    10.894379
_cell_length_c                    9.86457
_cell_angle_alpha                 89.472924
_cell_angle_beta                  96.520203
_cell_angle_gamma                 91.471734
_cell_volume                      1385.06881205

loop_
_atom_site_label
_atom_site_type_symbol
_atom_type_description
_atom_site_fract_x
_atom_site_fract_y
_atom_site_fract_z
_atom_type_partial_charge
C1    C     C_R   0.503194 0.266139 0.501749 0.831864
C2    C     C_R   0.027213 0.544807 0.554268 0.030140
C3    C     C_R   0.971817 0.471852 0.450856 0.059708
C4    C     C_R   0.865154 0.455125 0.445939 -0.198557
C5    C     C_R   0.865009 0.581822 0.645801 -0.149246
C6    C     C_R   0.972183 0.602999 0.651046 0.442639
C7    C     C_2   0.561205 0.936313 0.436036 0.297545
C8    C     C_2   0.487491 0.867075 0.490418 0.222553
C9    C     C_2   0.545956 0.068079 0.413072 -0.165670
C10   C     C_2   0.513899 0.134827 0.511903 -0.230981
C11   C     C_2   0.418864 0.492290 0.917019 0.474362
C12   C     C_R   0.300717 0.500984 0.473720 0.818388
C13   C     C_2   0.425295 0.536012 0.063741 0.204484
C14   C     C_R   0.498428 0.734083 0.498643 0.793674
C15   C     C_R   0.698869 0.501679 0.526294 0.841863
C16   C     C_R   0.811622 0.510124 0.542341 -0.099644
C17   C     C_R   0.186928 0.499271 0.458006 -0.145890
C18   C     C_R   0.022647 0.419678 0.349457 -0.230847
C19   C     C_R   0.129197 0.438904 0.347777 0.473658
C20   C     C_R   0.135376 0.555954 0.557268 -0.178942
Cu1   Cu    Cu3+1 0.500020 0.500020 0.638640 1.128258
Cu2   Cu    Cu3+1 0.499980 0.499980 0.361360 1.088028
H1    H     H_    0.823373 0.399979 0.365761 0.129217
H2    H     H_    0.502285 0.092336 0.609448 0.190580
H3    H     H_    0.366899 0.595836 0.094698 0.046534
H4    H     H_    0.822022 0.626345 0.718105 0.234417
H5    H     H_    0.979379 0.366599 0.268529 0.155875
H6    H     H_    0.180773 0.607678 0.636853 0.224154
H7    H     H_    0.568178 0.110937 0.320535 0.163840
N1    N     N_2   0.498860 0.498660 0.846770 -0.055691
N2    N     N_2   0.498840 0.498630 0.152900 0.027195
O1    O     O_R   0.500020 0.321960 0.617050 -0.541142
O2    O     O_R   0.499980 0.321920 0.382890 -0.554649
O3    O     O_R   0.349010 0.500000 0.598060 -0.561412
O4    O     O_R   0.348980 0.499950 0.363910 -0.554580
O5    O     O_R   0.500020 0.678080 0.617110 -0.554493
O6    O     O_R   0.499980 0.678040 0.382950 -0.559864
O7    O     O_R   0.651020 0.500050 0.636090 -0.513300
O8    O     O_R   0.650990 0.500000 0.401940 -0.604235
S1    S     S_3+6 0.319470 0.380676 0.872846 0.010996
O9    O     O_2   0.219981 0.442173 0.823957 -0.331018
O10   O     O_2   0.347046 0.295829 0.764444 -0.257288
O11   O     O_3   0.302740 0.296192 0.012573 -0.504321
H8    H     H_    0.249901 0.232400 0.980987 0.381670
S2    S     S_3+6 0.610411 0.588942 0.907792 0.094866
O12   O     O_2   0.601016 0.659967 0.035313 -0.295751
O13   O     O_2   0.701313 0.505852 0.931336 -0.312442
O14   O     O_3   0.643310 0.695206 0.795281 -0.474269
H9    H     H_    0.702180 0.742850 0.843605 0.384518
O15   O     O_3   0.533741 0.389386 0.113144 -0.481193
C21   C     C_3   0.638961 0.375986 0.161855 0.052692
H10   H     H_    0.647647 0.320183 0.256426 0.109508
H11   H     H_    0.682954 0.464713 0.174289 0.200054
H12   H     H_    0.675253 0.321728 0.086257 0.137406
S3    S     S_3+6 0.031032 0.711778 0.770227 0.006846
O16   O     O_2   0.108262 0.649697 0.871349 -0.318343
O17   O     O_2   0.085941 0.809893 0.695523 -0.295988
O18   O     O_3   0.941103 0.777055 0.854407 -0.514151
H13   H     H_    0.980609 0.835288 0.918418 0.389465
O19   O     O_3   0.177491 0.394434 0.241142 -0.563163
C22   C     C_3   0.137000 0.451308 0.117366 -0.097873
H14   H     H_    0.076716 0.521339 0.125705 0.139846
H15   H     H_    0.103492 0.379668 0.044949 0.200531
H16   H     H_    0.201319 0.499847 0.073540 0.222358
S4    S     S_3+6 0.682573 0.878943 0.402702 0.028142
O20   O     O_2   0.728239 0.805040 0.523034 -0.273446
O21   O     O_2   0.668519 0.798221 0.279023 -0.237700
O22   O     O_3   0.765171 0.995911 0.375769 -0.493145
H17   H     H_    0.744376 0.023464 0.280844 0.342589
O23   O     O_3   0.392001 0.919555 0.504129 -0.602638
C23   C     C_3   0.342225 0.864023 0.609671 -0.176064
H18   H     H_    0.395080 0.859011 0.706591 0.171724
H19   H     H_    0.309816 0.771868 0.578581 0.139670
H20   H     H_    0.276238 0.921474 0.629273 0.236082

loop_
_geom_bond_atom_site_label_1
_geom_bond_atom_site_label_2
_ccdc_geom_bond_type
C12   C17   S    
C4    C16   A    
C23   H20   S    
O22   H17   S    
O11   H8    S    
C15   O7    A    
O23   C23   S    
C19   O19   S    
C7    S4    S    
C20   H6    S    
Cu1   N1    S    
N1    S2    S    
C8    O23   S    
C9    H7    S    
C6    S3    S    
S3    O16   D    
C21   H12   S    
C15   O8    A    
S1    O11   S    
S4    O22   S    
S1    O10   D    
C2    C3    A    
O18   H13   S    
C1    O2    A    
C23   H18   S    
S4    O20   D    
Cu1   O5    S    
C2    C6    A    
Cu1   Cu2   S    
C12   O4    A    
C14   O6    A    
Cu2   O4    S    
C11   C13   S    
C13   H3    S    
C11   S1    S    
C5    C6    A    
Cu2   O8    S    
O14   H9    S    
C17   C19   A    
O15   C21   S    
S3    O17   D    
C14   O5    A    
C22   H14   S    
Cu1   O1    S    
S3    O18   S    
C22   H16   S    
Cu2   N2    S    
Cu1   O7    S    
N2    O15   S    
C2    C20   A    
C15   C16   S    
C5    H4    S    
C7    C9    S    
C7    C8    D    
C17   C20   A    
C21   H10   S    
C3    C18   A    
C23   H19   S    
C18   C19   A    
C9    C10   D    
S2    O13   D    
C22   H15   S    
Cu2   O2    S    
S1    O9    D    
C5    C16   A    
C8    C14   S    
Cu1   O3    S    
S2    O14   S    
S4    O21   D    
C4    H1    S    
S2    O12   D    
Cu2   O6    S    
C12   O3    A    
C1    C10   S    
C13   N2    D    
C1    O1    A    
C10   H2    S    
C18   H5    S    
C3    C4    A    
C11   N1    D    
O19   C22   S    
C21   H11   S    
