data_mof_unit_27823.cif
_audit_creation_date              2012-10-26T21:25:51-0400
_audit_creation_method            fapswitch 2.2
_symmetry_space_group_name_H-M    P1
_symmetry_Int_Tables_number       1
_space_group_crystal_system       triclinic
_cell_length_a                    10.932276
_cell_length_b                    10.919671
_cell_length_c                    12.691511
_cell_angle_alpha                 92.121508
_cell_angle_beta                  93.059285
_cell_angle_gamma                 90.735891
_cell_volume                      1511.70976794

loop_
_atom_site_label
_atom_site_type_symbol
_atom_type_description
_atom_site_fract_x
_atom_site_fract_y
_atom_site_fract_z
_atom_type_partial_charge
C1    C     C_R   0.261853 0.498518 0.500697 0.576453
C2    C     C_R   0.838840 0.736566 0.335157 -0.117173
C3    C     C_R   0.134456 0.388228 0.673071 0.073390
C4    C     C_R   0.865807 0.611494 0.326912 0.054018
C5    C     C_R   0.155496 0.453566 0.770611 0.177194
C6    C     C_R   0.844078 0.546399 0.229102 0.171362
C7    C     C_R   0.202110 0.391420 0.858765 -0.078061
C8    C     C_R   0.796671 0.607923 0.141553 -0.046251
C9    C     C_R   0.225780 0.266148 0.850203 -0.114559
C10   C     C_R   0.773015 0.733208 0.150002 -0.123043
C11   C     C_R   0.938039 0.444474 0.580811 0.216780
C12   C     C_R   0.738169 0.501389 0.499328 0.576817
C13   C     C_R   0.062052 0.555778 0.419577 0.189063
C14   C     C_R   0.871911 0.501018 0.498476 -0.004047
C15   C     C_R   0.128155 0.498874 0.501651 -0.003583
C16   C     C_R   0.502113 0.261808 0.501885 0.532512
C17   C     C_R   0.498028 0.738188 0.498119 0.535175
C18   C     C_R   0.933345 0.554898 0.416512 -0.089248
C19   C     C_R   0.066766 0.444947 0.583622 -0.060047
C20   C     C_2   0.474592 0.458734 0.031139 -0.112859
C21   C     C_2   0.525444 0.541058 0.968859 -0.142461
C22   C     C_1   0.521840 0.527399 0.852869 0.156764
C23   C     C_R   0.496861 0.871645 0.495077 -0.003401
C24   C     C_1   0.478140 0.472520 0.147129 0.190650
C25   C     C_R   0.686495 0.240274 0.832997 0.261300
C26   C     C_R   0.310111 0.763643 0.166952 0.319230
C27   C     C_R   0.656692 0.195632 0.729359 -0.020895
C28   C     C_R   0.342441 0.805710 0.270888 -0.032051
C29   C     C_R   0.553559 0.119609 0.706436 -0.010186
C30   C     C_R   0.446556 0.880404 0.293618 -0.016353
C31   C     C_R   0.483701 0.083586 0.789963 -0.171895
C32   C     C_R   0.515696 0.916833 0.209791 -0.145611
C33   C     C_R   0.514136 0.124502 0.893463 -0.110376
C34   C     C_R   0.503659 0.128337 0.504933 -0.005109
C35   C     C_R   0.484480 0.876498 0.106292 -0.155372
C36   C     C_R   0.616644 0.200115 0.916867 0.239409
C37   C     C_R   0.381177 0.800332 0.083344 0.242211
C38   C     C_R   0.523064 0.936168 0.591233 -0.148711
C39   C     C_R   0.477599 0.063805 0.408773 -0.149067
C40   C     C_R   0.474065 0.936623 0.401369 -0.027244
C41   C     C_R   0.526580 0.063350 0.598635 -0.024816
C42   C     C_R   0.204856 0.202191 0.753496 -0.104752
C43   C     C_R   0.794660 0.797373 0.246569 -0.106714
C44   C     C_R   0.161328 0.263157 0.664826 -0.127449
Cu1   Cu    Cu3+1 0.492140 0.492110 0.395880 1.033182
Cu2   Cu    Cu3+1 0.507860 0.507890 0.604120 1.024968
H1    H     H_    0.217380 0.439349 0.934615 0.115228
H2    H     H_    0.540009 0.906419 0.043711 0.108115
H3    H     H_    0.543217 0.886901 0.662611 0.144387
H4    H     H_    0.457352 0.113076 0.337417 0.152235
H5    H     H_    0.258711 0.218265 0.919008 0.113126
H6    H     H_    0.739507 0.780897 0.081283 0.110292
H7    H     H_    0.219043 0.104531 0.747570 0.116983
H8    H     H_    0.780422 0.895020 0.252463 0.116298
H9    H     H_    0.142607 0.211760 0.590951 0.101984
H10   H     H_    0.857858 0.788072 0.408935 0.107514
H11   H     H_    0.735782 0.248863 0.030301 0.342952
H12   H     H_    0.781122 0.559069 0.066155 0.125816
H13   H     H_    0.405272 0.798452 0.932385 0.315829
H14   H     H_    0.185863 0.629339 0.735032 0.242004
H15   H     H_    0.141134 0.613919 0.858094 0.245931
H16   H     H_    0.823611 0.370809 0.271006 0.244395
H17   H     H_    0.965519 0.408289 0.234251 0.254733
H18   H     H_    0.923884 0.326100 0.692275 0.351465
H19   H     H_    0.076490 0.676188 0.310107 0.352421
H20   H     H_    0.768432 0.376186 0.911442 0.331053
H21   H     H_    0.197394 0.663185 0.074527 0.361658
H22   H     H_    0.569827 0.622701 0.004986 0.119122
H23   H     H_    0.430133 0.377121 0.995019 0.134393
H24   H     H_    0.713228 0.220698 0.666022 0.168435
H25   H     H_    0.285354 0.782073 0.334280 0.166149
H26   H     H_    0.407563 0.019904 0.775348 0.115260
H27   H     H_    0.592269 0.980009 0.224279 0.133511
H28   H     H_    0.459741 0.093897 0.956546 0.136614
N1    N     N_1   0.480320 0.480250 0.239400 -0.175850
N2    N     N_1   0.519680 0.519750 0.760600 -0.178488
N3    N     N_3   0.125500 0.581105 0.780021 -0.592981
N4    N     N_3   0.871897 0.419043 0.216550 -0.629763
O1    O     O_R   0.313000 0.493330 0.412070 -0.433617
O2    O     O_3   0.346737 0.763376 0.980633 -0.744758
O3    O     O_3   0.873334 0.388234 0.656722 -0.647968
O4    O     O_3   0.126667 0.612512 0.343901 -0.660132
O5    O     O_3   0.782922 0.322542 0.848875 -0.681625
O6    O     O_3   0.207631 0.688928 0.150124 -0.680589
O7    O     O_R   0.687000 0.506670 0.587930 -0.427907
O8    O     O_R   0.326280 0.506660 0.587930 -0.521907
O9    O     O_R   0.673720 0.493340 0.412070 -0.519114
O10   O     O_R   0.493370 0.312980 0.412070 -0.515616
O11   O     O_R   0.506630 0.687020 0.587930 -0.519750
O12   O     O_R   0.506650 0.326310 0.587930 -0.495598
O13   O     O_R   0.493350 0.673690 0.412070 -0.495664
O14   O     O_3   0.647244 0.228574 0.021898 -0.725720

loop_
_geom_bond_atom_site_label_1
_geom_bond_atom_site_label_2
_ccdc_geom_bond_type
C16   O12   A    
H11   O14   S    
C27   C29   A    
C14   C18   A    
C9    H5    S    
C22   N2    T    
C10   H6    S    
Cu2   N2    S    
C38   H3    S    
Cu1   Cu2   S    
C11   O3    S    
C15   C19   A    
C11   C19   A    
C9    C42   A    
C17   C23   S    
C13   C18   A    
Cu1   O9    S    
C42   H7    S    
C11   C14   A    
C6    N4    S    
C23   C40   A    
C33   C36   A    
C16   C34   S    
H20   O5    S    
C20   C24   S    
H15   N3    S    
C17   O13   A    
C31   C33   A    
C3    C19   S    
C1    C15   S    
Cu2   O7    S    
C4    C18   S    
C36   O14   S    
H21   O6    S    
C21   C22   S    
C34   C41   A    
C42   C44   A    
C35   H2    S    
C3    C44   A    
C37   O2    S    
C16   O10   A    
H14   N3    S    
C34   C39   A    
C32   C35   A    
Cu1   O10   S    
C17   O11   A    
C38   C41   A    
C4    C6    A    
C26   C37   A    
C32   H27   S    
Cu2   O11   S    
C6    C8    A    
C13   O4    S    
C7    H1    S    
C2    C4    A    
C43   H8    S    
C2    C43   A    
C30   C40   S    
Cu1   O1    S    
C27   H24   S    
C12   O7    A    
C31   H26   S    
C12   C14   S    
C13   C15   A    
C21   H22   S    
C1    O1    A    
C20   H23   S    
C28   H25   S    
C5    N3    S    
C39   C40   A    
C35   C37   A    
C5    C7    A    
C1    O8    A    
C7    C9    A    
C26   O6    S    
C12   O9    A    
C29   C41   S    
C10   C43   A    
H16   N4    S    
C3    C5    A    
H13   O2    S    
C24   N1    T    
Cu2   O12   S    
C25   C27   A    
C23   C38   A    
C26   C28   A    
Cu1   N1    S    
C28   C30   A    
C29   C31   A    
C2    H10   S    
C30   C32   A    
C44   H9    S    
H19   O4    S    
Cu1   O13   S    
H18   O3    S    
C25   C36   A    
C33   H28   S    
C39   H4    S    
C8    H12   S    
C20   C21   D    
C8    C10   A    
C25   O5    S    
Cu2   O8    S    
H17   N4    S    
