data_mof_unit_38718.cif
_audit_creation_date              2012-12-10T18:13:37-0500
_audit_creation_method            fapswitch 2.2
_symmetry_space_group_name_H-M    P1
_symmetry_Int_Tables_number       1
_space_group_crystal_system       triclinic
_cell_length_a                    12.663208
_cell_length_b                    13.155587
_cell_length_c                    16.916212
_cell_angle_alpha                 89.613937
_cell_angle_beta                  96.789826
_cell_angle_gamma                 97.448889
_cell_volume                      2774.61871666

loop_
_atom_site_label
_atom_site_type_symbol
_atom_type_description
_atom_site_fract_x
_atom_site_fract_y
_atom_site_fract_z
_atom_type_partial_charge
C1    C     C_R   0.558778 0.690707 0.514245 0.812123
C2    C     C_R   0.485790 0.530509 0.732719 -0.084394
C3    C     C_R   0.278824 0.059889 0.534972 -0.221946
C4    C     C_R   0.515500 0.501143 0.350198 0.926443
C5    C     C_R   0.404724 0.199839 0.496280 -0.050427
C6    C     C_R   0.702020 0.838517 0.526439 -0.201079
C7    C     C_R   0.733383 0.943552 0.527394 -0.151100
C8    C     C_R   0.656846 0.010262 0.527702 -0.191718
C9    C     C_R   0.547635 0.972190 0.531907 0.081292
C10   C     C_R   0.519936 0.866791 0.544440 0.096172
C11   C     C_R   0.464837 0.035137 0.524052 0.077096
C12   C     C_R   0.631896 0.570030 0.248739 0.439360
C13   C     C_R   0.360405 0.996620 0.541829 0.190383
C14   C     C_R   0.339443 0.895967 0.566830 -0.276799
C15   C     C_R   0.418511 0.831990 0.568967 -0.205620
C16   C     C_R   0.440395 0.308894 0.491461 0.887494
C17   C     C_R   0.482537 0.134652 0.496293 -0.269135
C18   C     C_R   0.301290 0.161888 0.513013 -0.193845
C19   C     C_R   0.594402 0.799444 0.531121 -0.103063
C20   C     C_R   0.879438 0.311549 0.569215 -0.285716
C21   C     C_R   0.214244 0.637995 0.413664 0.009085
C22   C     C_R   0.113523 0.668619 0.394823 -0.266407
C23   C     C_R   0.549083 0.506872 0.869720 -0.235835
C24   C     C_R   0.025124 0.613087 0.423398 -0.154842
C25   C     C_R   0.037056 0.525707 0.470782 -0.047361
C26   C     C_R   0.141081 0.495905 0.488228 0.117480
C27   C     C_R   0.950094 0.468017 0.503294 -0.019610
C28   C     C_R   0.487295 0.506798 0.649747 0.873513
C29   C     C_R   0.962762 0.370568 0.536343 0.120601
C30   C     C_R   0.061364 0.336573 0.543347 -0.396959
C31   C     C_R   0.151922 0.406646 0.535727 0.475924
C32   C     C_R   0.851322 0.503404 0.506353 0.005692
C33   C     C_R   0.784946 0.351728 0.572042 0.011965
C34   C     C_R   0.544150 0.478375 0.790841 -0.221610
C35   C     C_R   0.531659 0.521133 0.267535 -0.263002
C36   C     C_R   0.444727 0.500356 0.207621 0.406603
C37   C     C_R   0.459871 0.525181 0.129325 -0.275192
C38   C     C_R   0.559211 0.573862 0.110945 0.060040
C39   C     C_R   0.645497 0.592727 0.170014 -0.259976
C40   C     C_3   0.267038 0.510471 0.213862 0.123616
C41   C     C_3   0.168082 0.458036 0.247743 -0.772135
C42   C     C_3   0.278941 0.716372 0.826512 0.048948
C43   C     C_3   0.259387 0.804907 0.769896 -0.319113
C44   C     C_3   0.143042 0.794738 0.731844 -0.987648
C45   C     C_R   0.432527 0.611706 0.753406 -0.311000
C46   C     C_3   0.241936 0.357050 0.657398 0.107216
C47   C     C_3   0.193880 0.432103 0.708061 -0.385938
C48   C     C_3   0.213235 0.407913 0.796560 -0.959774
C49   C     C_3   0.718104 0.693677 0.336727 0.103955
C50   C     C_3   0.788871 0.772545 0.292367 -0.392220
C51   C     C_3   0.810476 0.875742 0.335816 -0.943334
C52   C     C_R   0.435576 0.640254 0.833227 0.515846
C53   C     C_R   0.497049 0.589162 0.891077 0.090455
C54   C     C_2   0.576873 0.594970 0.028720 -0.195149
C55   C     C_2   0.495935 0.613034 0.974907 -0.164753
H1    H     H_    0.239238 0.211190 0.511646 0.178925
H2    H     H_    0.585344 0.415469 0.775212 0.159454
H3    H     H_    0.069236 0.261101 0.567314 0.148564
H4    H     H_    0.888364 0.236699 0.594406 0.139512
H5    H     H_    0.833475 0.575732 0.481857 0.114468
H6    H     H_    0.283170 0.681153 0.391595 0.138102
H7    H     H_    0.948064 0.638275 0.406010 0.153839
H8    H     H_    0.103908 0.735176 0.357997 0.149396
H9    H     H_    0.390597 0.653976 0.707490 0.142960
H10   H     H_    0.422129 0.633623 0.993517 0.165462
H11   H     H_    0.723309 0.626385 0.155122 0.153577
H12   H     H_    0.261249 0.866016 0.583148 0.158920
H13   H     H_    0.591860 0.462772 0.914040 0.160002
H14   H     H_    0.654411 0.584531 0.010689 0.153854
H15   H     H_    0.394940 0.502684 0.082728 0.152866
H16   H     H_    0.244793 0.524249 0.149452 0.121803
H17   H     H_    0.292045 0.585495 0.245365 0.131067
H18   H     H_    0.188227 0.440812 0.311689 0.266843
H19   H     H_    0.104223 0.508971 0.241886 0.202513
H20   H     H_    0.137691 0.385271 0.214955 0.247758
H21   H     H_    0.233691 0.722990 0.878246 0.157539
H22   H     H_    0.245332 0.641765 0.797068 0.132532
H23   H     H_    0.198896 0.031313 0.548646 0.132825
H24   H     H_    0.279138 0.878708 0.803299 0.231587
H25   H     H_    0.312684 0.806204 0.722305 0.221629
H26   H     H_    0.123265 0.723475 0.695260 0.264849
H27   H     H_    0.131048 0.861354 0.692675 0.260665
H28   H     H_    0.088010 0.792915 0.778473 0.270873
H29   H     H_    0.325061 0.351107 0.684534 0.158841
H30   H     H_    0.199953 0.277957 0.660236 0.109271
H31   H     H_    0.230146 0.511568 0.697466 0.230072
H32   H     H_    0.106064 0.427432 0.690656 0.216819
H33   H     H_    0.177325 0.328328 0.807830 0.268189
H34   H     H_    0.557818 0.164018 0.475513 0.159229
H35   H     H_    0.175495 0.461558 0.831346 0.255323
H36   H     H_    0.300521 0.416503 0.817129 0.273672
H37   H     H_    0.752557 0.694139 0.399975 0.162476
H38   H     H_    0.636087 0.716607 0.336192 0.103589
H39   H     H_    0.866659 0.744149 0.286914 0.230151
H40   H     H_    0.748383 0.783863 0.231678 0.217640
H41   H     H_    0.733757 0.904860 0.343493 0.276399
H42   H     H_    0.858255 0.932126 0.300663 0.267774
H43   H     H_    0.856710 0.868023 0.395083 0.255252
H44   H     H_    0.761751 0.788118 0.520456 0.146861
H45   H     H_    0.685767 0.091086 0.527116 0.129873
H46   H     H_    0.816620 0.973412 0.524498 0.140830
H47   H     H_    0.399325 0.755482 0.591028 0.171902
H48   H     H_    0.718339 0.306838 0.595791 0.134381
N1    N     N_R   0.774070 0.445420 0.541180 -0.110501
N2    N     N_R   0.226730 0.554050 0.459240 -0.119476
O1    O     O_R   0.631480 0.627510 0.519670 -0.628676
O2    O     O_3   0.389397 0.724334 0.855444 -0.652528
O3    O     O_3   0.248586 0.390997 0.577690 -0.599627
O4    O     O_3   0.718249 0.593484 0.306636 -0.629128
O5    O     O_R   0.455770 0.662400 0.493360 -0.635164
O6    O     O_R   0.598240 0.480510 0.398910 -0.571366
O7    O     O_R   0.422540 0.515400 0.372600 -0.601200
O8    O     O_R   0.544230 0.337600 0.506640 -0.637769
O9    O     O_R   0.368520 0.372490 0.480330 -0.555737
O10   O     O_R   0.577460 0.484600 0.627400 -0.617449
O11   O     O_R   0.401760 0.519490 0.601090 -0.571399
O12   O     O_3   0.348870 0.446403 0.224926 -0.588799
Zn1   Zn    Zn3+2 0.617320 0.476700 0.517570 0.954431
Zn2   Zn    Zn3+2 0.382680 0.523300 0.482430 0.968857

loop_
_geom_bond_atom_site_label_1
_geom_bond_atom_site_label_2
_ccdc_geom_bond_type
C51   H42   S    
C40   H16   S    
C27   C29   A    
C33   N1    A    
C31   O3    S    
C35   C36   A    
C44   H28   S    
C16   O8    A    
C7    C8    A    
C6    C19   A    
C29   C30   A    
O6    Zn1   S    
C21   C22   A    
C36   C37   A    
C44   H27   S    
C10   C15   A    
C38   C39   A    
C50   H40   S    
C5    C17   A    
C43   H24   S    
C3    C18   A    
C5    C16   S    
C28   O11   A    
C22   H8    S    
C46   C47   S    
C52   O2    S    
C8    C9    A    
C48   H36   S    
C46   O3    S    
C34   H2    S    
C14   H12   S    
C32   N1    A    
C9    C10   A    
C21   H6    S    
O9    Zn2   S    
C3    C13   A    
C18   H1    S    
C1    O1    A    
C46   H30   S    
C2    C34   A    
C51   H43   S    
C40   O12   S    
C4    O7    A    
C4    C35   S    
C26   C31   A    
C48   H35   S    
C13   C14   A    
O1    Zn1   S    
C26   N2    A    
C12   O4    S    
C55   H10   S    
C23   C53   A    
N1    Zn1   S    
C20   C29   A    
C53   C55   S    
C2    C45   A    
C1    C19   S    
C47   H31   S    
C17   H34   S    
C24   C25   A    
C44   H26   S    
C50   H39   S    
C5    C18   A    
C45   C52   A    
C25   C26   A    
C20   H4    S    
C47   H32   S    
C23   H13   S    
C43   C44   S    
C37   C38   A    
C28   O10   A    
C1    O5    A    
C41   H20   S    
C47   C48   S    
C38   C54   S    
C10   C19   A    
O10   Zn1   S    
C48   H33   S    
C50   C51   S    
C12   C35   A    
C36   O12   S    
C9    C11   A    
C46   H29   S    
C20   C33   A    
C40   C41   S    
C4    O6    A    
C39   H11   S    
C22   C24   A    
C42   C43   S    
C32   H5    S    
C49   H37   S    
C52   C53   A    
C49   O4    S    
C42   O2    S    
C54   C55   D    
C11   C17   A    
C23   C34   A    
C24   H7    S    
C40   H17   S    
C27   C32   A    
C33   H48   S    
C16   O9    A    
O5    Zn2   S    
O7    Zn2   S    
C6    C7    A    
C25   C27   A    
C51   H41   S    
C45   H9    S    
C42   H21   S    
O11   Zn2   S    
C6    H44   S    
C12   C39   A    
C43   H25   S    
C41   H19   S    
C11   C13   A    
C30   C31   A    
C54   H14   S    
C30   H3    S    
C15   H47   S    
C8    H45   S    
C41   H18   S    
O8    Zn1   S    
C42   H22   S    
C49   C50   S    
C7    H46   S    
C14   C15   A    
N2    Zn2   S    
C2    C28   S    
C49   H38   S    
C37   H15   S    
C3    H23   S    
C21   N2    A    
