data_mof_unit_5825.cif
_audit_creation_date              2012-12-11T15:31:53-0500
_audit_creation_method            fapswitch 2.2
_symmetry_space_group_name_H-M    P1
_symmetry_Int_Tables_number       1
_space_group_crystal_system       triclinic
_cell_length_a                    13.574317
_cell_length_b                    13.585312
_cell_length_c                    27.651053
_cell_angle_alpha                 90.413836
_cell_angle_beta                  90.268747
_cell_angle_gamma                 119.926308
_cell_volume                      4418.96649231

loop_
_atom_site_label
_atom_site_type_symbol
_atom_type_description
_atom_site_fract_x
_atom_site_fract_y
_atom_site_fract_z
_atom_type_partial_charge
C1    C     C_R   0.619442 0.898290 0.431306 0.545526
C2    C     C_R   0.631164 0.234744 0.208614 -0.102032
C3    C     C_R   0.620385 0.217342 0.258544 -0.100648
C4    C     C_R   0.666089 0.310398 0.290705 0.042091
C5    C     C_R   0.687942 0.345393 0.190654 0.042480
C6    C     C_1   0.694561 0.365238 0.139423 -0.051188
C7    C     C_1   0.650148 0.290512 0.341854 -0.054659
C8    C     C_1   0.701841 0.390725 0.097406 -0.005531
C9    C     C_1   0.232168 0.862699 0.382767 -0.010502
C10   C     C_R   0.072751 0.794076 0.271021 -0.103223
C11   C     C_R   0.053947 0.785023 0.221002 -0.101215
C12   C     C_R   0.599654 0.218524 0.431327 0.544321
C13   C     C_R   0.257418 0.884216 0.207552 -0.101337
C14   C     C_R   0.276225 0.893385 0.257574 -0.100729
C15   C     C_R   0.183983 0.847820 0.289403 0.042172
C16   C     C_R   0.146168 0.829543 0.189167 0.042331
C17   C     C_1   0.124724 0.814362 0.137872 -0.050389
C18   C     C_1   0.205240 0.854245 0.340688 -0.054614
C19   C     C_1   0.097398 0.794822 0.095830 -0.001769
C20   C     C_1   0.634398 0.865661 0.383680 -0.010574
C21   C     C_R   0.600192 0.874125 0.258193 -0.100725
C22   C     C_R   0.607933 0.862513 0.208267 -0.101512
C23   C     C_R   0.279307 0.878760 0.430590 0.544867
C24   C     C_R   0.708637 0.759764 0.222790 -0.101043
C25   C     C_R   0.700997 0.771479 0.272722 -0.103225
C26   C     C_R   0.647161 0.829149 0.290525 0.042113
C27   C     C_R   0.662609 0.805682 0.190457 0.042387
C28   C     C_1   0.675762 0.797001 0.139240 -0.050345
C29   C     C_1   0.641922 0.845778 0.341722 -0.054604
C30   C     C_1   0.693148 0.787280 0.097237 -0.002721
C31   C     C_R   0.645011 0.291665 0.612363 0.019968
C32   C     C_R   0.746973 0.310230 0.633839 -0.114340
C33   C     C_R   0.773126 0.350266 0.681264 -0.102275
C34   C     C_R   0.620356 0.901844 0.569391 0.548187
C35   C     C_R   0.696978 0.370893 0.707476 0.030511
C36   C     C_R   0.599931 0.360811 0.684370 -0.117391
C37   C     C_R   0.575114 0.323166 0.637036 -0.127371
C38   C     C_R   0.672331 0.460698 0.780643 -0.129862
C39   C     C_R   0.664183 0.465026 0.830111 -0.119510
C40   C     C_R   0.746046 0.343153 0.839836 -0.103146
C41   C     C_R   0.748500 0.333617 0.789631 -0.093040
C42   C     C_R   0.710526 0.391865 0.759774 0.022768
C43   C     C_R   0.700863 0.406603 0.860030 0.032101
C44   C     C_R   0.219595 0.860968 0.614042 0.022526
C45   C     C_R   0.602185 0.224071 0.568129 0.543971
C46   C     C_R   0.227355 0.953221 0.640511 -0.123703
C47   C     C_R   0.198169 0.940836 0.689063 -0.107614
C48   C     C_R   0.159880 0.835878 0.711499 0.036110
C49   C     C_R   0.142248 0.741273 0.683964 -0.119245
C50   C     C_R   0.172079 0.753737 0.635486 -0.122899
C51   C     C_R   0.183449 0.766212 0.791153 -0.099685
C52   C     C_R   0.162164 0.749893 0.840684 0.240681
C53   C     C_R   0.067397 0.862020 0.835996 -0.168318
C54   C     C_R   0.089057 0.877204 0.786962 -0.134811
C55   C     C_R   0.143581 0.826148 0.763951 -0.017964
C56   C     C_R   0.279106 0.881216 0.568036 0.543427
C57   C     C_R   0.097954 0.793656 0.863000 0.006120
C58   C     C_R   0.639526 0.868486 0.617181 -0.018702
C59   C     C_R   0.564027 0.760773 0.635429 -0.139036
C60   C     C_R   0.569903 0.737695 0.683943 -0.173672
C61   C     C_R   0.650051 0.822415 0.714651 0.008092
C62   C     C_R   0.728142 0.930292 0.696530 0.251748
C63   C     C_R   0.722957 0.951647 0.647703 -0.118514
C64   C     C_R   0.734622 0.764028 0.778567 -0.083356
C65   C     C_R   0.752460 0.753517 0.827071 -0.113644
C66   C     C_R   0.606830 0.799725 0.848897 -0.079840
C67   C     C_1   0.630982 0.264577 0.383768 -0.010491
C68   C     C_R   0.589437 0.811270 0.799933 -0.047037
C69   C     C_R   0.655193 0.795513 0.765024 0.051964
C70   C     C_R   0.690036 0.772933 0.862241 0.033328
C71   C     C_R   0.049535 0.761268 0.048177 0.554363
C72   C     C_R   0.714376 0.435763 0.049701 0.544271
C73   C     C_R   0.723626 0.770835 0.049510 0.549324
C74   C     C_R   0.044814 0.756290 0.910592 0.567239
C75   C     C_R   0.709294 0.432723 0.911264 0.533261
C76   C     C_R   0.717007 0.765305 0.912168 0.535464
C77   C     C_R   0.723866 0.421043 0.272764 -0.103293
C78   C     C_R   0.734757 0.438446 0.222827 -0.100706
Cr1   Cr    Cr6+3 0.417720 0.831920 0.499820 1.027623
Cr2   Cr    Cr6+3 0.668190 0.085770 0.500360 1.027317
Cr3   Cr    Cr6+3 0.414060 0.082260 0.499840 1.025808
Cr4   Cr    Cr6+3 0.908000 0.821090 0.979770 1.048477
Cr5   Cr    Cr6+3 0.912420 0.571130 0.979880 1.100819
Cr6   Cr    Cr6+3 0.657970 0.566940 0.980940 1.055039
H1    H     H_    0.759244 0.493549 0.297232 0.103707
H2    H     H_    0.572463 0.898720 0.183681 0.107394
H3    H     H_    0.751508 0.715972 0.209373 0.097866
H4    H     H_    0.737882 0.736679 0.297307 0.103702
H5    H     H_    0.802975 0.287676 0.615130 0.137571
H6    H     H_    0.646501 0.509793 0.758708 0.105732
H7    H     H_    0.633050 0.518157 0.845093 0.143403
H8    H     H_    0.849847 0.360135 0.698021 0.145974
H9    H     H_    0.777393 0.278956 0.774349 0.182265
H10   H     H_    0.777903 0.300635 0.862725 0.147480
H11   H     H_    0.538301 0.374159 0.703663 0.110139
H12   H     H_    0.778364 0.524457 0.209270 0.098177
H13   H     H_    0.496410 0.310506 0.621208 0.131144
H14   H     H_    0.263770 0.036915 0.624833 0.131895
H15   H     H_    0.230435 0.731326 0.773452 0.129683
H16   H     H_    0.211999 0.014835 0.709674 0.122697
H17   H     H_    0.058580 0.924656 0.766628 0.171011
H18   H     H_    0.019424 0.897967 0.851921 0.171166
H19   H     H_    0.109447 0.658738 0.700422 0.112371
H20   H     H_    0.163978 0.681013 0.615613 0.130313
H21   H     H_    0.498524 0.695727 0.612586 0.135430
H22   H     H_    0.594145 0.162252 0.184133 0.106684
H23   H     H_    0.785530 0.751832 0.751685 0.124601
H24   H     H_    0.815825 0.731068 0.837363 0.107154
H25   H     H_    0.510870 0.654379 0.697803 0.119345
H26   H     H_    0.528246 0.836322 0.789302 0.153264
H27   H     H_    0.558326 0.814445 0.876091 0.166413
H28   H     H_    0.780261 0.035529 0.634048 0.158458
H29   H     H_    0.575262 0.131350 0.272080 0.098640
H30   H     H_    0.000854 0.758267 0.295220 0.103479
H31   H     H_    0.967483 0.742107 0.207124 0.097867
H32   H     H_    0.329287 0.918471 0.183345 0.107620
H33   H     H_    0.362667 0.934882 0.271449 0.098544
H34   H     H_    0.558613 0.919196 0.271604 0.098413
O1    O     O_R   0.302900 0.805360 0.446400 -0.505017
O2    O     O_R   0.657980 0.180990 0.549630 -0.503938
O3    O     O_R   0.503420 0.197810 0.553190 -0.522701
O4    O     O_R   0.320350 0.978840 0.548910 -0.503607
O5    O     O_3   0.499990 0.999990 0.500010 -0.247211
O6    O     O_R   0.819150 0.845650 0.033320 -0.500918
O7    O     O_R   0.006060 0.815720 0.028680 -0.494785
O8    O     O_R   0.028100 0.664460 0.032550 -0.487527
O9    O     O_R   0.811290 0.477490 0.029660 -0.494758
O10   O     O_R   0.638120 0.455970 0.034270 -0.499088
O11   O     O_R   0.667540 0.672320 0.030160 -0.488782
O12   O     O_R   0.522090 0.841370 0.450730 -0.494278
O13   O     O_R   0.814460 0.840990 0.926980 -0.497400
O14   O     O_R   0.001710 0.811400 0.930110 -0.520153
O15   O     O_R   0.023410 0.659800 0.926210 -0.426555
O16   O     O_R   0.806940 0.473170 0.931090 -0.491065
O17   O     O_R   0.633420 0.451310 0.927930 -0.510218
O18   O     O_R   0.663190 0.668000 0.931580 -0.497989
O19   O     O_3   0.826130 0.653050 0.980200 -0.275452
O20   O     O_R   0.693280 0.995650 0.447220 -0.503539
O21   O     O_R   0.657260 0.178740 0.451050 -0.494315
O22   O     O_R   0.502640 0.195380 0.446850 -0.504587
O23   O     O_R   0.319630 0.976590 0.450330 -0.493216
O24   O     O_R   0.303680 0.807790 0.552740 -0.517480
O25   O     O_R   0.522820 0.843620 0.549310 -0.497597
O26   O     O_R   0.694060 0.998080 0.553560 -0.520493
S1    S     S_3+6 0.217870 0.675526 0.872607 0.024256
O27   O     O_2   0.258963 0.728130 0.921878 -0.236947
O28   O     O_2   0.126466 0.553636 0.878238 -0.263656
O29   O     O_3   0.327428 0.680073 0.842470 -0.553492
H35   H     H_    0.292913 0.613977 0.820001 0.344604
S2    S     S_3+6 0.829153 0.041385 0.734291 -0.007178
O30   O     O_2   0.769339 0.059690 0.776001 -0.257405
O31   O     O_2   0.912799 0.009473 0.753843 -0.310303
O32   O     O_3   0.899628 0.163570 0.703652 -0.543043
H36   H     H_    0.957870 0.156417 0.684962 0.339487

loop_
_geom_bond_atom_site_label_1
_geom_bond_atom_site_label_2
_ccdc_geom_bond_type
Cr6   O10   S    
C48   C55   S    
C66   C68   A    
C21   C26   A    
Cr2   O2    S    
Cr6   O17   S    
C50   H20   S    
C52   S1    S    
C74   O14   A    
C15   C18   S    
C41   C42   A    
C54   H17   S    
C19   C71   S    
C35   C36   A    
C24   C27   A    
C37   H13   S    
S1    O27   D    
C76   O18   A    
C75   O16   A    
C66   C70   A    
C77   C78   A    
C34   O26   A    
C62   C63   A    
C72   O10   A    
C36   C37   A    
C38   C42   A    
Cr4   O19   S    
C10   C15   A    
C23   O1    A    
C5    C6    S    
C76   O13   A    
C75   O17   A    
Cr1   O24   S    
C44   C50   A    
C65   C70   A    
C74   O15   A    
Cr6   O11   S    
Cr4   O6    S    
C63   H28   S    
C35   C42   S    
C68   H26   S    
Cr5   O16   S    
C60   H25   S    
Cr3   O22   S    
C17   C19   T    
C54   C55   A    
C40   C43   A    
C41   H9    S    
C47   C48   A    
C78   H12   S    
C16   C17   S    
Cr2   O26   S    
S2    O32   S    
Cr1   O1    S    
C12   O22   A    
C71   O8    A    
C66   H27   S    
C11   H31   S    
C65   H24   S    
C10   H30   S    
C56   O24   A    
C14   H33   S    
Cr3   O23   S    
C46   H14   S    
C77   H1    S    
C59   C60   A    
O32   H36   S    
C21   C22   A    
C43   C75   S    
C4    C7    S    
C39   H7    S    
S1    O28   D    
C44   C46   A    
C20   C29   T    
C51   H15   S    
C12   C67   S    
C73   O11   A    
C34   O25   A    
C8    C72   S    
C72   O9    A    
C51   C52   A    
O29   H35   S    
C1    O12   A    
C3    H29   S    
C33   H8    S    
C40   H10   S    
C30   C73   S    
C53   C57   A    
C68   C69   A    
C6    C8    T    
C45   O3    A    
C58   C59   A    
C53   C54   A    
Cr1   O12   S    
Cr1   O5    S    
C2    H22   S    
C25   H4    S    
C47   H16   S    
C31   C37   A    
Cr3   O3    S    
C60   C61   A    
C56   O4    A    
C57   C74   S    
Cr4   O7    S    
C21   H34   S    
Cr1   O25   S    
C11   C16   A    
C44   C56   S    
C31   C32   A    
C53   H18   S    
C73   O6    A    
C12   O21   A    
C59   H21   S    
C64   C69   A    
C24   C25   A    
C45   O2    A    
C40   C41   A    
Cr3   O5    S    
Cr6   O19   S    
C22   C27   A    
C32   H5    S    
C70   C76   S    
S2    O31   D    
C2    C5    A    
Cr5   O8    S    
Cr4   O14   S    
C3    C4    A    
Cr5   O19   S    
S1    O29   S    
C52   C57   A    
C64   H23   S    
C61   C69   S    
C58   C63   A    
C46   C47   A    
C48   C49   A    
C1    C20   S    
C62   S2    S    
C14   C15   A    
C9    C23   S    
Cr5   O9    S    
C49   H19   S    
C39   C43   A    
Cr2   O21   S    
C38   H6    S    
Cr3   O4    S    
C64   C65   A    
C28   C30   T    
C2    C3    A    
C25   C26   A    
C4    C77   A    
C32   C33   A    
C36   H11   S    
C38   C39   A    
Cr2   O20   S    
C33   C35   A    
C51   C55   A    
C22   H2    S    
C61   C62   A    
C24   H3    S    
Cr5   O15   S    
C13   H32   S    
C10   C11   A    
C7    C67   T    
C5    C78   A    
C9    C18   T    
C26   C29   S    
C49   C50   A    
C31   C45   S    
C13   C16   A    
C23   O23   A    
C27   C28   S    
C34   C58   S    
S2    O30   D    
C71   O7    A    
Cr4   O13   S    
C13   C14   A    
C1    O20   A    
Cr6   O18   S    
Cr2   O5    S    
