data_mof_unit_14095.cif
_audit_creation_date              2013-03-05T15:59:15-0500
_audit_creation_method            fapswitch 2.2
_symmetry_space_group_name_H-M    P1
_symmetry_Int_Tables_number       1
_space_group_crystal_system       triclinic
_cell_length_a                    6.990244
_cell_length_b                    21.33201
_cell_length_c                    23.640173
_cell_angle_alpha                 90.048755
_cell_angle_beta                  90.278062
_cell_angle_gamma                 90.108153
_cell_volume                      3525.07787428

loop_
_atom_site_label
_atom_site_type_symbol
_atom_site_description
_atom_site_fract_x
_atom_site_fract_y
_atom_site_fract_z
_atom_type_partial_charge
O1    O     O_R   0.494270 0.443530 0.442350 -0.580718
O2    O     O_R   0.824060 0.436290 0.557250 -0.593059
O3    O     O_R   0.994370 0.556470 0.557650 -0.592719
C1    C     C_R   0.655522 0.421193 0.576568 0.975266
O4    O     O_R   0.823990 0.436120 0.442760 -0.575763
O5    O     O_R   0.994300 0.556300 0.442340 -0.587062
C2    C     C_R   0.654867 0.421003 0.423443 0.978012
O6    O     O_R   0.494350 0.443700 0.557660 -0.589734
O7    O     O_3   0.660800 0.539430 0.500000 -0.275593
V1    V     V_3+5 0.935650 0.492690 0.500000 1.208100
O8    O     O_R   0.324020 0.563710 0.442750 -0.574995
C3    C     C_R   0.155095 0.578755 0.423427 0.973975
O9    O     O_R   0.324090 0.563880 0.557240 -0.593591
C4    C     C_R   0.155925 0.578942 0.576577 0.973811
V2    V     V_3+5 0.435660 0.507310 0.500000 1.209835
O10   O     O_3   0.160640 0.460570 0.500000 -0.269236
C5    C     C_3   0.001394 0.724418 0.789964 -0.088347
C6    C     C_3   0.192570 0.696246 0.769062 -0.331361
H1    H     H_    0.263922 0.653430 0.785398 0.170721
C7    C     C_1   0.148195 0.624597 0.622040 -0.283903
C8    C     C_1   0.071221 0.874602 0.877246 -0.199293
C9    C     C_3   0.934093 0.735155 0.728053 -0.209895
C10   C     C_3   0.126922 0.708306 0.707323 0.160651
C11   C     C_3   0.026961 0.801316 0.729955 -0.062330
C12   C     C_3   0.089704 0.790716 0.791900 0.042224
C13   C     C_3   0.218600 0.774512 0.708008 -0.346882
C14   C     C_3   0.277305 0.763019 0.770148 0.385660
C15   C     C_1   0.140432 0.662447 0.660387 0.037158
C16   C     C_1   0.078219 0.836718 0.838933 0.230230
H2    H     H_    0.310580 0.795163 0.674681 0.164682
H3    H     H_    0.790804 0.723404 0.710500 0.149218
C17   C     C_3   0.296179 0.800194 0.241016 -0.335485
C18   C     C_3   0.939790 0.799498 0.249117 -0.270575
C19   C     C_3   0.967452 0.758023 0.303087 -0.334459
H4    H     H_    0.356555 0.768595 0.327111 0.083318
H5    H     H_    0.277519 0.844163 0.265974 0.215103
H6    H     H_    0.806778 0.784230 0.228210 0.206526
H7    H     H_    0.920892 0.849927 0.259520 0.234287
H8    H     H_    0.832585 0.732390 0.309892 0.196389
C20   C     C_1   0.145350 0.624430 0.378054 -0.203711
C21   C     C_3   0.106222 0.790504 0.206560 0.118386
C22   C     C_3   0.322522 0.745495 0.285986 0.158303
C23   C     C_3   0.129118 0.708995 0.292630 0.090928
C24   C     C_3   0.081426 0.674954 0.235700 -0.284765
C25   C     C_3   0.102725 0.721070 0.184668 -0.259921
C26   C     C_1   0.137618 0.662409 0.339807 0.045824
C27   C     C_1   0.087582 0.836983 0.159348 0.005378
C28   C     C_1   0.075168 0.874866 0.121138 -0.201626
H9    H     H_    0.242537 0.711582 0.164467 0.150533
H10   H     H_    0.175998 0.633715 0.229435 0.211342
H11   H     H_    0.933159 0.656018 0.237861 0.227398
C29   C     C_3   0.480411 0.239501 0.694866 -0.397702
C30   C     C_3   0.820171 0.263544 0.721500 -0.503543
C31   C     C_3   0.808672 0.216295 0.771954 -0.204420
H12   H     H_    0.519710 0.144375 0.727780 0.192821
H13   H     H_    0.526451 0.215547 0.655383 0.189551
H14   H     H_    0.926782 0.301209 0.730041 0.150495
H15   H     H_    0.870971 0.238431 0.683113 0.185547
H16   H     H_    0.849046 0.169210 0.755369 0.167454
C32   C     C_1   0.573291 0.124532 0.877879 -0.162470
C33   C     C_3   0.621777 0.293516 0.709287 0.271779
C34   C     C_3   0.471719 0.190849 0.743725 -0.451991
C35   C     C_3   0.598934 0.211583 0.794661 0.129186
C36   C     C_3   0.523813 0.277760 0.813627 0.130333
C37   C     C_3   0.556893 0.327120 0.764866 -0.347879
C38   C     C_1   0.583504 0.163504 0.840477 0.100329
C39   C     C_1   0.636448 0.338514 0.661021 -0.019959
C40   C     C_1   0.646280 0.375825 0.622260 -0.250564
H17   H     H_    0.675089 0.359789 0.776234 0.207799
H18   H     H_    0.366802 0.272649 0.820176 0.095580
H19   H     H_    0.334941 0.258472 0.686590 0.150110
H20   H     H_    0.320656 0.184956 0.757294 0.201131
C41   C     C_3   0.495066 0.314759 0.243552 0.170987
C42   C     C_3   0.829647 0.274717 0.269421 0.103802
C43   C     C_3   0.814118 0.227225 0.218403 0.076974
H21   H     H_    0.547761 0.287925 0.154064 0.246095
H22   H     H_    0.887236 0.319063 0.251660 0.135630
H23   H     H_    0.852272 0.255319 0.180240 0.115345
C44   C     C_1   0.574947 0.123609 0.121573 -0.165265
C45   C     C_3   0.625751 0.290115 0.292941 -0.049605
C46   C     C_3   0.488934 0.266890 0.193369 -0.611699
C47   C     C_3   0.601081 0.205982 0.208665 -0.042636
C48   C     C_3   0.506315 0.180155 0.264414 0.252950
C49   C     C_3   0.532535 0.228261 0.314120 -0.508360
C50   C     C_1   0.585665 0.160828 0.160464 0.197413
C51   C     C_1   0.635938 0.336906 0.339980 0.165532
C52   C     C_1   0.644585 0.375090 0.378138 -0.201300
H24   H     H_    0.389873 0.238574 0.332230 0.223004
H25   H     H_    0.614256 0.209389 0.350352 0.266790
H26   H     H_    0.349576 0.177339 0.256306 0.151776
H27   H     H_    0.346877 0.318034 0.260309 0.155941
H28   H     H_    0.337287 0.255476 0.183383 0.227988
O11   O     O_R   0.724990 0.055630 0.941600 -0.585098
O12   O     O_R   0.395220 0.063160 0.056480 -0.575636
O13   O     O_R   0.225040 0.942970 0.056870 -0.585977
C53   C     C_R   0.564339 0.078287 0.075806 0.985520
O14   O     O_R   0.395270 0.063000 0.941990 -0.580865
O15   O     O_R   0.225080 0.942800 0.941570 -0.590267
C54   C     C_R   0.563810 0.078129 0.922696 0.965577
O16   O     O_R   0.724940 0.055790 0.056910 -0.580913
O17   O     O_3   0.558580 0.959880 0.999250 -0.272707
V3    V     V_3+5 0.283680 0.006590 0.999220 1.252835
O18   O     O_R   0.895380 0.935350 0.941950 -0.579729
C55   C     C_R   0.063570 0.920288 0.922655 0.958066
O19   O     O_R   0.895330 0.935520 0.056440 -0.583011
C56   C     C_R   0.064321 0.920514 0.075779 0.987338
V4    V     V_3+5 0.783690 0.991900 0.999180 1.251829
O20   O     O_3   0.058660 0.038680 0.999200 -0.262494
C57   C     C_2   0.999512 0.795333 0.357063 0.553708
H29   H     H_    0.995521 0.771171 0.397422 0.011039
O21   O     O_2   0.030281 0.851704 0.356517 -0.532871
C58   C     C_2   0.958686 0.708443 0.138121 0.579848
H30   H     H_    0.007892 0.702941 0.094924 0.032823
O22   O     O_2   0.787821 0.705662 0.147627 -0.544470
C59   C     C_2   0.464719 0.812772 0.203036 0.523883
H31   H     H_    0.506615 0.779214 0.171131 0.113229
O23   O     O_2   0.548592 0.862997 0.205519 -0.557481
N1    N     N_R   0.480091 0.701495 0.275010 0.221353
O24   O     O_R   0.510588 0.679528 0.224604 -0.385571
O25   O     O_R   0.550909 0.670614 0.317680 -0.429608
C60   C     C_2   0.883077 0.693759 0.834669 0.701907
H32   H     H_    0.814091 0.649189 0.825950 -0.004667
O26   O     O_2   0.865161 0.718166 0.881024 -0.534636
C61   C     C_2   0.951744 0.232702 0.817737 0.512483
H33   H     H_    0.969143 0.280817 0.831637 0.089770
O27   O     O_2   0.050190 0.191933 0.839354 -0.584637
C62   C     C_2   0.379408 0.366465 0.756171 0.609441
H34   H     H_    0.244833 0.344487 0.744661 -0.042299
O28   O     O_2   0.385678 0.423264 0.762292 -0.547589
N2    N     N_R   0.461577 0.779219 0.794850 0.220881
O29   O     O_R   0.579709 0.814500 0.766959 -0.426014
O30   O     O_R   0.493640 0.767737 0.848056 -0.376232
N3    N     N_R   0.603754 0.298002 0.868618 0.243345
O31   O     O_R   0.698293 0.350328 0.874050 -0.362855
O32   O     O_R   0.553248 0.268592 0.914395 -0.360591
N4    N     N_R   0.549676 0.377787 0.224327 0.256382
O33   O     O_R   0.439750 0.425233 0.235813 -0.338299
O34   O     O_R   0.698567 0.386632 0.192450 -0.367926
N5    N     N_R   0.965242 0.256729 0.314407 0.240321
O35   O     O_R   0.081441 0.299097 0.334391 -0.441680
O36   O     O_R   0.950432 0.203927 0.341444 -0.313510
N6    N     N_R   0.951969 0.175113 0.219413 0.248197
O37   O     O_R   0.938161 0.129232 0.255219 -0.259333
O38   O     O_R   0.074022 0.169859 0.178306 -0.433100
N7    N     N_R   0.565609 0.115934 0.279185 0.289940
O39   O     O_R   0.636510 0.102614 0.328754 -0.274587
O40   O     O_R   0.516285 0.069685 0.246251 -0.326473
C63   C     C_2   0.936972 0.858959 0.705590 0.673225
H35   H     H_    0.895575 0.859711 0.661329 -0.019702
O41   O     O_2   0.910101 0.905088 0.735018 -0.565296

loop_
_geom_bond_atom_site_label_1
_geom_bond_atom_site_label_2
_geom_bond_distance
_ccdc_geom_bond_type
O17   V4    1.714254 S    
C23   C26   1.495458 S    
O17   V3    2.166260 S    
C30   H15   1.113380 S    
N2    O30   1.300108 A    
C1    O6    1.302735 A    
C32   C54   1.452207 S    
C58   O22   1.217759 D    
C46   C47   1.560569 S    
C25   C58   1.511593 S    
C30   C31   1.564508 S    
C20   C26   1.215623 T    
O19   V4    1.970756 S    
C13   C14   1.543228 S    
C17   H5    1.115854 S    
C61   O27   1.220927 D    
C43   N6    1.472668 S    
C11   C13   1.549117 S    
C29   C33   1.553119 S    
C57   O21   1.221283 D    
O5    C3    1.302282 A    
O15   C55   1.303025 A    
C31   C35   1.566826 S    
V2    O10   2.163961 S    
H12   C34   1.113227 S    
C6    H1    1.110220 S    
C10   C13   1.549852 S    
H4    C22   1.114050 S    
N1    O24   1.298811 A    
C45   C51   1.494997 S    
N7    O40   1.301230 A    
C48   N7    1.473794 S    
C8    C55   1.450507 S    
O8    V2    1.970858 S    
C19   H8    1.101518 S    
C2    C52   1.452145 S    
C48   C49   1.569266 S    
C59   O23   1.221587 D    
C42   H22   1.110910 S    
V4    O20   2.164040 S    
V3    O20   1.716630 S    
O1    V2    1.969953 S    
C36   H18   1.114313 S    
O7    V1    2.166247 S    
O11   C54   1.302698 A    
O14   V3    1.973921 S    
O13   V3    1.968173 S    
C45   C49   1.554760 S    
C35   C38   1.496393 S    
C32   C38   1.216425 T    
C42   C45   1.567689 S    
O9    C4    1.304004 A    
N3    O32   1.301297 A    
C46   H28   1.111402 S    
C30   C33   1.554095 S    
C41   C46   1.565003 S    
C58   H30   1.085470 S    
O14   C54   1.305472 A    
N7    O39   1.301919 A    
C31   H16   1.115200 S    
C12   C16   1.484921 S    
C28   C56   1.450870 S    
N6    O37   1.298295 A    
C9    H3    1.110469 S    
C19   C23   1.561671 S    
C6    C10   1.549682 S    
C4    C7    1.451038 S    
C11   C12   1.543576 S    
C41   H27   1.113136 S    
N4    O34   1.301480 A    
C42   C43   1.577642 S    
C1    C40   1.452514 S    
C30   H14   1.112525 S    
C51   C52   1.216086 T    
C22   N1    1.472330 S    
C7    C15   1.214925 T    
O15   V3    1.966260 S    
C8    C16   1.214559 T    
C29   C34   1.554806 S    
C18   H6    1.099534 S    
C39   C40   1.216351 T    
C3    C20   1.451144 S    
O2    C1    1.305480 A    
C23   C24   1.562932 S    
C62   O28   1.220810 D    
C34   C35   1.556780 S    
O13   C56   1.301800 A    
C33   C39   1.495471 S    
C27   C28   1.215440 T    
C41   N4    1.469952 S    
C25   H9    1.108735 S    
C17   C21   1.567664 S    
C5    C6    1.549234 S    
C21   C27   1.498877 S    
C34   H20   1.112036 S    
C10   C15   1.482094 S    
C63   H35   1.084402 S    
O12   C53   1.305180 A    
C60   H32   1.084408 S    
O3    C4    1.303084 A    
C24   H11   1.113073 S    
C5    C60   1.495430 S    
C13   H2    1.110242 S    
O6    V2    1.966572 S    
O9    V2    1.976503 S    
C11   C63   1.496696 S    
N3    O31   1.302025 A    
C9    C11   1.552885 S    
C49   H25   1.103961 S    
C62   H34   1.083709 S    
O2    V1    1.974118 S    
C37   C62   1.512510 S    
C44   C50   1.216202 T    
C24   C25   1.564781 S    
O4    C2    1.305075 A    
C42   N5    1.472738 S    
C24   H10   1.111655 S    
C19   C57   1.518771 S    
C48   H26   1.112873 S    
C31   C61   1.510510 S    
C36   N3    1.476419 S    
O16   V4    1.973086 S    
C21   C25   1.568675 S    
O1    C2    1.302878 A    
C6    C14   1.541761 S    
C49   H24   1.109493 S    
C63   O41   1.219996 D    
N4    O33   1.301165 A    
H21   C46   1.112436 S    
O5    V1    1.968205 S    
N5    O35   1.300990 A    
C43   C47   1.571611 S    
C12   C14   1.530419 S    
C47   C50   1.494768 S    
O19   C56   1.305133 A    
C5    C9    1.552458 S    
C5    C12   1.542617 S    
C36   C37   1.579442 S    
N2    O29   1.298806 A    
O7    V2    1.715286 S    
C18   C21   1.553814 S    
C44   C53   1.451874 S    
C29   H19   1.111682 S    
V1    O10   1.716696 S    
C57   H29   1.085239 S    
O11   V4    1.967047 S    
N5    O36   1.299744 A    
C59   H31   1.081242 S    
C37   H17   1.111692 S    
C53   O16   1.302584 A    
C41   C45   1.570539 S    
C18   C19   1.564662 S    
N6    O38   1.301182 A    
C17   C59   1.508524 S    
C43   H23   1.116637 S    
N1    O25   1.301561 A    
C60   O26   1.219928 D    
C35   C36   1.572789 S    
C33   C37   1.565668 S    
O4    V1    1.969760 S    
O12   V3    1.969755 S    
C47   C48   1.577223 S    
C22   C23   1.567471 S    
O18   C55   1.303813 A    
O3    V1    1.966284 S    
C14   N2    1.452702 S    
C17   C22   1.589518 S    
C9    C10   1.547241 S    
C18   H7    1.111568 S    
O18   V4    1.976415 S    
C29   H13   1.112929 S    
O8    C3    1.304786 A    
C61   H33   1.083889 S    
