data_mof_unit_8671.cif
_audit_creation_date              2012-12-11T16:33:27-0500
_audit_creation_method            fapswitch 2.2
_symmetry_space_group_name_H-M    P1
_symmetry_Int_Tables_number       1
_space_group_crystal_system       triclinic
_cell_length_a                    6.949231
_cell_length_b                    18.28279
_cell_length_c                    20.229408
_cell_angle_alpha                 68.453441
_cell_angle_beta                  90.763657
_cell_angle_gamma                 90.666628
_cell_volume                      2390.292967

loop_
_atom_site_label
_atom_site_type_symbol
_atom_type_description
_atom_site_fract_x
_atom_site_fract_y
_atom_site_fract_z
_atom_type_partial_charge
O1    O     O_R   0.488960 0.443750 0.941980 -0.552928
O2    O     O_R   0.823890 0.406510 0.087590 -0.540068
O3    O     O_R   0.999680 0.556250 0.058020 -0.549617
C1    C     C_R   0.655106 0.382252 0.114411 0.870992
O4    O     O_R   0.818360 0.434410 0.944340 -0.515960
O5    O     O_R   0.994110 0.584350 0.913750 -0.515831
C2    C     C_R   0.649059 0.421578 0.922814 0.777602
O6    O     O_R   0.494530 0.415650 0.086250 -0.523871
O7    O     O_3   0.662590 0.549160 0.990130 -0.369594
V1    V     V_3+5 0.935320 0.490880 0.001830 1.480047
O8    O     O_R   0.324180 0.593490 0.912410 -0.552712
C3    C     C_R   0.154895 0.615668 0.884512 0.792279
O9    O     O_R   0.329720 0.565590 0.055660 -0.518148
C4    C     C_R   0.162285 0.580574 0.075409 0.715021
V2    V     V_3+5 0.435990 0.509120 0.998170 1.484473
O10   O     O_3   0.158850 0.450840 0.009870 -0.377651
C5    C     C_3   0.007116 0.723209 0.296653 0.103326
C6    C     C_3   0.189825 0.684835 0.282237 0.378334
H1    H     H_    0.453545 0.765631 0.294564 0.164596
C7    C     C_1   0.156808 0.628597 0.118911 -0.187243
C8    C     C_1   0.108804 0.879960 0.374144 -0.217242
C9    C     C_3   0.957595 0.754223 0.216927 0.438681
C10   C     C_3   0.139839 0.715497 0.201791 -0.042678
C11   C     C_3   0.070229 0.831608 0.206155 -0.238417
C12   C     C_3   0.122173 0.798998 0.286761 0.003775
C13   C     C_3   0.252520 0.791368 0.192837 0.162551
C14   C     C_3   0.308779 0.760697 0.272653 -0.237111
C15   C     C_1   0.150666 0.668268 0.155724 0.028602
C16   C     C_1   0.114055 0.843657 0.334627 0.011457
H2    H     H_    0.021994 0.892125 0.174145 0.131913
H3    H     H_    0.987118 0.524594 0.687099 0.194711
C17   C     C_R   0.211940 0.771984 0.878174 -0.140322
C18   C     C_R   0.226103 0.846513 0.880512 -0.184104
C19   C     C_R   0.191078 0.911594 0.819972 -0.071097
C20   C     C_R   0.147590 0.903945 0.755244 0.174543
C21   C     C_R   0.144926 0.827290 0.749617 -0.000311
C22   C     C_R   0.168604 0.760389 0.814002 0.034907
C23   C     C_R   0.118741 0.814753 0.683972 -0.136785
C24   C     C_R   0.101099 0.735797 0.684383 -0.006195
C25   C     C_R   0.100932 0.670061 0.750860 -0.065192
C26   C     C_R   0.142764 0.682920 0.815034 -0.145593
C27   C     C_R   0.082186 0.719753 0.620171 0.141088
C28   C     C_R   0.041688 0.643165 0.622684 0.151511
C29   C     C_R   0.027127 0.581906 0.687066 -0.205133
C30   C     C_R   0.063742 0.592518 0.751013 0.380919
H4    H     H_    0.233940 0.723526 0.928047 0.098406
H5    H     H_    0.258686 0.853727 0.930276 0.128168
H6    H     H_    0.193979 0.969261 0.823600 0.149685
C31   C     C_R   0.750800 0.096882 0.260361 -0.154672
C32   C     C_R   0.816549 0.083035 0.201743 -0.159488
C33   C     C_R   0.818857 0.143229 0.135958 -0.154601
C34   C     C_R   0.758130 0.218930 0.127612 0.188999
C35   C     C_R   0.699605 0.236479 0.187957 0.059092
C36   C     C_R   0.691828 0.172756 0.255269 0.035588
C37   C     C_R   0.645169 0.313770 0.183391 -0.184689
C38   C     C_R   0.574608 0.325100 0.245232 -0.043933
C39   C     C_R   0.552577 0.259254 0.310099 -0.036326
C40   C     C_R   0.618298 0.184111 0.315848 -0.115684
C41   C     C_R   0.526922 0.401064 0.245308 0.377626
C42   C     C_R   0.433763 0.408701 0.303172 -0.259419
C43   C     C_R   0.406132 0.344092 0.365174 0.455942
C44   C     C_R   0.468655 0.270393 0.369197 -0.240303
H7    H     H_    0.744323 0.046440 0.309478 0.120750
H8    H     H_    0.861336 0.024571 0.207077 0.127953
H9    H     H_    0.864609 0.130710 0.090240 0.113775
H10   H     H_    0.391126 0.466383 0.300940 0.188277
H11   H     H_    0.448525 0.222456 0.419360 0.143273
O11   O     O_R   0.770540 0.084530 0.414050 -0.539125
O12   O     O_R   0.445710 0.065660 0.555720 -0.544611
O13   O     O_R   0.270420 0.915650 0.586190 -0.535138
C45   C     C_R   0.615150 0.079798 0.576236 0.711749
O14   O     O_R   0.441140 0.093540 0.412470 -0.542089
O15   O     O_R   0.265820 0.943740 0.441930 -0.528768
C46   C     C_R   0.609486 0.116699 0.385277 0.687484
O16   O     O_R   0.775150 0.056440 0.558310 -0.537216
O17   O     O_3   0.602370 0.950960 0.510050 -0.367353
V3    V     V_3+5 0.329450 0.009140 0.498150 1.439715
O18   O     O_R   0.935790 0.934280 0.444060 -0.540485
C47   C     C_R   0.102967 0.923678 0.421036 0.756606
O19   O     O_R   0.940370 0.906390 0.587310 -0.538089
C48   C     C_R   0.109333 0.883716 0.615399 0.786069
V4    V     V_3+5 0.828810 0.990710 0.501460 1.430318
O20   O     O_3   0.105780 0.049100 0.489960 -0.369619
C49   C     C_3   0.747236 0.313301 0.721451 0.516351
C50   C     C_3   0.565764 0.296435 0.683771 -0.265082
H12   H     H_    0.507067 0.334350 0.631316 0.113006
C51   C     C_1   0.624962 0.125506 0.621476 -0.173527
C52   C     C_1   0.640266 0.376266 0.877084 -0.201232
C53   C     C_3   0.816958 0.227368 0.742980 -0.219331
C54   C     C_3   0.633487 0.209787 0.706301 0.046197
C55   C     C_3   0.704823 0.205317 0.814314 -0.293023
C56   C     C_3   0.638222 0.292042 0.791973 0.021846
C57   C     C_3   0.524678 0.188324 0.776467 0.278949
C58   C     C_3   0.459887 0.273409 0.755244 0.179891
C59   C     C_1   0.629791 0.163492 0.659666 0.012993
C60   C     C_1   0.638297 0.338442 0.838680 -0.022754
H13   H     H_    0.758716 0.167411 0.867691 0.141287
H14   H     H_    0.964875 0.208485 0.737109 0.183702
O21   O     O_3   0.244304 0.605976 0.319057 -0.553258
C61   C     C_3   0.325939 0.597933 0.385413 -0.259227
H15   H     H_    0.228177 0.619340 0.417262 0.136808
H16   H     H_    0.467196 0.628693 0.378813 0.146797
H17   H     H_    0.351673 0.534616 0.415872 0.177120
N1    N     N_3   0.093205 0.975551 0.699304 -0.679011
H18   H     H_    0.956585 0.969350 0.679875 0.234399
H19   H     H_    0.197747 0.993116 0.660015 0.243914
N2    N     N_3   0.107805 0.780138 0.551899 -0.666805
H20   H     H_    0.982749 0.783294 0.521767 0.225091
H21   H     H_    0.223853 0.765632 0.526822 0.218788
N3    N     N_3   0.011635 0.626162 0.559511 -0.682208
H22   H     H_    0.894078 0.658467 0.531404 0.231125
H23   H     H_    0.134222 0.642816 0.527973 0.220059
O22   O     O_3   0.039519 0.528704 0.814197 -0.549962
C62   C     C_3   0.149042 0.463409 0.815977 -0.238123
H24   H     H_    0.291922 0.480569 0.790201 0.118329
H25   H     H_    0.065636 0.427350 0.791861 0.172460
H26   H     H_    0.175359 0.425554 0.872274 0.172201
O23   O     O_3   0.311078 0.353083 0.421189 -0.541769
C63   C     C_3   0.448105 0.355010 0.472538 -0.257484
H27   H     H_    0.559016 0.401651 0.449315 0.128914
H28   H     H_    0.517534 0.296741 0.498565 0.137945
H29   H     H_    0.372539 0.369227 0.514182 0.155656
N4    N     N_3   0.748956 0.275560 0.056701 -0.695546
H30   H     H_    0.655429 0.254011 0.027076 0.206995
H31   H     H_    0.886026 0.280939 0.034569 0.229016
N5    N     N_3   0.870097 0.686639 0.353451 -0.683056
H32   H     H_    0.854149 0.627810 0.358893 0.233845
H33   H     H_    0.931815 0.686734 0.400740 0.228151
O24   O     O_3   0.578209 0.469668 0.190952 -0.554994
C64   C     C_3   0.765431 0.490222 0.205807 -0.238087
H34   H     H_    0.873201 0.446481 0.204016 0.135015
H35   H     H_    0.774129 0.496856 0.258338 0.129887
H36   H     H_    0.802982 0.547368 0.164363 0.167793
O25   O     O_3   0.865499 0.380826 0.695090 -0.560761
C65   C     C_3   0.938406 0.387607 0.628406 -0.249738
H37   H     H_    0.821110 0.398966 0.588041 0.136559
H38   H     H_    0.021388 0.334694 0.631682 0.157574
H39   H     H_    0.038747 0.438596 0.610146 0.174856
N6    N     N_3   0.264453 0.296822 0.762378 -0.648995
H40   H     H_    0.261915 0.358156 0.740259 0.235878
H41   H     H_    0.237025 0.280380 0.816602 0.222845
N7    N     N_3   0.397922 0.120350 0.805774 -0.652420
H42   H     H_    0.347633 0.120194 0.854277 0.218046
H43   H     H_    0.482437 0.070201 0.817261 0.221747
N8    N     N_3   0.386622 0.829090 0.135448 -0.596147
H44   H     H_    0.437538 0.880229 0.141626 0.241432
H45   H     H_    0.308026 0.846746 0.087831 0.217612
O26   O     O_3   0.775369 0.755287 0.185057 -0.538135
C66   C     C_3   0.693666 0.679220 0.210275 -0.119255
H46   H     H_    0.608360 0.670231 0.258347 0.169578
H47   H     H_    0.801960 0.631938 0.223402 0.084808
H48   H     H_    0.595517 0.673243 0.168842 0.179076

loop_
_geom_bond_atom_site_label_1
_geom_bond_atom_site_label_2
_ccdc_geom_bond_type
C65   H39   S    
C37   C38   A    
C52   C60   T    
C57   C58   S    
C31   H7    S    
C32   H8    S    
O12   V3    S    
C20   C21   A    
C1    O6    A    
N1    H19   S    
N8    H44   S    
C39   C44   A    
C35   C36   A    
C34   C35   A    
C49   O25   S    
C13   C14   S    
N5    H32   S    
C44   H11   S    
C54   C57   S    
C21   C22   A    
C11   C13   S    
O22   C62   S    
C66   H47   S    
O5    C3    A    
C23   C24   A    
C34   N4    S    
C5    N5    S    
N4    H31   S    
V3    O20   S    
O11   C46   A    
V2    O10   S    
C56   C60   S    
C38   C39   A    
C19   C20   A    
C33   H9    S    
C10   C13   S    
O12   C45   A    
O13   C48   A    
N3    H22   S    
O23   C63   S    
O8    V2    S    
C49   C50   S    
C2    C52   S    
C51   C59   T    
N2    H20   S    
O1    V2    S    
C28   N3    S    
C53   C55   S    
C65   H37   S    
C27   N2    S    
C63   H28   S    
C42   H10   S    
C41   C42   A    
O9    C4    A    
O13   V3    S    
C58   N6    S    
N2    H21   S    
C56   C58   S    
N1    H18   S    
N8    H45   S    
C5    C6    S    
C24   C27   A    
N3    H23   S    
O17   V3    S    
C35   C37   A    
C12   C16   S    
C25   C30   A    
H3    C29   S    
C6    C10   S    
C4    C7    S    
N4    H30   S    
C11   C12   S    
O19   V4    S    
C20   N1    S    
C66   H48   S    
O17   V4    S    
C55   C56   S    
O4    C2    A    
O18   C47   A    
C7    C15   T    
C10   C15   S    
C8    C16   T    
C61   H17   S    
C33   C34   A    
C42   C43   A    
C13   N8    S    
C64   H35   S    
C28   C29   A    
O14   V3    S    
C55   C57   S    
C50   C58   S    
O18   V4    S    
O21   C61   S    
C50   C54   S    
C8    C47   S    
C61   H16   S    
C32   C33   A    
O15   C47   A    
C17   C22   A    
C55   H13   S    
C63   H27   S    
C50   H12   S    
O3    C4    A    
C45   C51   S    
O14   C46   A    
C25   C26   A    
C9    O26   S    
C31   C32   A    
O6    V2    S    
O9    V2    S    
C23   C48   S    
C18   H5    S    
C9    C11   S    
C64   H36   S    
C19   H6    S    
C27   C28   A    
O2    V1    S    
C24   C25   A    
H1    C14   S    
C29   C30   A    
C40   C46   S    
C3    C26   S    
O24   C64   S    
O7    V1    S    
C63   H29   S    
C65   H38   S    
C41   O24   S    
N5    H33   S    
C43   O23   S    
O1    C2    A    
C17   H4    S    
C9    C10   S    
C6    C14   S    
O19   C48   A    
C54   C59   S    
C6    O21   S    
O5    V1    S    
C62   H25   S    
N6    H40   S    
O16   V4    S    
C62   H24   S    
O25   C65   S    
C12   C14   S    
C5    C9    S    
C38   C41   A    
C53   H14   S    
C5    C12   S    
C17   C18   A    
C21   C23   A    
C64   H34   S    
O7    V2    S    
O11   V4    S    
O4    V1    S    
C1    C37   S    
O3    V1    S    
V1    O10   S    
C66   H46   S    
C45   O16   A    
N6    H41   S    
C39   C40   A    
O2    C1    A    
C61   H15   S    
C18   C19   A    
N7    H43   S    
O26   C66   S    
C22   C26   A    
C43   C44   A    
C11   H2    S    
C62   H26   S    
C30   O22   S    
C36   C40   A    
V4    O20   S    
C49   C53   S    
O15   V3    S    
N7    H42   S    
C49   C56   S    
C53   C54   S    
C57   N7    S    
C31   C36   A    
O8    C3    A    
