data_mof_unit_41649.cif
_audit_creation_date              2013-03-05T15:44:34-0500
_audit_creation_method            fapswitch 2.2
_symmetry_space_group_name_H-M    P1
_symmetry_Int_Tables_number       1
_space_group_crystal_system       triclinic
_cell_length_a                    27.819469
_cell_length_b                    10.921927
_cell_length_c                    9.698888
_cell_angle_alpha                 90.878796
_cell_angle_beta                  90.312937
_cell_angle_gamma                 90.608574
_cell_volume                      2946.3720958

loop_
_atom_site_label
_atom_site_type_symbol
_atom_site_description
_atom_site_fract_x
_atom_site_fract_y
_atom_site_fract_z
_atom_type_partial_charge
O1    O     O_R   0.500010 0.321960 0.617040 -0.566952
O2    O     O_R   0.499990 0.321920 0.382900 -0.539278
C1    C     C_R   0.498810 0.265399 0.499045 0.853678
O3    O     O_R   0.430270 0.500040 0.617060 -0.588083
O4    O     O_R   0.430260 0.500000 0.382910 -0.539206
C2    C     C_R   0.407477 0.499843 0.499692 0.814507
Cu1   Cu    Cu3+1 0.500010 0.500020 0.638630 1.009378
Cu2   Cu    Cu3+1 0.499990 0.499980 0.361370 1.013731
O5    O     O_R   0.500010 0.678080 0.617100 -0.522376
O6    O     O_R   0.499990 0.678040 0.382960 -0.603132
O7    O     O_R   0.569740 0.500000 0.617090 -0.573607
O8    O     O_R   0.569730 0.499960 0.382940 -0.583501
C3    C     C_R   0.502483 0.734866 0.501216 0.761223
C4    C     C_R   0.592525 0.500294 0.500360 0.807968
C5    C     C_R   0.177109 0.400799 0.444354 0.541774
O9    O     O_2   0.201121 0.304738 0.390501 -0.523279
N1    N     N_R   0.202026 0.498692 0.499507 -0.468469
C6    C     C_R   0.178719 0.596999 0.555826 0.538813
C7    C     C_R   0.279051 0.491166 0.623735 -0.091828
C8    C     C_R   0.329157 0.491732 0.623932 -0.204425
C9    C     C_R   0.328755 0.505922 0.374519 -0.165254
C10   C     C_R   0.278616 0.505290 0.374623 -0.100708
C11   C     C_R   0.253595 0.498053 0.499196 0.345072
C12   C     C_R   0.101897 0.499376 0.502488 -0.046137
C13   C     C_R   0.126631 0.399285 0.444845 -0.023492
C14   C     C_R   0.100556 0.300438 0.388435 -0.139912
C15   C     C_R   0.128298 0.599148 0.558448 -0.021718
C16   C     C_R   0.354509 0.499175 0.499270 -0.045190
H1    H     H_    0.347266 0.512258 0.276939 0.186849
H2    H     H_    0.259151 0.511171 0.277997 0.149394
H3    H     H_    0.118669 0.223469 0.340765 0.190689
C17   C     C_R   0.645494 0.501198 0.501273 -0.038862
C18   C     C_R   0.973823 0.393581 0.464622 0.047283
C19   C     C_R   0.975395 0.606875 0.548749 0.008604
C20   C     C_R   0.949170 0.500576 0.507099 0.074510
C21   C     C_R   0.946954 0.285461 0.439671 -0.265337
C22   C     C_R   0.896956 0.282734 0.447567 -0.006600
C23   C     C_R   0.871749 0.393057 0.472192 -0.039778
C24   C     C_R   0.898013 0.501308 0.507439 -0.055467
C25   C     C_R   0.873120 0.610167 0.542872 -0.094793
C26   C     C_R   0.822371 0.604650 0.549963 0.520464
N2    N     N_R   0.797958 0.502816 0.504259 -0.466936
C27   C     C_R   0.821275 0.400366 0.460312 0.576315
C28   C     C_R   0.721113 0.495853 0.627298 -0.074294
C29   C     C_R   0.670993 0.495108 0.626517 -0.183696
C30   C     C_R   0.671102 0.508427 0.377007 -0.191303
C31   C     C_R   0.721234 0.509507 0.378140 -0.097818
C32   C     C_R   0.746378 0.503057 0.503210 0.347276
O10   O     O_2   0.795467 0.307499 0.402793 -0.489782
C33   C     C_R   0.024739 0.396182 0.453507 0.050952
C34   C     C_R   0.050842 0.499687 0.504234 0.072592
C35   C     C_R   0.026399 0.603460 0.556815 0.046904
C36   C     C_R   0.050612 0.298889 0.392110 -0.201446
H4    H     H_    0.652284 0.489369 0.723859 0.169120
H5    H     H_    0.740394 0.490472 0.724273 0.152419
H6    H     H_    0.964452 0.198793 0.423117 0.133262
H7    H     H_    0.033163 0.221395 0.342195 0.145614
O11   O     O_2   0.204288 0.692796 0.608129 -0.528198
C37   C     C_R   0.103926 0.698180 0.616801 -0.138281
H8    H     H_    0.347973 0.486180 0.721648 0.169073
H9    H     H_    0.259924 0.485240 0.720392 0.148847
H10   H     H_    0.123376 0.774842 0.663378 0.191544
C38   C     C_R   0.949961 0.715100 0.576503 -0.188366
C39   C     C_R   0.899828 0.719108 0.571711 -0.015022
O12   O     O_2   0.797280 0.698836 0.603453 -0.535024
C40   C     C_R   0.053998 0.700274 0.616709 -0.205438
H11   H     H_    0.968686 0.800986 0.593444 0.167622
H12   H     H_    0.652469 0.513476 0.278973 0.167482
H13   H     H_    0.740611 0.515263 0.281886 0.147774
H14   H     H_    0.038027 0.777871 0.668144 0.150781
C41   C     C_2   0.504142 0.932307 0.390947 -0.261043
C42   C     C_2   0.512245 0.866325 0.505004 0.172682
H15   H     H_    0.492450 0.887696 0.295468 0.179866
C43   C     C_2   0.507911 0.065991 0.389146 -0.054166
C44   C     C_2   0.494589 0.133565 0.498190 -0.228821
H16   H     H_    0.519912 0.108796 0.294934 0.208698
H17   H     H_    0.480296 0.091530 0.590216 0.182948
C45   C     C_2   0.474114 0.425010 0.919853 -0.106037
N3    N     N_2   0.499480 0.498660 0.846910 -0.298564
H18   H     H_    0.449754 0.361909 0.866454 0.188057
H19   H     H_    0.525007 0.552515 0.895803 0.202768
C46   C     C_2   0.477478 0.417092 0.074751 0.405395
N4    N     N_2   0.499460 0.498630 0.153040 -0.338587
H20   H     H_    0.513294 0.575483 0.107510 0.171609
C47   C     C_2   0.877431 0.841497 0.586502 0.453132
H21   H     H_    0.845720 0.864160 0.527125 0.141259
O13   O     O_2   0.895117 0.919881 0.662939 -0.520545
N5    N     N_R   0.535487 0.919011 0.625714 0.124331
O14   O     O_R   0.520958 0.890535 0.748539 -0.328468
O15   O     O_R   0.574210 0.985771 0.613107 -0.322629
N6    N     N_R   0.454423 0.313198 0.134816 0.146613
O16   O     O_R   0.466721 0.204177 0.093411 -0.371362
O17   O     O_R   0.413133 0.326564 0.194881 -0.355239
C48   C     C_2   0.873831 0.159746 0.440586 0.509450
H22   H     H_    0.887698 0.090258 0.370606 0.026401
O18   O     O_2   0.841710 0.131964 0.519876 -0.466274

loop_
_geom_bond_atom_site_label_1
_geom_bond_atom_site_label_2
_geom_bond_distance
_ccdc_geom_bond_type
Cu2   N4    2.020369 S    
C17   C29   1.406157 A    
C20   C24   1.423278 A    
C7    C8    1.393869 A    
C12   C15   1.407817 A    
Cu1   Cu2   2.689104 S    
C40   H14   1.077952 S    
C47   H21   1.083815 S    
Cu1   O7    1.952202 S    
N1    C11   1.434736 S    
C43   H16   1.085401 S    
C21   C22   1.393448 A    
C37   C40   1.389403 A    
O4    C2    1.300956 A    
O7    C4    1.300564 A    
C45   H18   1.085235 S    
C5    C13   1.404242 A    
C5    O9    1.349701 S    
C18   C21   1.407927 A    
C5    N1    1.368372 A    
C19   C20   1.416961 A    
C26   N2    1.363930 A    
O5    C3    1.293826 A    
C31   H13   1.082880 S    
C6    O11   1.349813 S    
C2    C16   1.473468 S    
N4    H20   1.026667 S    
C8    H8    1.082997 S    
C1    C44   1.443310 S    
C12   C34   1.420561 A    
C14   H3    1.083502 S    
C9    C10   1.394793 A    
O3    Cu1   1.950246 S    
C42   N5    1.443278 S    
C33   C34   1.417377 A    
C47   O13   1.221552 D    
C38   H11   1.078080 S    
C33   C36   1.415412 A    
C43   C44   1.336688 D    
C34   C35   1.417571 A    
C12   C13   1.408012 A    
O3    C2    1.299957 A    
C4    C17   1.473492 S    
C24   C25   1.420856 A    
N3    H19   1.026686 S    
C36   H7    1.078177 S    
C45   N3    1.287008 D    
C27   O10   1.348430 S    
C26   O12   1.348107 S    
C8    C16   1.406068 A    
C13   C14   1.397122 A    
C9    H1    1.082714 S    
C46   N6    1.430822 S    
O1    C1    1.292239 A    
C7    C11   1.400252 A    
C30   H12   1.082888 S    
C22   C23   1.418321 A    
C21   H6    1.079234 S    
N6    O17   1.299368 A    
C45   C46   1.508601 S    
C31   C32   1.400043 A    
Cu2   O8    1.950240 S    
N1    C6    1.368305 A    
N2    C32   1.434953 S    
C48   O18   1.221016 D    
C44   H17   1.085397 S    
C25   C26   1.414569 A    
C9    C16   1.406101 A    
O8    C4    1.300398 A    
C29   H4    1.082898 S    
O4    Cu2   1.952205 S    
N2    C27   1.363190 A    
C14   C36   1.390017 A    
C39   C47   1.486059 S    
N6    O16   1.300631 A    
C35   C40   1.415644 A    
C28   C29   1.394214 A    
Cu1   N3    2.020499 S    
Cu1   O5    1.959120 S    
C30   C31   1.394549 A    
C37   H10   1.083530 S    
C10   H2    1.082892 S    
O1    Cu1   1.952803 S    
C17   C30   1.406220 A    
O2    Cu2   1.959120 S    
C6    C15   1.403500 A    
N5    O15   1.301743 A    
O6    C3    1.296879 A    
C41   C43   1.463117 S    
C3    C42   1.458270 S    
C19   C35   1.421546 A    
C25   C39   1.419415 A    
O2    C1    1.293219 A    
C18   C33   1.421164 A    
C23   C27   1.411451 A    
C15   C37   1.396752 A    
C28   H5    1.082895 S    
C23   C24   1.419547 A    
C7    H9    1.082934 S    
C19   C38   1.407264 A    
C18   C20   1.418107 A    
C22   C48   1.483646 S    
C48   H22   1.085714 S    
C38   C39   1.396367 A    
C41   C42   1.348722 D    
N5    O14   1.301209 A    
Cu2   O6    1.952803 S    
C46   N4    1.306225 D    
C41   H15   1.086399 S    
C10   C11   1.400526 A    
C28   C32   1.399872 A    
