data_mof_unit_32775.cif
_audit_creation_date              2012-12-11T17:41:19-0500
_audit_creation_method            fapswitch 2.2
_symmetry_space_group_name_H-M    P1
_symmetry_Int_Tables_number       1
_space_group_crystal_system       triclinic
_cell_length_a                    15.503311
_cell_length_b                    15.04237
_cell_length_c                    15.072318
_cell_angle_alpha                 109.54694
_cell_angle_beta                  121.100471
_cell_angle_gamma                 59.197328
_cell_volume                      2573.40916845

loop_
_atom_site_label
_atom_site_type_symbol
_atom_type_description
_atom_site_fract_x
_atom_site_fract_y
_atom_site_fract_z
_atom_type_partial_charge
C1    C     C_R   0.774750 0.978541 0.788488 -0.126030
C2    C     C_R   0.200838 0.057685 0.224455 -0.113420
C3    C     C_R   0.139421 0.275516 0.483003 0.106495
C4    C     C_R   0.829897 0.707475 0.474506 0.122032
C5    C     C_R   0.500398 0.295116 0.426167 0.062858
C6    C     C_R   0.493359 0.676688 0.466858 0.051040
C7    C     C_R   0.501546 0.010847 0.827363 -0.124552
C8    C     C_R   0.501132 0.073079 0.204210 -0.090571
C9    C     C_R   0.787418 0.728115 0.968691 -0.124768
C10   C     C_R   0.200349 0.399717 0.122462 -0.132180
C11   C     C_R   0.694518 0.818743 0.972229 -0.151328
C12   C     C_R   0.300408 0.322763 0.118603 -0.142158
C13   C     C_R   0.704692 0.912784 0.021791 0.147856
C14   C     C_R   0.301244 0.235485 0.045246 0.121370
C15   C     C_R   0.809696 0.913781 0.069910 -0.206813
C16   C     C_R   0.200815 0.226054 0.976615 -0.175568
C17   C     C_R   0.902335 0.822827 0.066073 -0.148724
C18   C     C_R   0.101360 0.302437 0.981796 -0.119949
C19   C     C_R   0.891227 0.730161 0.015620 -0.088546
C20   C     C_R   0.101084 0.389383 0.054486 -0.099995
C21   C     C_R   0.604410 0.056376 0.116953 -0.248935
C22   C     C_R   0.410150 0.128709 0.942294 -0.236238
C23   C     C_R   0.202633 0.275700 0.443805 -0.109771
C24   C     C_R   0.782571 0.714997 0.534466 -0.118407
C25   C     C_R   0.503576 0.105733 0.124176 0.058633
C26   C     C_R   0.505391 0.047429 0.931286 0.078659
C27   C     C_R   0.406162 0.155558 0.038253 0.021915
C28   C     C_R   0.605100 0.009911 0.021442 0.019405
C29   C     C_2   0.026972 0.351858 0.467517 -0.195011
C30   C     C_2   0.900148 0.610747 0.436118 -0.220719
C31   C     C_2   0.972918 0.425484 0.403888 -0.108601
C32   C     C_2   0.890433 0.523681 0.424198 -0.107905
C33   C     C_2   0.871324 0.098122 0.894280 -0.219832
C34   C     C_2   0.021369 0.040725 0.151790 -0.222231
C35   C     C_R   0.203223 0.765004 0.531897 -0.124561
C36   C     C_R   0.808535 0.148391 0.345165 -0.076871
C37   C     C_R   0.297702 0.689631 0.516813 -0.139506
C38   C     C_R   0.704503 0.225781 0.339338 -0.156501
C39   C     C_R   0.290386 0.651050 0.415581 0.115511
C40   C     C_R   0.696816 0.301068 0.423687 0.114658
C41   C     C_R   0.186894 0.687409 0.329819 -0.193181
C42   C     C_R   0.794364 0.297013 0.514158 -0.183422
C43   C     C_R   0.092814 0.763502 0.345449 -0.123203
C44   C     C_R   0.897737 0.218757 0.520029 -0.131784
C45   C     C_R   0.592342 0.215307 0.485125 -0.157490
C46   C     C_R   0.404133 0.771798 0.448078 -0.133756
C47   C     C_R   0.100976 0.802408 0.446336 -0.096559
C48   C     C_R   0.904853 0.144733 0.435370 -0.083368
C49   C     C_R   0.393096 0.469472 0.374445 -0.244608
C50   C     C_R   0.582162 0.489223 0.426579 -0.235636
C51   C     C_R   0.494663 0.381435 0.395976 0.046548
C52   C     C_R   0.486922 0.577293 0.429081 0.067728
C53   C     C_R   0.589179 0.390171 0.414031 0.029098
C54   C     C_R   0.389683 0.567286 0.400054 0.022888
C55   C     C_2   0.875787 0.093778 0.983785 -0.108667
C56   C     C_2   0.965190 0.107838 0.080692 -0.107969
C57   C     C_R   0.408415 0.028784 0.731701 0.526861
C58   C     C_R   0.592166 0.009546 0.282390 0.518867
C59   C     C_R   0.408730 0.285025 0.407713 -0.113621
C60   C     C_R   0.588808 0.693819 0.532117 -0.138067
C61   C     C_R   0.592646 0.960500 0.805167 -0.212054
C62   C     C_R   0.408958 0.091457 0.213256 -0.234528
C63   C     C_R   0.198125 0.185286 0.531466 -0.098333
C64   C     C_R   0.787740 0.805766 0.447879 -0.146579
C65   C     C_R   0.766410 0.076628 0.698052 -0.144209
C66   C     C_R   0.196322 0.970206 0.314826 -0.174079
C67   C     C_R   0.807089 0.052812 0.797165 0.146021
C68   C     C_R   0.136309 0.020538 0.225459 0.151920
H1    H     H_    0.806758 0.932921 0.849248 0.099719
H2    H     H_    0.176682 0.110104 0.173141 0.087665
H3    H     H_    0.987991 0.990634 0.147708 0.126102
H4    H     H_    0.920535 0.129169 0.893237 0.128882
H5    H     H_    0.963162 0.659852 0.013211 0.105853
H6    H     H_    0.023905 0.448985 0.057876 0.101056
H7    H     H_    0.778984 0.656212 0.929957 0.107009
H8    H     H_    0.199221 0.467925 0.177419 0.108599
H9    H     H_    0.614503 0.816117 0.935564 0.100409
H10   H     H_    0.376733 0.331856 0.171288 0.120292
H11   H     H_    0.819070 0.985244 0.108682 0.107373
H12   H     H_    0.199917 0.158943 0.920128 0.120875
H13   H     H_    0.983010 0.823801 0.102499 0.113119
H14   H     H_    0.024465 0.294388 0.929184 0.104249
H15   H     H_    0.681774 0.032819 0.184980 0.184188
H16   H     H_    0.337269 0.168334 0.876229 0.181531
H17   H     H_    0.831859 0.523319 0.443246 0.129828
H18   H     H_    0.003893 0.423189 0.352699 0.126472
H19   H     H_    0.959379 0.610361 0.417475 0.135923
H20   H     H_    0.995097 0.356384 0.519187 0.136634
H21   H     H_    0.027934 0.860938 0.458197 0.115259
H22   H     H_    0.985021 0.085250 0.439029 0.095471
H23   H     H_    0.179039 0.327892 0.392584 0.085840
H24   H     H_    0.807305 0.655843 0.578524 0.088887
H25   H     H_    0.209228 0.793735 0.609990 0.113520
H26   H     H_    0.815454 0.092311 0.279282 0.097679
H27   H     H_    0.376374 0.660842 0.583754 0.108546
H28   H     H_    0.630579 0.229541 0.268238 0.115532
H29   H     H_    0.179435 0.657366 0.251288 0.112928
H30   H     H_    0.790285 0.355166 0.579637 0.112348
H31   H     H_    0.013396 0.791970 0.279544 0.126215
H32   H     H_    0.972419 0.216663 0.589537 0.121287
H33   H     H_    0.318290 0.465561 0.356940 0.125524
H34   H     H_    0.654131 0.497327 0.441215 0.124745
H35   H     H_    0.678353 0.192188 0.506307 0.120051
H36   H     H_    0.318209 0.789792 0.397210 0.124847
H37   H     H_    0.324077 0.321785 0.351648 0.090913
H38   H     H_    0.672551 0.636098 0.566684 0.088555
H39   H     H_    0.678052 0.932194 0.857107 0.153311
H40   H     H_    0.323577 0.142209 0.171408 0.151157
H41   H     H_    0.164498 0.154918 0.555683 0.155045
H42   H     H_    0.820490 0.829876 0.416860 0.172692
H43   H     H_    0.779436 0.128839 0.676307 0.103149
H44   H     H_    0.163480 0.945696 0.345989 0.106551
H45   H     H_    0.997644 0.158288 0.083654 0.126518
H46   H     H_    0.826676 0.062736 0.984911 0.134574
N1    N     N_R   0.705410 0.966550 0.689210 -0.041646
N2    N     N_R   0.294590 0.033450 0.310790 -0.042841
N3    N     N_R   0.294590 0.188320 0.465660 -0.047942
N4    N     N_R   0.705410 0.811680 0.534340 -0.044308
N5    N     N_R   0.556610 0.157790 0.497330 -0.045076
N6    N     N_R   0.443390 0.842210 0.502670 -0.047919
N7    N     N_R   0.443390 0.997080 0.657540 -0.088255
N8    N     N_R   0.556610 0.002920 0.342460 -0.091901
N9    N     N_R   0.443390 0.203250 0.451380 -0.039424
N10   N     N_R   0.556610 0.796750 0.548620 -0.040085
N11   N     N_R   0.556610 0.951620 0.703500 -0.066726
N12   N     N_R   0.443390 0.048380 0.296500 -0.067306
N13   N     N_R   0.294590 0.131500 0.522480 -0.045590
N14   N     N_R   0.705410 0.868500 0.477520 -0.045141
N15   N     N_R   0.705410 0.023370 0.632390 -0.043101
N16   N     N_R   0.294590 0.976630 0.367610 -0.042285
Ni1   Ni    Ni4+2 0.629830 0.882720 0.617850 0.207680
Ni2   Ni    Ni4+2 0.370170 0.117280 0.382150 0.197665
Ni3   Ni    Ni4+2 0.629830 0.013030 0.487540 0.225771
Ni4   Ni    Ni4+2 0.370170 0.986970 0.512460 0.223964
O1    O     O_3   0.299556 0.062329 0.711978 -0.668485
C69   C     C_3   0.289415 0.983505 0.731581 0.239133
H47   H     H_    0.334858 0.972704 0.816047 0.101771
H48   H     H_    0.321499 0.908163 0.686834 0.093483
C70   C     C_3   0.167425 0.014836 0.697936 -0.948477
H49   H     H_    0.121765 0.016468 0.612159 0.250705
H50   H     H_    0.158676 0.958034 0.720843 0.214777
H51   H     H_    0.130642 0.093044 0.735599 0.256444
O2    O     O_3   0.690192 0.934168 0.276681 -0.675732
C71   C     C_3   0.669738 0.848666 0.207915 0.247425
H52   H     H_    0.608434 0.872070 0.127941 0.106894
H53   H     H_    0.636953 0.816649 0.234535 0.105497
C72   C     C_3   0.776983 0.761999 0.202185 -0.909489
H54   H     H_    0.832630 0.720789 0.273308 0.235196
H55   H     H_    0.757690 0.704115 0.135288 0.220324
H56   H     H_    0.821801 0.794277 0.193103 0.278514

loop_
_geom_bond_atom_site_label_1
_geom_bond_atom_site_label_2
_ccdc_geom_bond_type
C33   C55   D    
C66   C68   A    
C55   C56   S    
C34   C56   D    
C23   H23   S    
N9    Ni2   S    
C47   H21   S    
C3    C23   A    
C72   H54   S    
N13   Ni4   S    
C35   C47   A    
C49   C51   A    
C4    C30   S    
O1    C69   S    
C39   C41   A    
N1    Ni1   S    
N5    Ni3   S    
C7    C26   S    
N4    N14   A    
C72   H55   S    
C43   H31   S    
C2    C68   A    
C69   C70   S    
C49   H33   S    
C4    C24   A    
C70   H51   S    
C39   C54   S    
C62   H40   S    
C49   C54   A    
C6    C52   S    
C11   C13   A    
C37   H27   S    
C60   N10   A    
C3    C29   S    
N3    Ni2   S    
C65   H43   S    
C29   H20   S    
N4    Ni1   S    
C11   H9    S    
C33   H4    S    
C8    C58   A    
C2    N2    A    
C58   O2    S    
C9    C19   A    
C15   H11   S    
C21   H15   S    
C10   C20   A    
C65   C67   A    
C12   H10   S    
C50   C52   A    
C56   H45   S    
C13   C28   S    
C14   C27   S    
C17   H13   S    
C45   H35   S    
N6    Ni4   S    
C45   N5    A    
C40   C42   A    
C31   H18   S    
C48   H22   S    
C8    C25   S    
C41   C43   A    
N16   Ni4   S    
C42   C44   A    
C71   C72   S    
C24   H24   S    
C52   C54   A    
C35   H25   S    
C59   N9    A    
C58   N8    A    
C50   C53   A    
C5    C59   A    
C20   H6    S    
C6    C60   A    
C19   H5    S    
C72   H56   S    
C69   H48   S    
C34   C68   S    
C62   N12   A    
C46   H36   S    
C69   H47   S    
C64   N14   A    
C5    C45   A    
C1    H1    S    
N10   Ni1   S    
C16   H12   S    
C22   H16   S    
N8    N12   A    
N8    Ni3   S    
N7    N11   A    
C36   H26   S    
C9    C11   A    
N11   Ni1   S    
C64   H42   S    
C31   C32   S    
N2    Ni2   S    
N12   Ni2   S    
C41   H29   S    
C46   N6    A    
C16   C18   A    
C59   H37   S    
C70   H50   S    
N3    N13   A    
C10   C12   A    
N15   Ni3   S    
C71   H53   S    
C21   C28   A    
C12   C14   A    
C50   H34   S    
C3    C63   A    
C22   C27   A    
C13   C15   A    
N7    Ni4   S    
C14   C16   A    
C17   C19   A    
C60   H38   S    
C33   C67   S    
N1    N15   A    
C15   C17   A    
C21   C25   A    
C6    C46   A    
C35   C37   A    
C10   H8    S    
C57   O1    S    
C71   H52   S    
C23   N3    A    
C65   N15   A    
C70   H49   S    
C1    C67   A    
C55   H46   S    
N5    N9    A    
C25   C27   A    
C9    H7    S    
C4    C64   A    
C26   C28   A    
C66   H44   S    
C42   H30   S    
C29   C31   D    
C44   C48   A    
N14   Ni3   S    
C30   C32   D    
C44   H32   S    
C38   C40   A    
C32   H17   S    
C36   C38   A    
C24   N4    A    
C18   H14   S    
C36   C48   A    
C18   C20   A    
C61   H39   S    
C63   N13   A    
C57   N7    A    
N6    N10   A    
N2    N16   A    
C37   C39   A    
C40   C53   S    
C22   C26   A    
C38   H28   S    
C5    C51   S    
C61   N11   A    
C1    N1    A    
C51   C53   A    
C30   H19   S    
C2    H2    S    
C43   C47   A    
C34   H3    S    
C7    C57   A    
C7    C61   A    
O2    C71   S    
C8    C62   A    
C63   H41   S    
C66   N16   A    
