data_mof_unit_24397.cif
_audit_creation_date              2012-12-10T16:56:36-0500
_audit_creation_method            fapswitch 2.2
_symmetry_space_group_name_H-M    P1
_symmetry_Int_Tables_number       1
_space_group_crystal_system       triclinic
_cell_length_a                    10.897452
_cell_length_b                    10.973105
_cell_length_c                    9.720524
_cell_angle_alpha                 88.94484
_cell_angle_beta                  89.901395
_cell_angle_gamma                 92.685714
_cell_volume                      1160.8918912

loop_
_atom_site_label
_atom_site_type_symbol
_atom_type_description
_atom_site_fract_x
_atom_site_fract_y
_atom_site_fract_z
_atom_type_partial_charge
C1    C     C_R   0.489994 0.265313 0.500571 0.767710
C2    C     C_3   0.879399 0.510618 0.504280 -0.253236
C3    C     C_3   0.938250 0.616637 0.405004 0.842917
C4    C     C_3   0.921104 0.384410 0.446326 -0.275177
C5    C     C_2   0.475710 0.936576 0.394626 -0.108121
C6    C     C_2   0.520497 0.868272 0.498403 0.225126
C7    C     C_2   0.509868 0.068723 0.394311 0.518466
C8    C     C_2   0.461621 0.132681 0.496932 0.252920
C9    C     C_2   0.415698 0.453022 0.929624 0.634132
C10   C     C_2   0.407074 0.506171 0.070304 -0.076386
C11   C     C_R   0.260044 0.499147 0.500681 0.841053
C12   C     C_R   0.502351 0.734945 0.499516 0.681706
C13   C     C_R   0.740281 0.507146 0.500290 0.797995
C14   C     C_3   0.072261 0.515822 0.660412 0.311295
C15   C     C_3   0.926033 0.525969 0.660577 0.293390
C16   C     C_3   0.080834 0.606191 0.407032 -0.543988
C17   C     C_3   0.064394 0.383770 0.433885 0.232866
C18   C     C_3   0.122287 0.501361 0.504284 -0.276363
Cu1   Cu    Cu3+1 0.500030 0.500020 0.638630 0.982143
Cu2   Cu    Cu3+1 0.499970 0.499980 0.361370 0.941858
H1    H     H_    0.886683 0.378213 0.338729 0.135466
H2    H     H_    0.114129 0.588138 0.301994 0.185219
H3    H     H_    0.552348 0.569984 0.885423 0.129169
H4    H     H_    0.570705 0.450966 0.116044 0.196952
H5    H     H_    0.128636 0.695260 0.424474 0.162991
H6    H     H_    0.086527 0.393644 0.321405 0.126568
N1    N     N_2   0.498630 0.498660 0.846910 -0.339197
N2    N     N_2   0.498590 0.498630 0.153040 -0.358704
O1    O     O_R   0.500020 0.321960 0.617040 -0.569265
O2    O     O_R   0.499980 0.321920 0.382900 -0.553971
O3    O     O_R   0.317710 0.500000 0.617070 -0.539820
O4    O     O_R   0.317670 0.499960 0.382930 -0.609769
O5    O     O_R   0.500020 0.678080 0.617100 -0.583984
O6    O     O_R   0.499980 0.678040 0.382960 -0.616691
O7    O     O_R   0.682330 0.500040 0.617070 -0.570670
O8    O     O_R   0.682290 0.500000 0.382930 -0.545779
O9    O     O_3   0.133716 0.609729 0.739920 -0.507800
C19   C     C_3   0.163434 0.724123 0.676882 -0.119308
H7    H     H_    0.083969 0.764791 0.626657 0.188185
H8    H     H_    0.244096 0.720462 0.608063 0.110843
H9    H     H_    0.192159 0.788023 0.759145 0.189128
O10   O     O_3   0.891314 0.598175 0.268535 -0.610587
C20   C     C_3   0.942952 0.679500 0.166621 -0.265872
H10   H     H_    0.003424 0.755022 0.207224 0.179786
H11   H     H_    0.867362 0.720033 0.107713 0.189437
H12   H     H_    0.996853 0.627179 0.093796 0.246319
C21   C     C_2   0.372119 0.893283 0.305859 0.283704
H13   H     H_    0.323499 0.806787 0.327276 0.068993
O11   O     O_2   0.336271 0.957098 0.211334 -0.581945
O12   O     O_3   0.602320 0.925037 0.590541 -0.600599
C22   C     C_3   0.570700 0.898155 0.729041 -0.221598
H14   H     H_    0.620089 0.817929 0.766803 0.171672
H15   H     H_    0.469803 0.883985 0.745874 0.168476
H16   H     H_    0.602516 0.976468 0.792376 0.167433
O13   O     O_3   0.603947 0.122362 0.312080 -0.614955
C23   C     C_3   0.630245 0.052234 0.196511 -0.322315
H17   H     H_    0.549135 0.042209 0.127929 0.199515
H18   H     H_    0.664162 0.961858 0.227264 0.155431
H19   H     H_    0.704587 0.101058 0.136449 0.182976
O14   O     O_3   0.367774 0.073750 0.575273 -0.638054
C24   C     C_3   0.355944 0.121434 0.707031 -0.245624
H20   H     H_    0.309030 0.208107 0.699740 0.228735
H21   H     H_    0.445851 0.132228 0.760491 0.176349
H22   H     H_    0.296841 0.056549 0.769473 0.172108
O15   O     O_3   0.335840 0.359972 0.885337 -0.573914
C25   C     C_3   0.302555 0.278949 0.995526 -0.298648
H23   H     H_    0.243181 0.322767 0.071465 0.201636
H24   H     H_    0.385034 0.242706 0.046641 0.158634
H25   H     H_    0.247553 0.200278 0.954656 0.187123
C26   C     C_2   0.302918 0.581090 0.102992 0.400543
H26   H     H_    0.307084 0.640378 0.190302 0.095134
O16   O     O_2   0.213387 0.581768 0.028071 -0.512699
C27   C     C_2   0.104140 0.402107 0.744138 0.720431
H27   H     H_    0.152909 0.329424 0.701471 0.089494
O17   O     O_2   0.083515 0.394690 0.867436 -0.523929
O18   O     O_3   0.869306 0.424271 0.737684 -0.571943
C28   C     C_3   0.829311 0.446147 0.873697 -0.098194
H28   H     H_    0.747263 0.501601 0.873186 0.126848
H29   H     H_    0.901991 0.490608 0.937164 0.214340
H30   H     H_    0.802724 0.357236 0.923965 0.158959
C29   C     C_2   0.884390 0.649075 0.716318 0.392232
H31   H     H_    0.807268 0.693388 0.670540 0.095363
O19   O     O_2   0.927718 0.693644 0.820792 -0.562464
O20   O     O_3   0.916306 0.735341 0.454986 -0.657660
C30   C     C_3   0.812719 0.791294 0.400566 -0.306935
H32   H     H_    0.736234 0.726391 0.374230 0.194583
H33   H     H_    0.839222 0.849673 0.310204 0.172956
H34   H     H_    0.780585 0.853773 0.478802 0.234883
O21   O     O_3   0.114624 0.274529 0.484735 -0.587514
C31   C     C_3   0.125430 0.188145 0.379909 -0.197814
H35   H     H_    0.037977 0.173611 0.322249 0.141835
H36   H     H_    0.147997 0.099503 0.427868 0.230162
H37   H     H_    0.201598 0.216924 0.308515 0.150280
C32   C     C_2   0.858854 0.272379 0.516280 0.547913
H38   H     H_    0.765057 0.246148 0.488641 0.067176
O22   O     O_2   0.909560 0.212530 0.604750 -0.478063

loop_
_geom_bond_atom_site_label_1
_geom_bond_atom_site_label_2
_ccdc_geom_bond_type
C25   H24   S    
O13   C23   S    
C11   C18   S    
C1    C8    S    
C27   H27   S    
C14   C18   S    
Cu1   Cu2   S    
C7    O13   S    
Cu1   O3    S    
C29   H31   S    
C7    C8    D    
C21   O11   D    
Cu2   O2    S    
C28   H28   S    
C5    C21   S    
C17   H6    S    
C13   O7    A    
C6    C12   S    
C5    C6    D    
C30   H34   S    
C25   H25   S    
C3    O10   S    
C23   H17   S    
C24   H21   S    
C2    C13   S    
C26   H26   S    
H3    N1    S    
Cu1   N1    S    
C9    C10   S    
Cu2   O6    S    
C28   H29   S    
C15   O18   S    
C11   O3    A    
C27   O17   D    
C32   H38   S    
C29   O19   D    
O12   C22   S    
C30   H33   S    
C22   H14   S    
C14   C27   S    
C17   O21   S    
O18   C28   S    
C13   O8    A    
C15   C29   S    
Cu1   O5    S    
C5    C7    S    
Cu2   N2    S    
C30   H32   S    
C6    O12   S    
O14   C24   S    
C22   H15   S    
C24   H22   S    
C2    C4    S    
C20   H10   S    
O9    C19   S    
C31   H36   S    
C21   H13   S    
C1    O1    A    
C17   C18   S    
O20   C30   S    
C32   O22   D    
C2    C15   S    
C20   H11   S    
C19   H9    S    
C4    C32   S    
C4    C17   S    
C10   C26   S    
C11   O4    A    
O10   C20   S    
C12   O6    A    
Cu1   O1    S    
C9    N1    D    
C31   H37   S    
Cu2   O4    S    
C28   H30   S    
C10   N2    D    
C16   H5    S    
C16   H2    S    
H4    N2    S    
C23   H19   S    
C22   H16   S    
C2    C3    S    
O21   C31   S    
Cu1   O7    S    
C8    O14   S    
C14   O9    S    
C19   H8    S    
C4    H1    S    
C31   H35   S    
C19   H7    S    
C1    O2    A    
C23   H18   S    
C25   H23   S    
C24   H20   S    
C20   H12   S    
C9    O15   S    
Cu2   O8    S    
C16   C18   S    
O15   C25   S    
C3    O20   S    
C14   C15   S    
C26   O16   D    
C12   O5    A    
C3    C16   S    
