data_mof_unit_17406.cif
_audit_creation_date              2012-12-11T14:19:31-0500
_audit_creation_method            fapswitch 2.2
_symmetry_space_group_name_H-M    P1
_symmetry_Int_Tables_number       1
_space_group_crystal_system       triclinic
_cell_length_a                    19.458789
_cell_length_b                    7.221351
_cell_length_c                    17.791436
_cell_angle_alpha                 90.160755
_cell_angle_beta                  107.802488
_cell_angle_gamma                 89.815264
_cell_volume                      2380.30238878

loop_
_atom_site_label
_atom_site_type_symbol
_atom_type_description
_atom_site_fract_x
_atom_site_fract_y
_atom_site_fract_z
_atom_type_partial_charge
O1    O     O_R   0.414820 0.494320 0.416790 -0.540008
O2    O     O_R   0.585180 0.994320 0.583210 -0.538906
O3    O     O_R   0.560270 0.819500 0.430140 -0.540526
O4    O     O_R   0.439730 0.319500 0.569860 -0.548343
C1    C     C_R   0.580067 0.654516 0.413474 0.712297
C2    C     C_R   0.420391 0.155902 0.587115 0.712740
O5    O     O_R   0.413840 0.823740 0.407440 -0.538078
O6    O     O_R   0.586160 0.323740 0.592560 -0.540285
O7    O     O_R   0.437710 0.998590 0.560350 -0.537766
O8    O     O_R   0.562290 0.498590 0.439650 -0.544921
C3    C     C_R   0.387754 0.654650 0.385091 0.748333
C4    C     C_R   0.612300 0.154608 0.614827 0.746752
O9    O     O_3   0.508000 0.662290 0.550200 -0.379984
O10   O     O_3   0.492000 0.162290 0.449800 -0.381217
V1    V     V_3+5 0.498520 0.935380 0.490690 1.415530
V2    V     V_3+5 0.501480 0.435380 0.509310 1.394109
C5    C     C_2   0.782876 0.278232 0.789503 0.234371
C6    C     C_2   0.218909 0.776773 0.207903 0.248279
C7    C     C_2   0.820063 0.119003 0.816716 -0.239989
C8    C     C_2   0.180080 0.618940 0.183073 -0.239195
H1    H     H_    0.801683 0.988359 0.787652 0.094925
H2    H     H_    0.196949 0.490039 0.214287 0.087522
C9    C     C_2   0.716198 0.285300 0.719685 -0.182061
C10   C     C_2   0.285012 0.784954 0.278381 -0.182565
C11   C     C_2   0.678534 0.137703 0.683052 -0.316578
C12   C     C_2   0.321702 0.637597 0.316612 -0.318421
H3    H     H_    0.696595 0.422663 0.698790 0.148665
H4    H     H_    0.305243 0.922492 0.298083 0.148362
H5    H     H_    0.695603 0.998661 0.703059 0.135067
H6    H     H_    0.304170 0.498386 0.297355 0.134425
C13   C     C_R   0.325512 0.001957 0.632405 -0.226378
C14   C     C_R   0.676852 0.788710 0.365903 -0.222273
C15   C     C_R   0.373865 0.149688 0.639854 -0.118267
C16   C     C_R   0.627635 0.644656 0.362027 -0.116226
C17   C     C_R   0.376525 0.289230 0.697289 0.161635
C18   C     C_R   0.624392 0.495998 0.308626 0.158620
C19   C     C_R   0.328988 0.281211 0.743507 0.064824
C20   C     C_R   0.671255 0.493660 0.261417 0.063718
C21   C     C_R   0.278927 0.135161 0.733229 0.036311
C22   C     C_R   0.722073 0.636746 0.267938 0.036728
C23   C     C_R   0.278157 0.994735 0.677993 0.056718
C24   C     C_R   0.724114 0.784599 0.320195 0.057827
C25   C     C_R   0.329887 0.419774 0.798947 -0.176357
C26   C     C_R   0.668502 0.348807 0.208244 -0.183161
C27   C     C_R   0.283856 0.414441 0.845332 0.301025
C28   C     C_R   0.713405 0.344719 0.160518 0.305635
C29   C     C_R   0.234150 0.265834 0.837276 0.054555
C30   C     C_R   0.764564 0.488813 0.165540 0.058609
C31   C     C_R   0.229786 0.129310 0.778170 -0.074497
C32   C     C_R   0.770595 0.632447 0.222153 -0.072288
C33   C     C_R   0.176604 0.987203 0.763595 0.047584
C34   C     C_R   0.824617 0.772025 0.233210 0.047885
C35   C     C_R   0.180474 0.839887 0.711089 0.240188
C36   C     C_R   0.822292 0.926015 0.283215 0.242881
C37   C     C_R   0.230549 0.846844 0.669305 -0.141869
C38   C     C_R   0.772643 0.929015 0.325571 -0.137422
C39   C     C_R   0.189664 0.247674 0.886621 0.152195
C40   C     C_R   0.809054 0.495408 0.115770 0.141959
C41   C     C_R   0.131474 0.120563 0.866846 -0.163529
C42   C     C_R   0.867918 0.620070 0.132320 -0.165383
C43   C     C_R   0.122523 0.998813 0.802157 0.198337
C44   C     C_R   0.877820 0.751396 0.193729 0.192839
H7    H     H_    0.323534 0.893553 0.589475 0.132938
H8    H     H_    0.679378 0.903639 0.406050 0.131572
H9    H     H_    0.366216 0.536381 0.806210 0.203069
H10   H     H_    0.631140 0.235311 0.203432 0.203603
H11   H     H_    0.232379 0.733665 0.629724 0.141091
H12   H     H_    0.771868 0.047455 0.362965 0.141336
O11   O     O_R   0.937810 0.773680 0.060480 -0.516871
O12   O     O_R   0.062190 0.273680 0.939520 -0.550916
O13   O     O_R   0.086190 0.439740 0.092580 -0.554536
O14   O     O_R   0.913810 0.939740 0.907420 -0.541132
C45   C     C_R   0.112936 0.609087 0.114533 0.766644
C46   C     C_R   0.887204 0.109221 0.885269 0.767112
O15   O     O_R   0.939760 0.444210 0.069890 -0.549457
O16   O     O_R   0.060240 0.944210 0.930110 -0.514907
O17   O     O_R   0.914790 0.269640 0.916760 -0.515134
O18   O     O_R   0.085210 0.769640 0.083240 -0.501041
C47   C     C_R   0.918779 0.612543 0.084431 0.752315
C48   C     C_R   0.081021 0.112428 0.915253 0.754820
O19   O     O_3   0.992050 0.601530 0.949880 -0.369968
O20   O     O_3   0.007950 0.101530 0.050120 -0.364831
V3    V     V_3+5 0.001480 0.328340 0.009300 1.496701
V4    V     V_3+5 0.998520 0.828340 0.990700 1.569877
N1    N     N_3   0.807651 0.451842 0.827562 -0.629501
H13   H     H_    0.765900 0.509928 0.845480 0.217971
H14   H     H_    0.817927 0.540528 0.785914 0.231938
N2    N     N_3   0.196589 0.947631 0.166361 -0.622400
H15   H     H_    0.239248 0.996465 0.147772 0.222298
H16   H     H_    0.187102 0.044255 0.205963 0.229231
Br1   Br    Br    0.029012 0.882371 0.758699 -0.576759
Br2   Br    Br    0.971310 0.870869 0.231094 -0.573125
N3    N     N_3   0.140665 0.670893 0.704470 -0.653721
H17   H     H_    0.088833 0.689378 0.665410 0.283321
H18   H     H_    0.139524 0.627727 0.760105 0.279443
N4    N     N_3   0.863391 0.091810 0.286760 -0.654735
H19   H     H_    0.915524 0.072448 0.324993 0.282552
H20   H     H_    0.863445 0.130085 0.230161 0.279471
N5    N     N_3   0.428349 0.436819 0.711498 -0.667130
H21   H     H_    0.479863 0.381605 0.719712 0.243200
H22   H     H_    0.414457 0.527578 0.663547 0.248889
N6    N     N_3   0.572564 0.349720 0.299506 -0.667196
H23   H     H_    0.521142 0.407051 0.289534 0.241669
H24   H     H_    0.586308 0.269543 0.350765 0.249912
Br3   Br    Br    0.288847 0.630902 0.910622 -0.529398
Br4   Br    Br    0.703615 0.123797 0.096832 -0.525701
N7    N     N_3   0.207280 0.347830 0.959878 -0.595119
H25   H     H_    0.168450 0.450168 0.956686 0.262998
H26   H     H_    0.209466 0.256540 0.006087 0.224420
N8    N     N_3   0.791319 0.384679 0.045307 -0.592794
H27   H     H_    0.789559 0.468387 0.996900 0.228526
H28   H     H_    0.829928 0.280438 0.051249 0.264498

loop_
_geom_bond_atom_site_label_1
_geom_bond_atom_site_label_2
_ccdc_geom_bond_type
C42   C47   S    
O4    V2    S    
N3    H17   S    
C26   H10   S    
O1    C3    A    
O2    C4    A    
O16   V4    S    
C2    O7    A    
C29   C31   A    
N1    H13   S    
O5    C3    A    
C5    C9    S    
C6    C10   S    
C18   N6    S    
C7    H1    S    
C10   C12   D    
C39   C41   A    
O17   V3    S    
C40   C42   A    
C42   C44   A    
C27   C29   A    
N8    H27   S    
C23   C37   A    
C24   C38   A    
C26   C28   A    
C31   C33   A    
C46   O17   A    
C44   Br2   S    
C32   C34   A    
C45   O18   A    
C13   C15   A    
C9    H3    S    
C10   H4    S    
C36   N4    S    
C25   H9    S    
C30   C32   A    
N3    H18   S    
C1    C16   S    
N7    H26   S    
C17   N5    S    
C27   Br3   S    
C34   C36   A    
O13   V3    S    
C35   C37   A    
C11   H5    S    
C28   C30   A    
C41   C43   A    
N1    H14   S    
C35   N3    S    
C13   H7    S    
C14   H8    S    
C21   C23   A    
O13   C45   A    
C5    C7    D    
O5    V1    S    
C3    C12   S    
C38   H12   S    
O12   C48   A    
C6    N2    S    
N4    H20   S    
C33   C35   A    
C14   C16   A    
C19   C25   A    
C20   C26   A    
O2    V1    S    
C29   C39   A    
N5    H21   S    
O6    C4    A    
N4    H19   S    
O1    V2    S    
N6    H24   S    
O12   V3    S    
C25   C27   A    
O14   V4    S    
O14   C46   A    
C21   C31   A    
N2    H16   S    
C12   H6    S    
C5    N1    S    
O11   C47   A    
O4    C2    A    
N7    H25   S    
O19   V4    S    
O3    V1    S    
C13   C23   A    
C17   C19   A    
C40   N8    S    
C7    C46   S    
O16   C48   A    
C8    H2    S    
O3    C1    A    
C41   C48   S    
C37   H11   S    
C36   C38   A    
C30   C40   A    
C2    C15   S    
C4    C11   S    
C18   C20   A    
O7    V1    S    
C1    O8    A    
C19   C21   A    
O11   V4    S    
O8    V2    S    
C20   C22   A    
C33   C43   A    
O15   V3    S    
C22   C32   A    
C28   Br4   S    
C22   C24   A    
C15   C17   A    
C16   C18   A    
C8    C45   S    
C6    C8    D    
C9    C11   D    
N6    H23   S    
N8    H28   S    
O18   V4    S    
N2    H15   S    
O6    V2    S    
O20   V3    S    
O9    V2    S    
C39   N7    S    
C14   C24   A    
O10   V1    S    
C34   C44   A    
O15   C47   A    
N5    H22   S    
C43   Br1   S    
