data_mof_unit_45540.cif
_audit_creation_date              2012-12-11T15:45:18-0500
_audit_creation_method            fapswitch 2.2
_symmetry_space_group_name_H-M    P1
_symmetry_Int_Tables_number       1
_space_group_crystal_system       triclinic
_cell_length_a                    8.249633
_cell_length_b                    18.987117
_cell_length_c                    22.897958
_cell_angle_alpha                 94.667436
_cell_angle_beta                  89.37464
_cell_angle_gamma                 94.649202
_cell_volume                      3562.97161102

loop_
_atom_site_label
_atom_site_type_symbol
_atom_type_description
_atom_site_fract_x
_atom_site_fract_y
_atom_site_fract_z
_atom_type_partial_charge
Ba1   Ba    Ba6+2 0.850680 0.532880 0.472010 1.643864
Ba2   Ba    Ba6+2 0.339140 0.467180 0.527990 1.646785
C1    C     C_3   0.645540 0.796076 0.322084 -0.360927
C2    C     C_3   0.627201 0.721521 0.342202 0.353342
C3    C     C_3   0.429250 0.286629 0.351627 0.500303
C4    C     C_3   0.377105 0.209912 0.364320 -0.367524
C5    C     C_3   0.099944 0.316312 0.690954 0.329061
C6    C     C_3   0.137068 0.296930 0.752344 -0.278229
C7    C     C_3   0.559699 0.279002 0.662505 0.376736
C8    C     C_3   0.528220 0.205458 0.684019 -0.353808
C9    C     C_R   0.338207 0.521191 0.330728 -0.304904
C10   C     C_R   0.100975 0.560142 0.939589 -0.012791
C11   C     C_R   0.048390 0.557391 0.880578 0.662005
C12   C     C_3   0.102925 0.684923 0.310958 0.315987
C13   C     C_R   0.009638 0.430461 0.877168 0.673244
C14   C     C_R   0.066818 0.431303 0.935244 -0.013694
C15   C     C_R   0.109351 0.496612 0.967020 -0.034229
C16   C     C_R   0.143488 0.624984 0.972153 -0.059490
C17   C     C_R   0.189827 0.626777 0.030914 -0.065211
C18   C     C_R   0.196271 0.563759 0.059059 -0.017752
C19   C     C_R   0.158138 0.498397 0.026743 -0.045150
C20   C     C_R   0.079069 0.368194 0.962722 -0.063118
C21   C     C_R   0.130312 0.369922 0.020914 -0.065204
C22   C     C_R   0.168472 0.434838 0.053929 -0.038304
C23   C     C_3   0.071841 0.705045 0.249398 -0.307364
C24   C     C_R   0.214056 0.437689 0.113684 0.606438
C25   C     C_R   0.237809 0.564820 0.118952 0.565600
C26   C     C_2   0.787245 0.463035 0.774910 0.402281
C27   C     C_3   0.757549 0.438412 0.710220 -0.104678
C28   C     C_1   0.004582 0.511309 0.686071 0.042048
C29   C     C_2   0.054084 0.514294 0.741673 -0.182372
C30   C     C_2   0.941018 0.490519 0.789895 0.130688
C31   C     C_R   0.418646 0.539690 0.231009 -0.135440
C32   C     C_R   0.452485 0.546809 0.290892 -0.017530
C33   C     C_R   0.193092 0.483755 0.311961 -0.002222
C34   C     C_3   0.199667 0.683389 0.595325 0.306124
C35   C     C_R   0.156805 0.475115 0.250466 0.142335
C36   C     C_R   0.270675 0.505436 0.209623 0.217231
C37   C     C_2   0.868643 0.475202 0.667578 -0.365001
C38   C     C_R   0.397493 0.700863 0.472701 -0.295550
C39   C     C_R   0.538655 0.723657 0.503798 0.066850
C40   C     C_R   0.590105 0.795887 0.510498 -0.125487
C41   C     C_R   0.498241 0.846222 0.487121 -0.019022
C42   C     C_R   0.351687 0.822490 0.457689 -0.137873
C43   C     C_R   0.300447 0.749925 0.451726 0.014508
C44   C     C_R   0.536998 0.967672 0.450377 -0.076371
C45   C     C_3   0.214296 0.763230 0.610030 -0.400335
C46   C     C_R   0.588793 0.039774 0.458201 -0.074699
C47   C     C_R   0.656008 0.069556 0.511801 0.060332
C48   C     C_R   0.672515 0.025051 0.557081 -0.078440
C49   C     C_R   0.620935 0.952759 0.549197 -0.075613
C50   C     C_R   0.552183 0.923194 0.495744 0.062978
C51   C     C_R   0.850621 0.173363 0.548891 -0.135146
C52   C     C_R   0.896837 0.246515 0.553134 0.019007
C53   C     C_R   0.656797 0.267638 0.499980 0.032830
C54   C     C_R   0.608091 0.195235 0.496398 -0.127879
C55   C     C_R   0.704386 0.147037 0.520404 -0.007005
C56   C     C_3   0.989164 0.318018 0.408054 0.299235
C57   C     C_R   0.795943 0.293296 0.531011 -0.281651
C58   C     C_3   0.938787 0.239926 0.391934 -0.416856
C59   C     C_3   0.687890 0.620532 0.647787 0.284425
C60   C     C_3   0.643817 0.629338 0.713035 -0.010619
H1    H     H_    0.693436 0.721948 0.384261 0.079140
H2    H     H_    0.298613 0.777212 0.647429 0.125091
H3    H     H_    0.093030 0.781763 0.621802 0.117082
H4    H     H_    0.261793 0.790821 0.571956 0.071223
H5    H     H_    0.884463 0.344403 0.427264 0.032866
H6    H     H_    0.088378 0.322280 0.440596 0.065152
H7    H     H_    0.823936 0.234063 0.366656 0.148586
H8    H     H_    0.922000 0.210847 0.431751 0.068013
H9    H     H_    0.033626 0.215368 0.364549 0.121321
H10   H     H_    0.820698 0.618884 0.642662 0.000066
H11   H     H_    0.626622 0.569259 0.629682 0.035541
H12   H     H_    0.776199 0.813005 0.315883 0.140769
H13   H     H_    0.693772 0.586968 0.736220 0.051961
H14   H     H_    0.509315 0.622865 0.717809 0.120845
H15   H     H_    0.495631 0.706849 0.349032 -0.057826
H16   H     H_    0.593348 0.833464 0.355579 0.069195
H17   H     H_    0.333427 0.321991 0.366074 0.036784
H18   H     H_    0.317346 0.208606 0.407847 0.084131
H19   H     H_    0.288433 0.184740 0.331298 0.080417
H20   H     H_    0.484322 0.177991 0.362958 0.104793
H21   H     H_    0.580309 0.797594 0.280088 0.123521
H22   H     H_    0.061040 0.656570 0.218870 0.121136
H23   H     H_    0.175017 0.365748 0.682747 0.099593
H24   H     H_    0.969219 0.325840 0.688488 -0.047189
H25   H     H_    0.174468 0.345796 0.780340 0.127830
H26   H     H_    0.028411 0.268526 0.771258 0.128544
H27   H     H_    0.238776 0.262093 0.751817 0.148211
H28   H     H_    0.693443 0.292468 0.662880 -0.069398
H29   H     H_    0.513704 0.277128 0.616937 0.059511
H30   H     H_    0.597013 0.167187 0.656431 0.062851
H31   H     H_    0.396733 0.187924 0.681081 0.139970
H32   H     H_    0.022487 0.636860 0.318322 0.102542
H33   H     H_    0.568422 0.205980 0.730195 0.138084
H34   H     H_    0.137048 0.320094 0.040323 0.122551
H35   H     H_    0.048329 0.317036 0.939316 0.119170
H36   H     H_    0.219282 0.677960 0.054452 0.121261
H37   H     H_    0.508475 0.560400 0.200655 0.108264
H38   H     H_    0.139056 0.674787 0.952500 0.121284
H39   H     H_    0.176730 0.535565 0.753061 0.156623
H40   H     H_    0.366808 0.527240 0.376953 0.094910
H41   H     H_    0.231863 0.672768 0.314178 -0.041621
H42   H     H_    0.852829 0.458478 0.621392 0.098373
H43   H     H_    0.497158 0.176177 0.473793 0.068838
H44   H     H_    0.577478 0.072175 0.421906 0.057496
H45   H     H_    0.487045 0.946519 0.408440 0.064055
H46   H     H_    0.700536 0.812653 0.534645 0.082338
H47   H     H_    0.722052 0.046448 0.599025 0.064403
H48   H     H_    0.632188 0.920241 0.585420 0.059756
H49   H     H_    0.931195 0.137278 0.565227 0.077792
H50   H     H_    0.274693 0.860187 0.441653 0.080326
H51   H     H_    0.833170 0.349423 0.533365 0.060420
H52   H     H_    0.956373 0.731022 0.247902 0.147733
H53   H     H_    0.356755 0.645069 0.468649 0.070953
H54   H     H_    0.173151 0.742006 0.235171 0.123454
H55   H     H_    0.320988 0.665763 0.584030 0.012786
H56   H     H_    0.116143 0.670725 0.557580 0.067696
N1    N     N_R   0.000779 0.493046 0.850158 -0.401962
N2    N     N_R   0.239177 0.502281 0.146573 -0.423916
O1    O     O_2   0.896730 0.461690 0.361000 -0.441984
O2    O     O_3   0.638369 0.678217 0.620031 -0.644931
O3    O     O_3   0.067905 0.741250 0.351440 -0.601589
O4    O     O_2   0.292960 0.538340 0.639040 -0.465924
O5    O     O_3   0.052540 0.537650 0.567960 -0.488379
O6    O     O_3   0.532200 0.411510 0.604930 -0.491462
O7    O     O_3   0.140132 0.651062 0.644662 -0.641407
O8    O     O_3   0.629030 0.416090 0.471500 -0.444483
O9    O     O_3   0.120120 0.375640 0.576470 -0.492142
O10   O     O_2   0.231512 0.250145 0.541708 -0.486316
O11   O     O_3   0.138272 0.260675 0.650442 -0.605607
O12   O     O_3   0.137170 0.462400 0.432040 -0.485285
O13   O     O_3   0.560670 0.583970 0.528500 -0.481562
O14   O     O_2   0.373560 0.329680 0.473470 -0.479944
O15   O     O_3   0.577949 0.309686 0.379497 -0.643571
O16   O     O_2   0.417379 0.461141 0.707529 -0.449426
O17   O     O_3   0.477964 0.328055 0.698931 -0.561946
O18   O     O_2   0.042154 0.612353 0.856735 -0.600058
O19   O     O_2   0.962342 0.373947 0.851277 -0.592521
O20   O     O_2   0.230073 0.382703 0.136502 -0.583738
O21   O     O_2   0.272257 0.621712 0.146584 -0.614673
O22   O     O_3   0.657500 0.588540 0.395070 -0.477398
O23   O     O_2   0.791340 0.547284 0.294355 -0.501225
O24   O     O_3   0.042606 0.348741 0.357224 -0.647017
O25   O     O_3   0.693459 0.674622 0.299506 -0.601584
O26   O     O_2   0.816140 0.670340 0.526560 -0.463212
O27   O     O_3   0.069580 0.624410 0.423530 -0.494639
O28   O     O_2   0.964475 0.750526 0.459285 -0.484610
P1    P     P_3+3 0.067040 0.441110 0.370020 0.992859
P2    P     P_3+3 0.640420 0.660110 0.543790 0.985301
P3    P     P_3+3 0.100151 0.716863 0.422170 0.941391
P4    P     P_3+3 0.122660 0.558950 0.629980 0.986661
P5    P     P_3+3 0.097279 0.283179 0.579958 0.942122
P6    P     P_3+3 0.648322 0.588065 0.319115 0.952037
P7    P     P_3+3 0.557180 0.327577 0.455711 0.944698
P8    P     P_3+3 0.546474 0.413183 0.681123 1.025029
N3    N     N_2   0.702366 0.698200 0.740420 -0.411150
H57   H     H_    0.643136 0.740126 0.727527 0.219966
C61   C     C_3   0.876726 0.712535 0.745484 -0.160884
H58   H     H_    0.928960 0.727412 0.702956 0.114358
H59   H     H_    0.933899 0.665571 0.759185 0.155229
H60   H     H_    0.904321 0.757469 0.778907 0.119290
N4    N     N_2   0.449833 0.289116 0.288608 -0.423149
H61   H     H_    0.344810 0.273337 0.265377 0.187420
C62   C     C_3   0.530895 0.353435 0.268899 -0.144443
H62   H     H_    0.533762 0.350081 0.220261 0.114050
H63   H     H_    0.658271 0.360808 0.284780 0.140714
H64   H     H_    0.464781 0.399544 0.284966 0.052061
S1    S     S_3+6 0.629471 0.450604 0.828138 -0.045805
O29   O     O_2   0.687674 0.468317 0.889911 -0.291606
O30   O     O_2   0.497835 0.498184 0.817455 -0.311428
O31   O     O_3   0.551630 0.365758 0.821029 -0.492131
H65   H     H_    0.449098 0.365121 0.843974 0.349291
N5    N     N_2   0.015696 0.431967 0.229657 -0.395153
H66   H     H_    0.964842 0.394794 0.256169 0.212615
C63   C     C_3   0.901646 0.461583 0.192523 -0.135880
H67   H     H_    0.777122 0.455280 0.211160 0.097638
H68   H     H_    0.898071 0.431920 0.148754 0.100235
H69   H     H_    0.934118 0.518765 0.187607 0.105211

loop_
_geom_bond_atom_site_label_1
_geom_bond_atom_site_label_2
_ccdc_geom_bond_type
C53   C54   A    
C62   H62   S    
C4    H20   S    
C53   C57   A    
C39   C40   A    
N4    H61   S    
Ba1   O8    S    
Ba1   O12   S    
C7    H29   S    
C52   P5    S    
C47   C55   S    
C5    C6    S    
C29   C30   S    
C51   C52   A    
C54   C55   A    
C53   P7    S    
C10   C11   A    
C2    H1    S    
Ba2   O14   S    
C3    C4    S    
C3    N4    S    
C45   H3    S    
C26   C27   S    
C33   C35   A    
C24   N2    Am   
Ba1   Ba2   S    
C24   O20   D    
C28   C29   D    
O16   P8    D    
C41   C50   S    
C5    H24   S    
C56   C58   S    
C13   C14   A    
C44   C50   A    
C58   H7    S    
Ba2   O9    S    
O15   P7    S    
C21   H34   S    
C34   C45   S    
C16   C17   A    
S1    O29   D    
C1    H12   S    
N5    H66   S    
Ba1   O22   S    
O8    P7    S    
C35   N5    S    
O26   P2    D    
C7    O17   S    
N3    H57   S    
C46   H44   S    
C6    H26   S    
C17   C18   A    
O1    P1    D    
C14   C15   A    
C10   C15   A    
C23   H22   S    
Ba2   O12   S    
C21   C22   A    
O28   P3    D    
Ba1   P1    S    
C58   H8    S    
C3    H17   S    
C34   H56   S    
C7    C8    S    
C45   H4    S    
C5    O11   S    
C36   N2    S    
C51   H49   S    
C63   H68   S    
O4    P4    D    
C8    H30   S    
C62   H63   S    
C20   H35   S    
O12   P1    S    
S1    O30   D    
C60   H14   S    
Ba1   O26   S    
C16   H38   S    
Ba1   O13   S    
C11   N1    Am   
C17   H36   S    
C48   C49   A    
O3    P3    S    
C52   C57   A    
C32   P6    S    
Ba2   P4    S    
C38   C43   A    
C44   C46   A    
C61   H60   S    
Ba2   O13   S    
C49   C50   A    
C26   C30   D    
C23   H54   S    
C45   H2    S    
C51   C55   A    
O23   P6    D    
C39   P2    S    
C8    H31   S    
C59   H11   S    
C25   N2    Am   
C48   H47   S    
C15   C19   A    
O17   P8    S    
C59   O2    S    
C43   P3    S    
O27   P3    S    
C41   C42   A    
C35   C36   A    
O5    P4    S    
O7    P4    S    
C56   H5    S    
C28   P4    S    
C61   H58   S    
O2    P2    S    
O11   P5    S    
C57   H51   S    
C44   H45   S    
C27   C37   S    
C61   H59   S    
C31   C32   A    
C60   N3    S    
Ba1   P2    S    
O22   P6    S    
C34   H55   S    
C9    H40   S    
C27   P8    S    
O25   P6    S    
C42   H50   S    
C59   H10   S    
C56   H6    S    
C38   C39   A    
C62   H64   S    
C37   H42   S    
C1    H21   S    
C4    H18   S    
S1    O31   S    
C60   H13   S    
Ba1   O27   S    
C34   O7    S    
C40   C41   A    
C30   N1    S    
C1    C2    S    
Ba2   O6    S    
O31   H65   S    
C3    O15   S    
O14   P7    D    
C63   H67   S    
C14   C20   A    
C12   O3    S    
O24   P1    S    
N4    C62   S    
C9    C32   A    
O13   P2    S    
C22   C24   A    
C7    H28   S    
C18   C25   A    
Ba2   O4    S    
C49   H48   S    
C31   C36   A    
C58   H9    S    
Ba1   O5    S    
C6    H25   S    
C11   O18   D    
C63   H69   S    
C9    C33   A    
C2    H15   S    
C23   H52   S    
O9    P5    S    
C13   O19   D    
C12   H41   S    
C5    H23   S    
C8    H33   S    
C29   H39   S    
C46   C47   A    
C2    O25   S    
C25   O21   D    
C13   N1    Am   
C28   C37   D    
O10   P5    D    
C12   C23   S    
C59   C60   S    
C42   C43   A    
N5    C63   S    
C54   H43   S    
Ba1   O1    S    
C38   H53   S    
Ba2   O5    S    
C56   O24   S    
C26   S1    S    
C18   C19   A    
N3    C61   S    
C47   C48   A    
C19   C22   A    
C10   C16   A    
C4    H19   S    
C20   C21   A    
C6    H27   S    
C33   P1    S    
C31   H37   S    
C1    H16   S    
C40   H46   S    
C12   H32   S    
O6    P8    S    
Ba2   O8    S    
