data_mof_unit_57481.cif
_audit_creation_date              2013-03-05T15:54:37-0500
_audit_creation_method            fapswitch 2.2
_symmetry_space_group_name_H-M    P1
_symmetry_Int_Tables_number       1
_space_group_crystal_system       triclinic
_cell_length_a                    17.37043
_cell_length_b                    24.426733
_cell_length_c                    14.980276
_cell_angle_alpha                 90.118883
_cell_angle_beta                  125.286259
_cell_angle_gamma                 89.983519
_cell_volume                      5188.37875996

loop_
_atom_site_label
_atom_site_type_symbol
_atom_site_description
_atom_site_fract_x
_atom_site_fract_y
_atom_site_fract_z
_atom_type_partial_charge
C1    C     C_R   0.848568 0.652034 0.909040 -0.090133
C2    C     C_R   0.148931 0.652183 0.092741 -0.054620
C3    C     C_R   0.344150 0.149953 0.906462 -0.071396
C4    C     C_R   0.645860 0.152577 0.092737 -0.067530
H1    H     H_    0.811927 0.666536 0.826143 0.110715
H2    H     H_    0.182992 0.666494 0.175742 0.101439
H3    H     H_    0.306791 0.163809 0.822864 0.078938
H4    H     H_    0.677218 0.166748 0.175236 0.099271
N1    N     N_R   0.892620 0.603790 0.941770 -0.051289
N2    N     N_R   0.107380 0.603790 0.058230 -0.055804
N3    N     N_R   0.392620 0.103790 0.941770 -0.052650
N4    N     N_R   0.607380 0.103790 0.058230 -0.057478
C5    C     C_R   0.911502 0.368485 0.094058 -0.153155
C6    C     C_R   0.096687 0.379526 0.905577 -0.128703
C7    C     C_R   0.404120 0.877621 0.094113 -0.128470
C8    C     C_R   0.595512 0.871289 0.909363 -0.110496
H5    H     H_    0.943337 0.359151 0.177649 0.124355
H6    H     H_    0.071989 0.379855 0.821288 0.152326
H7    H     H_    0.429737 0.876557 0.178656 0.152655
H8    H     H_    0.566494 0.859598 0.827214 0.081381
N5    N     N_R   0.952270 0.397640 0.058010 -0.041210
N6    N     N_R   0.047730 0.397640 0.941990 -0.047462
N7    N     N_R   0.452270 0.897640 0.058010 -0.045400
N8    N     N_R   0.547730 0.897640 0.941990 -0.044513
C9    C     C_R   0.984803 0.548525 0.250992 -0.133359
C10   C     C_R   0.953207 0.547654 0.699450 -0.033974
C11   C     C_R   0.548428 0.047434 0.301792 -0.011894
C12   C     C_R   0.513549 0.047849 0.746593 -0.128807
H9    H     H_    0.970109 0.590953 0.253654 0.143851
H10   H     H_    0.934914 0.589775 0.673724 0.073933
H11   H     H_    0.568888 0.089269 0.328654 0.083463
H12   H     H_    0.529426 0.090177 0.745387 0.137288
N9    N     N_R   0.026310 0.529110 0.206760 -0.043818
N10   N     N_R   0.973690 0.529110 0.793240 -0.045575
N11   N     N_R   0.526310 0.029110 0.206760 -0.049768
N12   N     N_R   0.473690 0.029110 0.793240 -0.045713
C13   C     C_R   0.730775 0.454918 0.723564 -0.138467
C14   C     C_R   0.270417 0.455658 0.270125 -0.144869
C15   C     C_R   0.244579 0.953908 0.698827 -0.178726
C16   C     C_R   0.770718 0.956137 0.271197 -0.141291
H13   H     H_    0.710166 0.413944 0.690804 0.107727
H14   H     H_    0.293483 0.415104 0.303826 0.109085
H15   H     H_    0.231262 0.911576 0.672761 0.109515
H16   H     H_    0.795308 0.915636 0.303836 0.108748
N13   N     N_R   0.818570 0.472310 0.793020 -0.044519
N14   N     N_R   0.181430 0.472310 0.206980 -0.041204
N15   N     N_R   0.318570 0.972310 0.793020 -0.042290
N16   N     N_R   0.681430 0.972310 0.206980 -0.044084
C17   C     C_R   0.994414 0.457620 0.266337 -0.111314
C18   C     C_R   0.950938 0.456506 0.694647 -0.102919
C19   C     C_R   0.548907 0.956263 0.304353 -0.126401
C20   C     C_R   0.501493 0.956618 0.730633 -0.098404
H17   H     H_    0.998686 0.417720 0.298280 0.160167
H18   H     H_    0.932428 0.415102 0.663480 0.127557
H19   H     H_    0.567805 0.914730 0.333713 0.134781
H20   H     H_    0.495605 0.915864 0.699996 0.088738
N17   N     N_R   0.026930 0.472300 0.207330 -0.045175
N18   N     N_R   0.973070 0.472300 0.792670 -0.051480
N19   N     N_R   0.526930 0.972300 0.207330 -0.049510
N20   N     N_R   0.473070 0.972300 0.792670 -0.040206
C21   C     C_R   0.730095 0.546931 0.728693 -0.150408
C22   C     C_R   0.269897 0.547452 0.263467 -0.106425
C23   C     C_R   0.242376 0.045416 0.697140 -0.092070
C24   C     C_R   0.769395 0.047969 0.262926 -0.125185
H21   H     H_    0.709385 0.589169 0.706549 0.119165
H22   H     H_    0.290976 0.589843 0.283913 0.156206
H23   H     H_    0.225886 0.087408 0.670220 0.086610
H24   H     H_    0.789534 0.090599 0.277387 0.181208
N21   N     N_R   0.817960 0.529130 0.792460 -0.048949
N22   N     N_R   0.182040 0.529130 0.207540 -0.053040
N23   N     N_R   0.317960 0.029130 0.792460 -0.046100
N24   N     N_R   0.682040 0.029130 0.207540 -0.056946
C25   C     C_R   0.817191 0.368905 0.911587 -0.108218
C26   C     C_R   0.185824 0.372530 0.087535 -0.108678
C27   C     C_R   0.312221 0.874753 0.910969 -0.125729
C28   C     C_R   0.684439 0.871184 0.091002 -0.113830
H25   H     H_    0.760760 0.359583 0.828285 0.098963
H26   H     H_    0.240582 0.360204 0.169529 0.096928
H27   H     H_    0.253807 0.868279 0.826863 0.096019
H28   H     H_    0.736222 0.860427 0.174395 0.094937
N25   N     N_R   0.894850 0.397640 0.943830 -0.042137
N26   N     N_R   0.105150 0.397640 0.056170 -0.041647
N27   N     N_R   0.394850 0.897640 0.943830 -0.040921
N28   N     N_R   0.605150 0.897640 0.056170 -0.043357
C29   C     C_R   0.940470 0.651262 0.091314 -0.161292
C30   C     C_R   0.060636 0.652103 0.910439 -0.100173
C31   C     C_R   0.435007 0.150748 0.089564 -0.080011
C32   C     C_R   0.558561 0.152645 0.910831 -0.135560
H29   H     H_    0.989069 0.665343 0.174420 0.134368
H30   H     H_    0.017034 0.666019 0.826637 0.102457
H31   H     H_    0.478210 0.165205 0.173132 0.112790
H32   H     H_    0.513941 0.166998 0.827421 0.115578
N29   N     N_R   0.950040 0.603780 0.055950 -0.045680
N30   N     N_R   0.049960 0.603780 0.944050 -0.045245
N31   N     N_R   0.450040 0.103780 0.055950 -0.050429
N32   N     N_R   0.549960 0.103780 0.944050 -0.050965
C33   C     C_R   0.877052 0.682459 0.001732 0.098051
C34   C     C_R   0.121938 0.683393 0.002518 0.049123
C35   C     C_R   0.369084 0.180516 0.997058 0.100964
C36   C     C_R   0.618550 0.183744 0.002846 0.073010
C37   C     C_R   0.824274 0.352726 0.005059 0.057707
C38   C     C_R   0.183363 0.362646 0.994529 0.053911
C39   C     C_R   0.316379 0.861917 0.004353 0.047171
C40   C     C_R   0.684778 0.858207 0.001538 0.069174
C41   C     C_R   0.962640 0.504678 0.288203 0.058380
C42   C     C_R   0.939219 0.503255 0.635797 0.092407
C43   C     C_R   0.562171 0.002788 0.364691 0.091234
C44   C     C_R   0.533130 0.003160 0.707307 0.070595
C45   C     C_R   0.674616 0.500730 0.686759 0.089107
C46   C     C_R   0.326253 0.501749 0.301080 0.091913
C47   C     C_R   0.196837 0.998712 0.638417 0.098094
C48   C     C_R   0.825552 0.002519 0.301158 0.091361
Ni1   Ni    Ni4+2 0.934160 0.565860 0.869070 0.204784
Ni2   Ni    Ni4+2 0.065840 0.565860 0.130930 0.220322
Ni3   Ni    Ni4+2 0.434160 0.065860 0.869070 0.210322
Ni4   Ni    Ni4+2 0.565840 0.065860 0.130930 0.211548
Ni5   Ni    Ni4+2 0.067260 0.435560 0.132230 0.233317
Ni6   Ni    Ni4+2 0.932740 0.435560 0.867770 0.222990
Ni7   Ni    Ni4+2 0.567260 0.935560 0.132230 0.224521
Ni8   Ni    Ni4+2 0.432740 0.935560 0.867770 0.224487
C49   C     C_3   0.509560 0.454430 0.544275 -0.147725
C50   C     C_3   0.495461 0.458030 0.432511 -0.116730
C51   C     C_3   0.041784 0.946488 0.477989 -0.149600
C52   C     C_3   0.000827 0.978188 0.369699 -0.093373
C53   C     C_3   0.432380 0.498327 0.507621 -0.349657
C54   C     C_3   0.570667 0.503956 0.476792 -0.363129
C55   C     C_3   0.963851 0.970247 0.486833 -0.365391
C56   C     C_3   0.065508 0.028013 0.434526 -0.388248
H33   H     H_    0.373102 0.494024 0.515656 0.157879
H34   H     H_    0.629904 0.505339 0.468032 0.145753
H35   H     H_    0.920947 0.946225 0.506048 0.157080
H36   H     H_    0.110042 0.049632 0.414645 0.158996
H37   H     H_    0.518430 0.416388 0.589735 0.140117
H38   H     H_    0.488044 0.423009 0.380710 0.131746
H39   H     H_    0.066209 0.903344 0.493165 0.143373
H40   H     H_    0.986766 0.961087 0.292865 0.144436
C57   C     C_3   0.420551 0.502406 0.397713 0.018227
C58   C     C_3   0.582538 0.500798 0.586818 -0.024554
C59   C     C_3   0.925353 0.002736 0.381306 -0.000041
C60   C     C_3   0.103381 0.996751 0.540827 -0.020259
C61   C     C_3   0.494352 0.547703 0.441897 0.516345
C62   C     C_3   0.506708 0.543872 0.551090 0.491981
C63   C     C_3   0.988604 0.051616 0.445376 0.514207
C64   C     C_3   0.026215 0.019532 0.549651 0.533749
C65   C     C_R   0.773545 0.304675 0.109537 0.004858
C66   C     C_R   0.223962 0.306874 0.889906 0.064771
C67   C     C_R   0.272670 0.807540 0.108373 0.053843
C68   C     C_R   0.769344 0.822098 0.920076 0.064679
C69   C     C_R   0.752883 0.325410 0.010525 0.022753
C70   C     C_R   0.252411 0.332767 0.987967 0.057956
C71   C     C_R   0.246611 0.832040 0.010040 0.033767
C72   C     C_R   0.764961 0.832563 0.009199 0.049583
C73   C     C_R   0.663580 0.313847 0.913815 -0.139457
C74   C     C_R   0.340407 0.318703 0.083667 -0.157694
C75   C     C_R   0.158148 0.818351 0.914024 -0.169200
C76   C     C_R   0.836888 0.808464 0.109286 -0.159585
H41   H     H_    0.639966 0.333092 0.837021 0.128605
H42   H     H_    0.368308 0.340385 0.159674 0.123279
H43   H     H_    0.132436 0.838524 0.837416 0.123751
H44   H     H_    0.849904 0.819822 0.186516 0.136842
C77   C     C_R   0.108801 0.772587 0.912785 -0.157519
C78   C     C_R   0.882840 0.761894 0.108722 -0.154687
C79   C     C_R   0.609809 0.270930 0.912467 -0.137451
C80   C     C_R   0.385522 0.270783 0.085590 -0.168184
H45   H     H_    0.046250 0.759355 0.835547 0.128568
H46   H     H_    0.927910 0.740560 0.185246 0.183949
H47   H     H_    0.546860 0.258405 0.834926 0.142739
H48   H     H_    0.448211 0.257601 0.162549 0.131454
C81   C     C_R   0.148433 0.740404 0.007442 0.047940
C82   C     C_R   0.857505 0.739549 0.008368 0.053450
C83   C     C_R   0.646312 0.239833 0.007627 0.038387
C84   C     C_R   0.341917 0.237263 0.991958 0.082965
C85   C     C_R   0.225376 0.761567 0.105922 -0.041653
C86   C     C_R   0.806946 0.773274 0.917263 -0.001753
C87   C     C_R   0.723039 0.260508 0.106233 -0.030025
C88   C     C_R   0.266018 0.258510 0.892892 -0.021539
C89   C     C_3   0.314182 0.735426 0.200069 0.266067
C90   C     C_3   0.741099 0.766707 0.796837 0.244863
C91   C     C_3   0.807187 0.234359 0.205951 0.271221
C92   C     C_3   0.174578 0.232555 0.803771 0.262323
C93   C     C_3   0.862781 0.284412 0.213786 -0.008972
C94   C     C_3   0.128337 0.286261 0.798113 -0.012110
C95   C     C_3   0.366388 0.786538 0.204787 -0.018239
C96   C     C_3   0.708174 0.824842 0.797370 0.063552
H49   H     H_    0.311521 0.731170 0.272074 0.112725
H50   H     H_    0.777757 0.760231 0.756463 0.078893
H51   H     H_    0.797074 0.231723 0.272599 0.119277
H52   H     H_    0.173003 0.221733 0.730579 0.052451
H53   H     H_    0.922790 0.275710 0.208830 0.070675
H54   H     H_    0.077022 0.282643 0.819617 0.104236
H55   H     H_    0.420601 0.780073 0.188819 0.077482
H56   H     H_    0.631503 0.828927 0.755171 0.049551
C97   C     C_R   0.924857 0.556940 0.489235 -0.050742
C98   C     C_R   0.926587 0.558482 0.398803 0.046836
C99   C     C_R   0.590804 0.054871 0.614405 0.073753
C100  C     C_R   0.594178 0.054633 0.524798 -0.073098
C101  C     C_R   0.909827 0.507618 0.524239 0.044061
C102  C     C_R   0.919494 0.509415 0.346215 0.015911
C103  C     C_R   0.578226 0.005220 0.651138 0.020480
C104  C     C_R   0.594059 0.005112 0.477388 0.032327
C105  C     C_R   0.877989 0.461985 0.454287 -0.103869
C106  C     C_R   0.882597 0.463159 0.364248 -0.089206
C107  C     C_R   0.597832 0.956307 0.619102 -0.011956
C108  C     C_R   0.608572 0.956395 0.534333 -0.077526
H57   H     H_    0.859795 0.424021 0.474983 0.168529
H58   H     H_    0.867716 0.426583 0.316548 0.188311
H59   H     H_    0.592855 0.917294 0.648865 0.130913
H60   H     H_    0.613934 0.917340 0.504501 0.181213
C109  C     C_3   0.001290 0.602452 0.448062 0.052724
C110  C     C_3   0.000635 0.599918 0.548612 0.071542
C111  C     C_3   0.536044 0.106079 0.478963 0.061247
C112  C     C_3   0.535001 0.107321 0.579322 0.059020
H61   H     H_    0.069052 0.589861 0.461968 0.123536
H62   H     H_    0.975972 0.638026 0.565584 0.111107
H63   H     H_    0.574516 0.140766 0.473177 0.110194
H64   H     H_    0.463511 0.103639 0.561471 0.107091
O1    O     O_3   0.483181 0.597079 0.386450 -0.648572
C113  C     C_3   0.573032 0.620554 0.431481 0.187876
H65   H     H_    0.609944 0.597636 0.402281 0.100769
H66   H     H_    0.617252 0.619838 0.522445 0.084217
C114  C     C_3   0.562473 0.679976 0.394827 -0.232448
H67   H     H_    0.527074 0.680935 0.305364 0.218738
H68   H     H_    0.518585 0.702758 0.414278 0.226164
C115  C     C_3   0.658231 0.708125 0.450244 -0.990433
H69   H     H_    0.696222 0.707820 0.540576 0.249733
H70   H     H_    0.647874 0.751301 0.422421 0.304023
H71   H     H_    0.701911 0.686977 0.428391 0.274794
O2    O     O_3   0.514784 0.590428 0.612051 -0.685849
C116  C     C_3   0.509348 0.575701 0.699567 0.189027
H72   H     H_    0.562356 0.600589 0.771774 0.143598
H73   H     H_    0.527457 0.532006 0.724955 0.095917
C117  C     C_3   0.411195 0.589039 0.671068 -0.316312
H74   H     H_    0.395570 0.633127 0.651447 0.215173
H75   H     H_    0.356272 0.565743 0.597789 0.207072
C118  C     C_3   0.404366 0.575304 0.765528 -0.927327
H76   H     H_    0.417068 0.530943 0.784806 0.271605
H77   H     H_    0.332679 0.585520 0.742288 0.304971
H78   H     H_    0.456917 0.599410 0.839319 0.257636
O3    O     O_3   0.960201 0.107041 0.433542 -0.655721
C119  C     C_3   0.031973 0.141245 0.446963 0.168343
H79   H     H_    0.025055 0.143309 0.368413 0.131573
H80   H     H_    0.103683 0.126285 0.512518 0.074413
C120  C     C_3   0.024976 0.198677 0.481177 -0.209382
H81   H     H_    0.956425 0.217197 0.417771 0.236956
H82   H     H_    0.029432 0.196393 0.557793 0.185940
C121  C     C_3   0.105211 0.234487 0.499697 -0.874315
H83   H     H_    0.174688 0.215393 0.560395 0.221647
H84   H     H_    0.103925 0.275009 0.531971 0.338684
H85   H     H_    0.097722 0.240377 0.421505 0.259109
O4    O     O_3   0.039609 0.042116 0.644794 -0.679450
C122  C     C_3   0.062254 0.000669 0.722657 0.182503
H86   H     H_    0.121311 0.015809 0.804322 0.134962
H87   H     H_    0.087803 0.961879 0.708769 0.099393
C123  C     C_3   0.977561 0.988731 0.726525 -0.338063
H88   H     H_    0.969813 0.022115 0.770914 0.217879
H89   H     H_    0.911646 0.986722 0.642491 0.218072
C124  C     C_3   0.989881 0.934902 0.784887 -0.886167
H90   H     H_    0.991239 0.900105 0.737992 0.250657
H91   H     H_    0.929819 0.928899 0.791095 0.318832
H92   H     H_    0.056400 0.935436 0.868633 0.260543
O5    O     O_3   0.340795 0.684697 0.177305 -0.643558
C125  C     C_3   0.352973 0.685544 0.091400 0.193223
H93   H     H_    0.425204 0.699712 0.123078 0.091669
H94   H     H_    0.301719 0.712196 0.022075 0.106780
C126  C     C_3   0.341473 0.627226 0.048282 -0.237733
H95   H     H_    0.391580 0.599681 0.116960 0.214744
H96   H     H_    0.268618 0.612646 0.013044 0.226464
C127  C     C_3   0.360197 0.624256 0.960677 -0.933201
H97   H     H_    0.311311 0.651720 0.891338 0.291654
H98   H     H_    0.349107 0.581632 0.929568 0.294254
H99   H     H_    0.434078 0.636428 0.995465 0.248556
O6    O     O_3   0.671944 0.727107 0.771582 -0.659492
C128  C     C_3   0.599836 0.725839 0.658131 0.169911
H100  H     H_    0.603090 0.685550 0.626412 0.154247
H101  H     H_    0.605781 0.758157 0.609740 0.134170
C129  C     C_3   0.504570 0.731566 0.641214 -0.236423
H102  H     H_    0.500831 0.701862 0.694431 0.213990
H103  H     H_    0.497917 0.773260 0.665707 0.181930
C130  C     C_3   0.422501 0.721775 0.522397 -0.954996
H104  H     H_    0.423963 0.752645 0.469312 0.296987
H105  H     H_    0.354820 0.725680 0.513773 0.267423
H106  H     H_    0.426320 0.680143 0.495339 0.296070
O7    O     O_3   0.835865 0.182426 0.190161 -0.660487
C131  C     C_3   0.861761 0.181526 0.116146 0.195789
H107  H     H_    0.937816 0.191936 0.161069 0.101470
H108  H     H_    0.819592 0.210060 0.046323 0.115921
C132  C     C_3   0.847391 0.123570 0.070296 -0.255753
H109  H     H_    0.885861 0.093901 0.138893 0.204087
H110  H     H_    0.771113 0.113125 0.021030 0.223255
C133  C     C_3   0.883104 0.118394 0.998424 -0.926446
H111  H     H_    0.847329 0.148534 0.930654 0.296189
H112  H     H_    0.868225 0.076560 0.962911 0.282192
H113  H     H_    0.960431 0.125575 0.047708 0.254933
O8    O     O_3   0.148353 0.189864 0.844849 -0.637325
C134  C     C_3   0.057741 0.170108 0.761244 0.182063
H114  H     H_    0.064815 0.138805 0.712727 0.166747
H115  H     H_    0.009784 0.202953 0.704611 0.119370
C135  C     C_3   0.012165 0.144543 0.813104 -0.246812
H116  H     H_    0.050899 0.106678 0.857257 0.204234
H117  H     H_    0.017078 0.173626 0.873407 0.213282
C136  C     C_3   0.908259 0.131250 0.727040 -0.972654
H118  H     H_    0.867521 0.169560 0.689669 0.278720
H119  H     H_    0.878772 0.109470 0.766023 0.281444
H120  H     H_    0.900187 0.104896 0.661601 0.283384
N33   N     N_R   0.889307 0.318716 0.307837 0.234012
O9    O     O_R   0.828451 0.330267 0.329475 -0.423812
O10   O     O_R   0.976372 0.334248 0.375787 -0.410723
N34   N     N_R   0.089580 0.314999 0.694697 0.223161
O11   O     O_R   0.134775 0.355477 0.688003 -0.365575
O12   O     O_R   0.004074 0.304038 0.611497 -0.395896
N35   N     N_R   0.402053 0.818627 0.304245 0.232639
O13   O     O_R   0.344733 0.839911 0.324285 -0.393733
O14   O     O_R   0.492514 0.824574 0.375505 -0.451780
N36   N     N_R   0.746527 0.864342 0.759181 0.221309
O15   O     O_R   0.785447 0.909569 0.813074 -0.419752
O16   O     O_R   0.738878 0.855457 0.668684 -0.446590
N37   N     N_R   0.966033 0.654887 0.391103 0.233106
O17   O     O_R   0.021462 0.686228 0.381685 -0.440892
O18   O     O_R   0.881380 0.671767 0.353812 -0.413104
N38   N     N_R   0.089787 0.579081 0.644352 0.244256
O19   O     O_R   0.133610 0.606676 0.735401 -0.424404
O20   O     O_R   0.126630 0.533713 0.639460 -0.375717
N39   N     N_R   0.441191 0.097376 0.378939 0.247336
O21   O     O_R   0.405545 0.133201 0.300570 -0.399022
O22   O     O_R   0.389985 0.055813 0.369514 -0.379294
N40   N     N_R   0.588611 0.153756 0.650889 0.234264
O23   O     O_R   0.553632 0.202824 0.621835 -0.406421
O24   O     O_R   0.667167 0.146364 0.746784 -0.425967

loop_
_geom_bond_atom_site_label_1
_geom_bond_atom_site_label_2
_geom_bond_distance
_ccdc_geom_bond_type
N13   Ni6   1.852089 S    
C31   H31   1.080732 S    
C133  H113  1.110817 S    
C29   N29   1.323843 A    
C9    C41   1.362606 A    
C136  H118  1.110844 S    
N9    Ni2   1.863725 S    
N6    N26   1.396228 A    
C131  H107  1.111390 S    
C74   H42   1.082549 S    
C43   C104  1.442010 S    
C6    C38   1.377141 A    
N2    N30   1.396229 A    
C63   C64   1.518807 S    
C128  C129  1.528951 S    
C22   N22   1.323971 A    
C16   N16   1.328340 A    
C69   C73   1.409647 A    
C123  H89   1.110236 S    
C66   C70   1.399925 A    
C34   C81   1.455087 S    
C8    C40   1.393203 A    
C81   C85   1.396122 A    
C72   C76   1.412285 A    
O6    C128  1.413739 S    
C66   C88   1.375964 A    
C132  H110  1.111319 S    
N40   O23   1.300552 A    
C71   C75   1.409503 A    
C4    N4    1.316394 A    
N3    Ni3   1.862380 S    
C13   C45   1.374185 A    
C15   C47   1.356824 A    
C27   C39   1.394824 A    
C28   N28   1.325667 A    
C25   N25   1.338685 A    
O2    C116  1.414946 S    
C92   C94   1.514763 S    
C23   H23   1.079305 S    
C9    H9    1.073428 S    
N8    Ni8   1.876515 S    
N13   N21   1.387968 A    
N39   O21   1.300595 A    
C63   O3    1.416816 S    
C80   H48   1.081437 S    
C30   H30   1.080884 S    
C52   H40   1.110047 S    
C11   N11   1.319149 A    
N36   O15   1.302082 A    
C68   C86   1.371807 A    
N14   Ni5   1.850389 S    
C116  H72   1.111008 S    
C8    H8    1.063973 S    
C117  H75   1.107621 S    
C57   C61   1.524216 S    
C5    N5    1.320587 A    
C109  N37   1.464230 S    
C42   C101  1.442149 S    
C23   N23   1.325551 A    
C135  H116  1.110722 S    
C13   N13   1.324424 A    
C15   N15   1.321905 A    
C82   C86   1.389976 A    
C136  H120  1.110710 S    
N6    Ni6   1.876515 S    
C131  C132  1.528484 S    
C50   C57   1.535497 S    
C15   H15   1.081354 S    
C54   C61   1.540575 S    
C21   N21   1.322100 A    
C40   C72   1.469889 S    
C107  H59   1.077375 S    
C12   C44   1.371870 A    
N28   Ni7   1.857697 S    
C17   H17   1.070169 S    
C19   H19   1.079491 S    
N29   Ni2   1.886440 S    
C130  H105  1.110163 S    
C23   C47   1.376025 A    
C55   H35   1.109684 S    
N14   N22   1.387939 A    
C29   C33   1.375110 A    
C99   C100  1.377024 A    
C90   H50   1.113911 S    
C53   H33   1.108646 S    
C19   C43   1.384506 A    
C97   C98   1.372876 A    
N10   N18   1.387698 A    
C25   H25   1.075015 S    
C94   H54   1.112669 S    
C7    C39   1.381519 A    
C27   H27   1.079017 S    
C77   H45   1.081667 S    
C52   C59   1.539819 S    
C51   C52   1.552045 S    
C134  H115  1.115026 S    
N21   Ni1   1.875281 S    
C73   C79   1.396591 A    
C24   H24   1.079524 S    
C74   C80   1.399510 A    
C116  C117  1.534470 S    
N7    Ni7   1.874803 S    
O5    C125  1.419802 S    
C65   C93   1.514132 S    
C17   N17   1.344321 A    
C124  H90   1.110492 S    
C50   H38   1.110139 S    
C89   O5    1.430200 S    
C20   N20   1.335165 A    
C59   C63   1.526957 S    
N33   O10   1.299020 A    
C31   N31   1.336905 A    
C102  C106  1.400761 A    
N5    Ni5   1.874803 S    
C85   C89   1.505356 S    
C104  C108  1.401036 A    
C61   O1    1.414219 S    
N16   N24   1.387939 A    
C12   H12   1.073018 S    
N30   Ni1   1.884720 S    
N34   O12   1.300487 A    
C99   C103  1.401168 A    
C22   H22   1.081385 S    
C75   H43   1.081378 S    
C108  H60   1.079237 S    
C76   H44   1.078458 S    
C3    N3    1.321953 A    
C122  C123  1.533454 S    
C35   C84   1.451990 S    
C123  C124  1.525625 S    
O1    C113  1.415045 S    
C33   C82   1.451905 S    
C51   H39   1.109795 S    
C45   C58   1.425876 S    
N39   O22   1.302556 A    
N38   O20   1.302500 A    
C67   C71   1.402172 A    
C49   C53   1.549099 S    
C114  H67   1.105795 S    
C21   H21   1.080409 S    
C51   C55   1.547052 S    
N31   Ni4   1.886440 S    
C130  H104  1.107905 S    
C120  C121  1.528888 S    
C109  C110  1.514259 S    
C126  H96   1.111186 S    
N15   Ni8   1.852089 S    
C10   H10   1.080766 S    
N35   O14   1.300505 A    
C118  H78   1.110741 S    
C80   C84   1.407019 A    
C113  C114  1.526012 S    
C121  H83   1.111049 S    
C92   O8    1.414383 S    
C68   C72   1.403431 A    
C129  H103  1.110233 S    
C62   O2    1.412319 S    
C125  H93   1.109462 S    
C39   C71   1.458979 S    
C52   C56   1.556271 S    
C124  H92   1.111017 S    
N1    Ni1   1.862380 S    
C6    N6    1.323335 A    
C44   C103  1.444233 S    
C131  H108  1.110843 S    
C56   C60   1.531716 S    
C99   C112  1.506898 S    
C97   C110  1.506695 S    
C98   C102  1.398697 A    
C25   C37   1.391101 A    
C119  H79   1.112867 S    
C128  H101  1.117259 S    
C13   H13   1.079783 S    
C14   N14   1.327227 A    
C3    C35   1.379742 A    
C16   H16   1.077354 S    
C129  H102  1.108355 S    
O7    C131  1.417138 S    
C105  H57   1.081901 S    
N40   O24   1.301717 A    
C84   C88   1.397229 A    
C9    N9    1.316898 A    
N4    Ni4   1.864833 S    
C121  H85   1.110992 S    
C28   C40   1.379859 A    
C32   N32   1.335332 A    
O3    C119  1.415295 S    
C107  C108  1.386025 A    
C115  H69   1.111318 S    
C10   C42   1.368448 A    
C125  C126  1.527627 S    
C122  H86   1.110940 S    
C75   C77   1.402423 A    
N10   Ni1   1.861260 S    
C7    H7    1.073165 S    
C91   O7    1.431044 S    
C18   H18   1.081232 S    
N7    N27   1.396229 A    
C1    H1    1.077620 S    
C96   N36   1.464595 S    
C114  C115  1.526975 S    
C3    H3    1.080141 S    
O8    C134  1.413947 S    
C91   H51   1.111174 S    
C54   H34   1.110482 S    
N36   O16   1.301273 A    
C120  H81   1.104316 S    
C89   H49   1.111093 S    
N11   N19   1.387727 A    
C133  H111  1.110314 S    
N37   O18   1.302265 A    
C92   H52   1.112176 S    
C110  N38   1.466549 S    
C78   H46   1.078880 S    
C93   H53   1.107463 S    
C118  H76   1.110768 S    
C96   H56   1.100359 S    
C14   C46   1.379170 A    
C79   C83   1.403959 A    
C86   C90   1.484407 S    
N2    Ni2   1.864833 S    
C100  C104  1.400856 A    
C26   C38   1.389635 A    
C103  C107  1.400016 A    
C135  H117  1.111894 S    
C26   N26   1.341907 A    
C90   O6    1.412757 S    
C47   C60   1.425741 S    
N16   Ni7   1.850389 S    
C136  H119  1.110603 S    
C66   C94   1.504072 S    
C18   N18   1.341036 A    
C28   H28   1.068525 S    
C1    N1    1.335327 A    
C16   C48   1.377283 A    
C58   C62   1.521696 S    
C134  H114  1.108530 S    
C29   H29   1.079376 S    
C17   C41   1.392910 A    
C53   C57   1.540382 S    
O4    C122  1.419446 S    
C89   C95   1.520636 S    
C11   H11   1.079704 S    
N25   Ni6   1.860240 S    
C119  C120  1.521320 S    
C115  H70   1.110605 S    
C135  C136  1.528221 S    
N27   Ni8   1.860240 S    
C123  H88   1.107402 S    
C111  C112  1.514179 S    
C78   C82   1.408534 A    
C129  C130  1.524611 S    
C11   C43   1.370541 A    
C132  C133  1.526770 S    
N11   Ni4   1.863725 S    
C49   C50   1.548458 S    
C32   C36   1.378259 A    
C38   C70   1.454749 S    
C41   C102  1.443018 S    
C87   C91   1.502253 S    
C115  H71   1.111620 S    
N17   Ni5   1.862210 S    
C64   O4    1.415463 S    
N19   Ni7   1.862212 S    
C46   C57   1.428033 S    
C60   C64   1.525710 S    
C67   C85   1.379428 A    
C5    H5    1.061570 S    
N24   Ni4   1.877002 S    
C113  H66   1.112654 S    
C116  H73   1.116266 S    
C27   N27   1.340901 A    
C117  H74   1.108510 S    
N20   Ni8   1.864653 S    
C55   C64   1.525345 S    
C73   H41   1.081480 S    
C30   C34   1.385598 A    
C56   C63   1.547042 S    
C109  H61   1.113652 S    
C24   C48   1.366995 A    
C127  H97   1.110677 S    
C12   N12   1.318216 A    
N33   O9    1.302869 A    
C26   H26   1.075024 S    
C18   C42   1.385386 A    
C95   N35   1.465286 S    
N4    N32   1.396229 A    
N26   Ni5   1.857697 S    
C65   C69   1.404731 A    
C111  H63   1.113329 S    
N35   O13   1.302371 A    
C105  C106  1.396917 A    
C6    H6    1.073619 S    
C4    H4    1.079106 S    
C21   C45   1.376654 A    
N22   Ni2   1.877002 S    
C14   H14   1.079279 S    
C122  H87   1.115185 S    
N18   Ni6   1.864653 S    
C130  H106  1.110042 S    
C30   N30   1.338515 A    
C100  C111  1.507365 S    
C10   N10   1.315607 A    
C112  H64   1.112660 S    
C120  H82   1.106354 S    
C93   N33   1.464505 S    
N32   Ni3   1.884720 S    
C101  C105  1.404420 A    
C126  H95   1.112086 S    
C111  N39   1.466871 S    
C7    N7    1.324802 A    
C76   C78   1.392290 A    
C8    N8    1.345041 A    
C36   C83   1.440418 S    
C118  H77   1.110587 S    
C48   C59   1.429034 S    
C2    H2    1.080110 S    
C55   C59   1.536074 S    
C56   H36   1.110421 S    
C134  C135  1.527445 S    
C31   C35   1.389523 A    
C121  H84   1.106561 S    
C32   H32   1.080604 S    
C1    C33   1.388297 A    
C125  H94   1.108719 S    
C67   C95   1.511793 S    
C112  N40   1.464656 S    
C110  H62   1.113236 S    
C83   C87   1.391441 A    
C51   C60   1.539701 S    
C117  C118  1.524751 S    
C124  H91   1.109437 S    
C49   C58   1.536358 S    
C50   C54   1.549725 S    
C79   H47   1.081587 S    
C22   C46   1.373618 A    
C127  H99   1.110794 S    
C88   C92   1.501446 S    
C53   C62   1.534661 S    
C68   C96   1.502109 S    
N15   N23   1.387968 A    
C119  H80   1.112434 S    
C128  H100  1.107495 S    
N23   Ni3   1.875281 S    
C2    C34   1.378304 A    
N5    N25   1.396229 A    
C4    C36   1.372571 A    
C132  H109  1.112294 S    
C70   C74   1.407027 A    
C19   N19   1.331505 A    
C65   C87   1.373404 A    
C5    C37   1.373256 A    
C2    N2    1.323781 A    
N1    N29   1.396231 A    
N34   O11   1.302213 A    
N3    N31   1.396231 A    
C54   C58   1.540442 S    
N9    N17   1.387730 A    
C127  H98   1.110275 S    
N12   N20   1.387698 A    
C95   H55   1.108583 S    
N38   O19   1.300407 A    
N8    N28   1.396228 A    
C77   C81   1.406810 A    
C114  H68   1.109721 S    
C61   C62   1.524966 S    
C98   C109  1.507684 S    
C113  H65   1.112928 S    
C97   C101  1.398431 A    
C37   C69   1.451823 S    
C94   N34   1.464693 S    
C133  H112  1.110460 S    
C24   N24   1.321712 A    
N37   O17   1.300310 A    
C126  C127  1.525123 S    
C20   C44   1.393006 A    
C106  H58   1.076903 S    
C49   H37   1.110099 S    
N12   Ni3   1.861260 S    
C90   C96   1.532461 S    
C20   H20   1.075188 S    
C91   C93   1.519970 S    
