data_mof_unit_24293.cif
_audit_creation_date              2012-12-10T20:36:36-0500
_audit_creation_method            fapswitch 2.2
_symmetry_space_group_name_H-M    P1
_symmetry_Int_Tables_number       1
_space_group_crystal_system       triclinic
_cell_length_a                    10.480608
_cell_length_b                    10.682341
_cell_length_c                    9.89629
_cell_angle_alpha                 90.631642
_cell_angle_beta                  90.245566
_cell_angle_gamma                 90.57125
_cell_volume                      1107.83008316

loop_
_atom_site_label
_atom_site_type_symbol
_atom_type_description
_atom_site_fract_x
_atom_site_fract_y
_atom_site_fract_z
_atom_type_partial_charge
C1    C     C_R   0.498027 0.260466 0.499144 0.895712
C2    C     C_R   0.590102 0.940876 0.586489 0.015593
C3    C     C_3   0.608651 0.937879 0.737155 0.214931
C4    C     C_R   0.257437 0.500228 0.499483 0.880053
C5    C     C_3   0.586357 0.079045 0.738295 0.309858
C6    C     C_R   0.390602 0.474572 0.070334 0.137829
C7    C     C_R   0.605161 0.537041 0.071192 0.424227
C8    C     C_R   0.606714 0.528999 0.928437 -0.198415
C9    C     C_R   0.390048 0.476428 0.928028 0.205249
C10   C     C_3   0.311306 0.359438 0.920068 -0.493479
C11   C     C_3   0.313264 0.356940 0.073542 -0.500289
C12   C     C_3   0.958997 0.602214 0.442726 0.531748
C13   C     C_R   0.504489 0.739837 0.500318 0.891030
C14   C     C_R   0.742485 0.499380 0.500538 0.923873
C15   C     C_3   0.042479 0.394677 0.558686 -0.134082
C16   C     C_3   0.956506 0.397984 0.431310 -0.206461
C17   C     C_3   0.877421 0.498571 0.502031 -0.025685
C18   C     C_3   0.960680 0.495311 0.629540 -0.187800
C19   C     C_3   0.043520 0.601380 0.569534 -0.287811
C20   C     C_3   0.749390 0.791883 0.821143 0.125106
C21   C     C_3   0.886090 0.773406 0.868349 -0.807032
C22   C     C_3   0.684071 0.179762 0.918534 0.164240
C23   C     C_3   0.039278 0.503386 0.369746 -0.237608
C24   C     C_3   0.804763 0.247965 0.965220 -0.788676
C25   C     C_3   0.996247 0.786180 0.329696 0.115895
C26   C     C_3   0.934083 0.904959 0.278932 -0.805425
C27   C     C_3   0.122432 0.500408 0.498104 -0.053547
C28   C     C_R   0.580318 0.068297 0.588489 0.062770
C29   C     C_R   0.504857 0.129011 0.495153 -0.146729
C30   C     C_R   0.447783 0.062162 0.388566 -0.223991
C31   C     C_R   0.450326 0.933048 0.390154 -0.207334
C32   C     C_R   0.512686 0.872161 0.496565 -0.127664
H1    H     H_    0.915933 0.315391 0.376527 0.154363
H2    H     H_    0.085514 0.683788 0.623211 0.137312
H3    H     H_    0.075112 0.507727 0.264516 0.144890
H4    H     H_    0.394659 0.108857 0.309942 0.153057
H5    H     H_    0.397465 0.881321 0.313063 0.155362
H6    H     H_    0.533498 0.884785 0.792740 0.018460
H7    H     H_    0.727360 0.722299 0.739884 0.172980
H8    H     H_    0.685792 0.777976 0.909667 0.138981
H9    H     H_    0.909377 0.840448 0.951608 0.253985
H10   H     H_    0.898312 0.676569 0.905550 0.216355
H11   H     H_    0.952775 0.789751 0.783484 0.252772
H12   H     H_    0.492988 0.107981 0.781823 -0.016484
H13   H     H_    0.673335 0.092908 0.979015 0.136124
H14   H     H_    0.601370 0.241986 0.937755 0.125320
H15   H     H_    0.818729 0.334656 0.905965 0.248632
H16   H     H_    0.796803 0.273568 0.073930 0.213033
H17   H     H_    0.888746 0.186659 0.951105 0.252834
H18   H     H_    0.678247 0.642649 0.207080 0.380620
H19   H     H_    0.042745 0.738552 0.242553 0.139210
H20   H     H_    0.069863 0.813352 0.406383 0.125522
H21   H     H_    0.889137 0.956132 0.364401 0.265835
H22   H     H_    0.007141 0.966530 0.232108 0.194458
H23   H     H_    0.694019 0.548324 0.875158 0.158021
H24   H     H_    0.859682 0.881086 0.202360 0.260468
H25   H     H_    0.214850 0.376638 0.877328 0.204401
H26   H     H_    0.362913 0.280212 0.872405 0.200794
H27   H     H_    0.217782 0.371657 0.119040 0.203073
H28   H     H_    0.367379 0.276948 0.115119 0.200759
H29   H     H_    0.082271 0.309742 0.606159 0.141710
H30   H     H_    0.924286 0.491037 0.734570 0.153665
N1    N     N_R   0.499140 0.499140 0.142800 -0.160506
N2    N     N_R   0.499140 0.499180 0.857150 -0.138001
O1    O     O_R   0.500020 0.316790 0.614690 -0.605646
O2    O     O_3   0.693732 0.151345 0.779373 -0.538435
O3    O     O_3   0.710686 0.587131 0.134577 -0.755707
O4    O     O_3   0.901532 0.708326 0.385850 -0.608490
O5    O     O_R   0.500000 0.316760 0.385350 -0.622976
O6    O     O_R   0.313960 0.499990 0.614650 -0.615417
O7    O     O_R   0.313940 0.499950 0.385310 -0.630473
O8    O     O_R   0.500000 0.683240 0.614650 -0.643776
O9    O     O_R   0.499980 0.683210 0.385310 -0.636343
O10   O     O_R   0.686060 0.500050 0.614690 -0.644959
O11   O     O_R   0.686040 0.500010 0.385350 -0.585917
O12   O     O_3   0.737444 0.913354 0.770526 -0.549451
Zn1   Zn    Zn3+2 0.500010 0.500020 0.653130 0.935587
Zn2   Zn    Zn3+2 0.499990 0.499980 0.346870 0.947912

loop_
_geom_bond_atom_site_label_1
_geom_bond_atom_site_label_2
_ccdc_geom_bond_type
C15   C18   S    
C9    N2    A    
N2    Zn1   S    
C13   C32   S    
C6    C9    A    
C4    O6    A    
C7    C8    A    
C12   O4    S    
C12   C23   S    
C29   C30   A    
C14   O10   A    
C28   C29   A    
C10   H26   S    
C30   C31   A    
C20   H8    S    
C15   C16   S    
C20   O12   S    
C2    C32   A    
C18   C19   S    
C22   O2    S    
C21   H11   S    
C3    H6    S    
C16   C17   S    
O10   Zn1   S    
C12   C17   S    
C1    O1    A    
O9    Zn2   S    
C23   C27   S    
C19   C27   S    
H18   O3    S    
O6    Zn1   S    
C14   C17   S    
O5    Zn2   S    
C25   O4    S    
C11   H27   S    
C26   H22   S    
C8    H23   S    
O1    Zn1   S    
C24   H16   S    
C10   H25   S    
C6    C11   S    
C20   H7    S    
C18   H30   S    
C25   C26   S    
C1    O5    A    
C31   H5    S    
C6    N1    A    
C25   H19   S    
O8    Zn1   S    
C16   H1    S    
C5    C28   S    
C15   C27   S    
C31   C32   A    
C1    C29   S    
C17   C18   S    
C15   H29   S    
C3    O12   S    
C7    N1    A    
C8    N2    A    
C21   H9    S    
C22   H14   S    
C5    H12   S    
C13   O9    A    
C16   C23   S    
C23   H3    S    
C22   C24   S    
C11   H28   S    
C26   H21   S    
C4    C27   S    
C9    C10   S    
C24   H17   S    
C24   H15   S    
C5    O2    S    
C3    C5    S    
C19   H2    S    
C26   H24   S    
C13   O8    A    
C30   H4    S    
C14   O11   A    
C2    C3    S    
C25   H20   S    
C12   C19   S    
O7    Zn2   S    
O11   Zn2   S    
C10   C11   S    
C7    O3    S    
C21   H10   S    
C22   H13   S    
C20   C21   S    
C2    C28   A    
C4    O7    A    
N1    Zn2   S    
