data_mof_unit_10374.cif
_audit_creation_date              2012-12-10T20:20:49-0500
_audit_creation_method            fapswitch 2.2
_symmetry_space_group_name_H-M    P1
_symmetry_Int_Tables_number       1
_space_group_crystal_system       triclinic
_cell_length_a                    19.090785
_cell_length_b                    18.479247
_cell_length_c                    10.6421
_cell_angle_alpha                 90.819353
_cell_angle_beta                  91.128777
_cell_angle_gamma                 90.404901
_cell_volume                      3753.14173166

loop_
_atom_site_label
_atom_site_type_symbol
_atom_type_description
_atom_site_fract_x
_atom_site_fract_y
_atom_site_fract_z
_atom_type_partial_charge
C1    C     C_R   0.365398 0.499722 0.497247 0.836549
C2    C     C_R   0.035450 0.521334 0.315684 0.054839
C3    C     C_R   0.071466 0.486149 0.414586 -0.039346
C4    C     C_R   0.925906 0.486294 0.411930 -0.039104
C5    C     C_R   0.035804 0.445803 0.506293 0.057187
C6    C     C_R   0.961902 0.443950 0.502389 0.057743
C7    C     C_R   0.544901 0.727799 0.577963 0.059676
C8    C     C_R   0.454724 0.725136 0.421338 0.053708
C9    C     C_R   0.545149 0.804507 0.579875 -0.114953
C10   C     C_R   0.453276 0.801850 0.419751 -0.114433
C11   C     C_R   0.498854 0.842430 0.500037 -0.021152
C12   C     C_R   0.634428 0.500104 0.496057 0.870560
C13   C     C_R   0.520394 0.962176 0.394205 -0.154132
C14   C     C_R   0.477147 0.963514 0.606305 -0.159839
C15   C     C_R   0.497745 0.499437 0.260294 0.894135
C16   C     C_R   0.499096 0.500498 0.739749 0.909420
C17   C     C_R   0.521001 0.038245 0.394780 -0.209674
C18   C     C_R   0.477530 0.039597 0.606690 -0.187170
C19   C     C_R   0.499646 0.077674 0.501062 0.103711
C20   C     C_R   0.498564 0.923898 0.500033 0.143699
C21   C     C_R   0.558966 0.198503 0.547726 0.000883
C22   C     C_R   0.440765 0.197282 0.455022 0.025492
C23   C     C_R   0.823318 0.553695 0.486251 -0.206545
C24   C     C_R   0.556833 0.275111 0.546286 -0.012906
C25   C     C_R   0.442946 0.273459 0.455150 -0.056133
C26   C     C_R   0.499749 0.158783 0.501035 0.018010
C27   C     C_R   0.545161 0.535596 0.068123 0.045466
C28   C     C_R   0.546232 0.535862 0.940295 0.036085
C29   C     C_R   0.492544 0.499057 0.128489 -0.148847
C30   C     C_R   0.492724 0.502014 0.871043 -0.138423
C31   C     C_R   0.434221 0.468689 0.062053 0.055418
C32   C     C_R   0.432837 0.473267 0.929545 0.057993
C33   C     C_3   0.624500 0.526028 0.938583 -0.246634
C34   C     C_R   0.189714 0.439417 0.377516 -0.186036
C35   C     C_3   0.622535 0.524859 0.081555 -0.258590
C36   C     C_R   0.735475 0.441044 0.401067 -0.202673
C37   C     C_R   0.248360 0.554990 0.517784 -0.183378
C38   C     C_R   0.806116 0.438922 0.375090 -0.203848
C39   C     C_R   0.176402 0.551604 0.496130 -0.210634
C40   C     C_R   0.850315 0.493916 0.421515 0.170949
C41   C     C_R   0.147325 0.493758 0.425853 0.159739
C42   C     C_3   0.377600 0.426618 0.129500 -0.392428
C43   C     C_3   0.390994 0.344601 0.118889 -0.320100
C44   C     C_3   0.323979 0.300119 0.132870 -0.941144
C45   C     C_R   0.752166 0.556668 0.509989 -0.184416
C46   C     C_3   0.367964 0.449512 0.853007 -0.425783
C47   C     C_3   0.312784 0.509508 0.851889 -0.344833
C48   C     C_3   0.241183 0.479815 0.809998 -0.919320
C49   C     C_1   0.593349 0.689560 0.657709 0.251586
C50   C     C_1   0.407975 0.683990 0.338892 0.256528
C51   C     C_1   0.594090 0.844111 0.661500 0.162252
C52   C     C_1   0.404058 0.838712 0.337756 0.156599
C53   C     C_3   0.622723 0.157903 0.597653 -0.408728
C54   C     C_3   0.684806 0.205322 0.644073 -0.374279
C55   C     C_3   0.745779 0.159080 0.690112 -0.860771
C56   C     C_R   0.260661 0.440383 0.406025 -0.216717
C57   C     C_3   0.374935 0.159642 0.405396 -0.430886
C58   C     C_3   0.314577 0.169184 0.497044 -0.339053
C59   C     C_3   0.247761 0.132507 0.446369 -0.875721
C60   C     C_1   0.646066 0.456445 0.882609 0.186560
C61   C     C_1   0.657013 0.587668 0.143329 0.221237
C62   C     C_3   0.920499 0.569305 0.221917 -0.405989
C63   C     C_3   0.890761 0.523150 0.112040 -0.348402
C64   C     C_3   0.853112 0.570535 0.015926 -0.875104
C65   C     C_3   0.076195 0.552801 0.206725 -0.410675
C66   C     C_3   0.098410 0.631942 0.230991 -0.339666
C67   C     C_R   0.708568 0.499206 0.470700 -0.015735
C68   C     C_3   0.129305 0.664878 0.113454 -0.872172
C69   C     C_3   0.076881 0.407836 0.611243 -0.407796
C70   C     C_3   0.096427 0.329780 0.574991 -0.335643
C71   C     C_3   0.136276 0.293300 0.682167 -0.895242
C72   C     C_3   0.921250 0.396343 0.593103 -0.407371
C73   C     C_3   0.899404 0.437019 0.712795 -0.338862
C74   C     C_3   0.865815 0.385000 0.804727 -0.886151
C75   C     C_R   0.290322 0.498235 0.475417 -0.013164
C76   C     C_R   0.961581 0.524131 0.317296 0.052345
H1    H     H_    0.537363 0.933041 0.311336 0.141788
H2    H     H_    0.270809 0.600113 0.571136 0.149242
H3    H     H_    0.826998 0.393042 0.323944 0.124794
H4    H     H_    0.143233 0.593353 0.534797 0.132123
H5    H     H_    0.857760 0.596509 0.521543 0.133229
H6    H     H_    0.167404 0.395170 0.321761 0.123492
H7    H     H_    0.731692 0.602437 0.561703 0.162771
H8    H     H_    0.292543 0.396321 0.373023 0.147611
H9    H     H_    0.303846 0.305520 0.229399 0.255810
H10   H     H_    0.283130 0.317628 0.064251 0.265244
H11   H     H_    0.335205 0.242157 0.114089 0.250407
H12   H     H_    0.459949 0.935401 0.688919 0.138406
H13   H     H_    0.413601 0.330358 0.026395 0.222341
H14   H     H_    0.429903 0.328584 0.192088 0.232088
H15   H     H_    0.375364 0.442495 0.229956 0.189558
H16   H     H_    0.325086 0.440539 0.090984 0.211123
H17   H     H_    0.245104 0.450693 0.718540 0.274369
H18   H     H_    0.221025 0.441821 0.880961 0.258782
H19   H     H_    0.203589 0.525014 0.799626 0.254359
H20   H     H_    0.307904 0.534682 0.946754 0.229484
H21   H     H_    0.329229 0.552504 0.786436 0.220350
H22   H     H_    0.380057 0.435558 0.754481 0.213335
H23   H     H_    0.538092 0.066489 0.312228 0.140430
H24   H     H_    0.345667 0.398791 0.890083 0.220096
H25   H     H_    0.729322 0.124926 0.769518 0.265191
H26   H     H_    0.764595 0.123760 0.612660 0.261344
H27   H     H_    0.789654 0.194780 0.723046 0.247865
H28   H     H_    0.703444 0.239532 0.566192 0.220785
H29   H     H_    0.668222 0.240750 0.723233 0.234706
H30   H     H_    0.605848 0.123626 0.676727 0.216379
H31   H     H_    0.641404 0.121482 0.521477 0.215851
H32   H     H_    0.231130 0.156989 0.355925 0.259986
H33   H     H_    0.256434 0.073637 0.431670 0.268752
H34   H     H_    0.460605 0.068883 0.689433 0.134484
H35   H     H_    0.205189 0.139725 0.514887 0.245041
H36   H     H_    0.329270 0.145084 0.588929 0.227033
H37   H     H_    0.303876 0.227669 0.512564 0.218399
H38   H     H_    0.360220 0.182800 0.312990 0.201863
H39   H     H_    0.383311 0.100992 0.388531 0.226147
H40   H     H_    0.810832 0.601719 0.061444 0.277599
H41   H     H_    0.890757 0.608761 0.973521 0.256464
H42   H     H_    0.829131 0.536430 0.939836 0.250299
H43   H     H_    0.933678 0.493691 0.064869 0.214167
H44   H     H_    0.853017 0.482579 0.146790 0.231531
H45   H     H_    0.600240 0.307464 0.581977 0.146443
H46   H     H_    0.877253 0.598432 0.268349 0.211428
H47   H     H_    0.953043 0.613366 0.184065 0.206952
H48   H     H_    0.175615 0.633501 0.083154 0.266941
H49   H     H_    0.089506 0.665089 0.035887 0.254493
H50   H     H_    0.146093 0.721535 0.134072 0.254933
H51   H     H_    0.053160 0.664951 0.260823 0.212292
H52   H     H_    0.138651 0.635140 0.307232 0.236366
H53   H     H_    0.123512 0.519996 0.188234 0.202183
H54   H     H_    0.045019 0.547992 0.117890 0.201864
H55   H     H_    0.185903 0.322987 0.704223 0.264401
H56   H     H_    0.398541 0.303407 0.419356 0.139673
H57   H     H_    0.103764 0.291785 0.767527 0.259847
H58   H     H_    0.149165 0.236939 0.654120 0.249525
H59   H     H_    0.048932 0.297194 0.550837 0.210211
H60   H     H_    0.129822 0.329084 0.491301 0.225942
H61   H     H_    0.125110 0.438537 0.637392 0.214964
H62   H     H_    0.047238 0.407839 0.699649 0.201142
H63   H     H_    0.818316 0.359260 0.761126 0.274629
H64   H     H_    0.903532 0.342269 0.832228 0.254586
H65   H     H_    0.850277 0.414653 0.890894 0.253752
H66   H     H_    0.945509 0.463601 0.759481 0.212076
H67   H     H_    0.653047 0.573021 0.900360 0.177541
H68   H     H_    0.860991 0.479638 0.689484 0.239059
H69   H     H_    0.874323 0.372065 0.546100 0.204180
H70   H     H_    0.951924 0.348284 0.619895 0.202187
H71   H     H_    0.636647 0.472491 0.125614 0.148603
H72   H     H_    0.701896 0.397244 0.366794 0.148683
N1    N     N_R   0.500000 0.689440 0.500000 -0.139539
N2    N     N_R   0.500000 0.310560 0.500000 -0.115453
N3    N     N_1   0.632861 0.659771 0.721942 -0.254180
N4    N     N_1   0.370288 0.651515 0.272378 -0.221022
N5    N     N_1   0.633129 0.875759 0.726601 -0.203987
N6    N     N_1   0.364781 0.868179 0.272348 -0.208865
N7    N     N_1   0.663019 0.401889 0.838413 -0.229722
N8    N     N_1   0.684063 0.636989 0.192400 -0.206565
O1    O     O_R   0.398180 0.560840 0.499970 -0.617910
O2    O     O_R   0.601820 0.560840 0.500030 -0.610047
O3    O     O_R   0.398180 0.439210 0.499910 -0.642541
O4    O     O_R   0.601820 0.439210 0.500090 -0.629770
O5    O     O_R   0.499990 0.560820 0.316770 -0.607260
O6    O     O_R   0.500010 0.560820 0.683230 -0.616101
O7    O     O_R   0.499990 0.439200 0.316710 -0.629422
O8    O     O_R   0.500010 0.439200 0.683290 -0.616734
Zn1   Zn    Zn3+2 0.500000 0.581210 0.500000 0.965946
Zn2   Zn    Zn3+2 0.500000 0.418790 0.500000 0.925387

loop_
_geom_bond_atom_site_label_1
_geom_bond_atom_site_label_2
_ccdc_geom_bond_type
C66   C68   S    
C21   C26   A    
C8    C10   A    
C34   C56   A    
C23   C45   A    
C48   H19   S    
C68   H50   S    
C27   C29   A    
C73   C74   S    
C14   C18   A    
C9    C51   S    
C2    C65   S    
C10   C52   S    
C68   H48   S    
C22   C57   S    
C65   H54   S    
C36   C67   A    
C57   H39   S    
C53   C54   S    
C33   H67   S    
C6    C72   S    
C55   H26   S    
C43   H13   S    
C48   H18   S    
C64   H40   S    
C15   O7    A    
C31   C42   S    
C18   C19   A    
C5    C6    A    
C33   C35   S    
C38   H3    S    
C52   N6    T    
C23   C40   A    
N2    Zn2   S    
C55   H27   S    
C64   H42   S    
C66   H51   S    
C42   H15   S    
C46   C47   S    
C19   C26   S    
C5    C69   S    
C59   H33   S    
C7    N1    A    
C53   H30   S    
C36   H72   S    
C3    C41   S    
C4    C40   S    
C22   C25   A    
C45   C67   A    
C58   H37   S    
C59   H35   S    
C47   H20   S    
C56   H8    S    
C70   C71   S    
O4    Zn2   S    
C30   C32   A    
C44   H11   S    
C54   H29   S    
C37   C75   A    
C56   C75   A    
C70   H60   S    
C62   C76   S    
C45   H7    S    
C34   C41   A    
C71   H58   S    
C44   H10   S    
C62   H47   S    
C15   C29   S    
C73   H66   S    
C69   H61   S    
C12   C67   S    
C13   H1    S    
C11   C20   S    
C43   H14   S    
C48   H17   S    
C49   N3    T    
C1    C75   S    
C14   C20   A    
C1    O3    A    
O7    Zn2   S    
N1    Zn1   S    
C7    C49   S    
C39   C41   A    
O1    Zn1   S    
C27   C35   S    
C58   C59   S    
C74   H64   S    
C16   O8    A    
C64   H41   S    
C25   N2    A    
C43   C44   S    
C62   C63   S    
C21   C53   S    
O6    Zn1   S    
C17   H23   S    
C53   H31   S    
C47   C48   S    
C35   C61   S    
C35   H71   S    
C12   O4    A    
C9    C11   A    
C24   N2    A    
C4    C6    A    
C74   H65   S    
C28   C33   S    
C33   C60   S    
C70   H59   S    
C58   H36   S    
C42   C43   S    
C44   H9    S    
C61   N8    T    
C8    C50   S    
C62   H46   S    
C2    C76   A    
C74   H63   S    
C54   H28   S    
C69   H62   S    
C7    C9    A    
C46   H24   S    
C54   C55   S    
C51   N5    T    
C23   H5    S    
C13   C20   A    
C63   H43   S    
C32   C46   S    
C15   O5    A    
C31   C32   A    
C18   H34   S    
C72   C73   S    
C3    C5    A    
C71   H57   S    
C65   H53   S    
C57   H38   S    
C37   H2    S    
C55   H25   S    
C59   H32   S    
C47   H21   S    
O3    Zn2   S    
C13   C17   A    
C16   O6    A    
C39   H4    S    
O8    Zn2   S    
C2    C3    A    
C60   N7    T    
C14   H12   S    
C28   C30   A    
C29   C31   A    
C36   C38   A    
C38   C40   A    
C63   H44   S    
C57   C58   S    
C72   H70   S    
C1    O1    A    
C24   H45   S    
C17   C19   A    
C66   H52   S    
C8    N1    A    
C42   H16   S    
C46   H22   S    
C69   C70   S    
C4    C76   A    
C10   C11   A    
C71   H55   S    
C63   C64   S    
C50   N4    T    
C37   C39   A    
C65   C66   S    
C22   C26   A    
C21   C24   A    
C27   C28   A    
C34   H6    S    
C12   O2    A    
C25   H56   S    
C16   C30   S    
C68   H49   S    
O5    Zn1   S    
C72   H69   S    
O2    Zn1   S    
C73   H68   S    
