data_mof_unit_41497.cif
_audit_creation_date              2012-12-11T14:10:59-0500
_audit_creation_method            fapswitch 2.2
_symmetry_space_group_name_H-M    P1
_symmetry_Int_Tables_number       1
_space_group_crystal_system       triclinic
_cell_length_a                    19.906758
_cell_length_b                    17.195196
_cell_length_c                    15.631432
_cell_angle_alpha                 90.00499
_cell_angle_beta                  51.810951
_cell_angle_gamma                 90.029767
_cell_volume                      4205.47571569

loop_
_atom_site_label
_atom_site_type_symbol
_atom_type_description
_atom_site_fract_x
_atom_site_fract_y
_atom_site_fract_z
_atom_type_partial_charge
C1    C     C_R   0.335337 0.168334 0.061659 -0.220546
C2    C     C_3   0.754788 0.771911 0.443572 -0.126482
C3    C     C_3   0.706055 0.239073 0.435567 -0.145765
C4    C     C_3   0.244798 0.772045 0.556643 -0.127100
C5    C     C_3   0.834911 0.779285 0.532429 -0.131196
C6    C     C_3   0.254718 0.271051 0.443889 -0.126790
C7    C     C_3   0.164839 0.779276 0.467571 -0.130796
C8    C     C_3   0.703469 0.311153 0.590377 -0.147343
C9    C     C_2   0.282019 0.696818 0.943884 0.279764
C10   C     C_2   0.762042 0.271946 0.977648 0.272691
C11   C     C_2   0.718144 0.696889 0.055737 0.279569
C12   C     C_R   0.640000 0.808371 0.983449 -0.222231
C13   C     C_2   0.237707 0.271949 0.022715 0.270298
C14   C     C_2   0.781936 0.196858 0.944119 0.279717
C15   C     C_2   0.262131 0.771880 0.977531 0.272952
C16   C     C_2   0.218027 0.196770 0.055931 0.277753
C17   C     C_2   0.737941 0.772026 0.022340 0.272971
C18   C     C_R   0.350581 0.825969 0.223928 -0.126554
C19   C     C_R   0.606790 0.198143 0.788354 -0.131016
C20   C     C_R   0.649398 0.826035 0.776033 -0.126197
C21   C     C_R   0.393255 0.197878 0.212712 -0.145746
C22   C     C_R   0.851941 0.324561 0.223034 -0.112154
C23   C     C_R   0.664759 0.168280 0.938284 -0.219340
C24   C     C_R   0.106801 0.697889 0.787252 -0.145537
C25   C     C_R   0.149273 0.325885 0.776047 -0.126886
C26   C     C_R   0.892979 0.697797 0.212884 -0.145638
C27   C     C_R   0.356275 0.890735 0.910533 0.506536
C28   C     C_R   0.671039 0.090434 0.045822 0.455325
C29   C     C_R   0.643756 0.890783 0.089419 0.506184
C30   C     C_R   0.328976 0.090457 0.954163 0.455103
C31   C     C_R   0.856211 0.390792 0.910599 0.506113
C32   C     C_R   0.171124 0.590392 0.045624 0.455599
C33   C     C_R   0.143569 0.390712 0.089659 0.506419
C34   C     C_R   0.360012 0.808319 0.016500 -0.222255
C35   C     C_R   0.829005 0.590499 0.954099 0.455631
C36   C     C_R   0.399913 0.105692 0.307974 -0.114323
C37   C     C_R   0.641228 0.919369 0.682385 -0.081106
C38   C     C_R   0.599084 0.106992 0.692849 -0.125209
C39   C     C_R   0.358796 0.919212 0.317623 -0.080454
C40   C     C_R   0.899442 0.605511 0.308257 -0.112749
C41   C     C_R   0.141060 0.419111 0.682323 -0.080192
C42   C     C_R   0.100166 0.605676 0.691981 -0.114512
C43   C     C_R   0.858548 0.418306 0.317683 -0.099636
C44   C     C_R   0.284590 0.146335 0.035243 -0.034402
C45   C     C_R   0.835366 0.668388 0.061586 -0.220223
C46   C     C_R   0.675224 0.821639 0.033567 -0.034176
C47   C     C_R   0.715496 0.146267 0.964665 -0.034500
C48   C     C_R   0.324813 0.821560 0.966359 -0.034276
C49   C     C_R   0.784634 0.646402 0.035145 -0.034702
C50   C     C_R   0.174947 0.321508 0.033960 -0.033913
C51   C     C_R   0.215549 0.646245 0.964458 -0.034860
C52   C     C_R   0.824706 0.321648 0.966469 -0.033801
C53   C     C_R   0.310095 0.858990 0.325507 0.008513
C54   C     C_R   0.620456 0.182575 0.692859 0.033125
C55   C     C_R   0.689876 0.859105 0.674447 0.008045
C56   C     C_R   0.139871 0.308304 0.983641 -0.221891
C57   C     C_R   0.378665 0.181241 0.308887 0.035115
C58   C     C_R   0.811065 0.356931 0.324663 0.010903
C59   C     C_R   0.121448 0.681240 0.691046 0.034987
C60   C     C_R   0.189641 0.358816 0.674422 0.008740
C61   C     C_R   0.878045 0.681043 0.309252 0.034028
C62   C     C_3   0.303322 0.204173 0.515142 -0.151147
C63   C     C_3   0.787794 0.847157 0.459666 -0.149945
C64   C     C_3   0.740433 0.204755 0.492644 -0.153231
C65   C     C_3   0.211981 0.847250 0.540272 -0.149911
C66   C     C_3   0.802057 0.703915 0.515640 -0.150412
C67   C     C_R   0.164741 0.668270 0.938173 -0.220275
C68   C     C_3   0.287038 0.346850 0.459806 -0.150172
C69   C     C_3   0.197497 0.703944 0.484647 -0.150541
C70   C     C_3   0.669404 0.346155 0.532641 -0.161178
C71   C     C_3   0.717605 0.743785 0.558206 -0.139220
C72   C     C_3   0.373033 0.307469 0.415098 -0.149509
C73   C     C_3   0.282006 0.743781 0.442068 -0.139321
C74   C     C_3   0.624517 0.267938 0.546024 -0.133566
C75   C     C_3   0.218276 0.243059 0.558309 -0.139586
C76   C     C_3   0.873208 0.806781 0.415544 -0.150458
C77   C     C_3   0.784156 0.281761 0.481067 -0.122725
C78   C     C_R   0.859943 0.308364 0.016538 -0.221967
C79   C     C_3   0.126506 0.806904 0.584413 -0.150110
C80   C     C_3   0.750790 0.818465 0.573939 0.162675
C81   C     C_3   0.339393 0.232456 0.401056 0.157745
C82   C     C_3   0.249020 0.818420 0.426048 0.162694
C83   C     C_3   0.660116 0.234234 0.601282 0.165097
C84   C     C_3   0.250760 0.318302 0.573885 0.162960
C85   C     C_3   0.838875 0.732336 0.401348 0.157934
C86   C     C_3   0.749663 0.315913 0.424547 0.161305
C87   C     C_3   0.160649 0.732499 0.598894 0.157972
C88   C     C_3   0.371486 0.664103 0.879697 -0.956200
C89   C     C_3   0.335473 0.280121 0.531787 -0.130318
C90   C     C_3   0.672266 0.305494 0.044630 -0.969706
C91   C     C_3   0.628726 0.663985 0.119736 -0.956124
C92   C     C_3   0.327364 0.305816 0.956102 -0.964533
C93   C     C_3   0.871414 0.164156 0.879900 -0.955369
C94   C     C_3   0.172362 0.805439 0.044521 -0.969827
C95   C     C_3   0.128673 0.163748 0.119760 -0.951787
C96   C     C_3   0.827662 0.805767 0.955570 -0.969838
Cl1   Cl    Cl    0.375994 0.904618 0.785594 -0.591529
Cl2   Cl    Cl    0.691012 0.071029 0.138092 -0.615048
Cl3   Cl    Cl    0.624124 0.904669 0.214301 -0.591173
Cl4   Cl    Cl    0.308830 0.070811 0.862110 -0.614521
Cl5   Cl    Cl    0.875917 0.404652 0.785665 -0.591765
Cl6   Cl    Cl    0.191423 0.570700 0.137509 -0.612896
Cl7   Cl    Cl    0.123700 0.404626 0.214686 -0.594471
Cl8   Cl    Cl    0.808914 0.570891 0.861985 -0.613291
H1    H     H_    0.322340 0.214094 0.117153 0.150801
H2    H     H_    0.607926 0.254601 0.817918 0.102115
H3    H     H_    0.667496 0.772737 0.792977 0.117258
H4    H     H_    0.391633 0.254711 0.184373 0.111673
H5    H     H_    0.835359 0.270944 0.204782 0.106969
H6    H     H_    0.108410 0.754733 0.815593 0.111713
H7    H     H_    0.167376 0.272634 0.793080 0.117159
H8    H     H_    0.891401 0.754660 0.184576 0.111831
H9    H     H_    0.405347 0.077489 0.365261 0.121749
H10   H     H_    0.651638 0.953824 0.617369 0.104447
H11   H     H_    0.594445 0.079453 0.634457 0.130666
H12   H     H_    0.642574 0.754984 0.945478 0.147578
H13   H     H_    0.348420 0.953440 0.382757 0.103721
H14   H     H_    0.904626 0.577207 0.365711 0.121919
H15   H     H_    0.151403 0.453338 0.617206 0.103511
H16   H     H_    0.094715 0.577469 0.634701 0.121888
H17   H     H_    0.847095 0.452322 0.383664 0.112145
H18   H     H_    0.652802 0.718662 0.618307 0.131332
H19   H     H_    0.437801 0.331979 0.353362 0.126680
H20   H     H_    0.346764 0.718603 0.382095 0.131431
H21   H     H_    0.557677 0.260841 0.576138 0.130172
H22   H     H_    0.153823 0.217351 0.618628 0.131257
H23   H     H_    0.677873 0.214149 0.882896 0.151703
H24   H     H_    0.938317 0.830708 0.354029 0.126067
H25   H     H_    0.850700 0.287886 0.452545 0.144692
H26   H     H_    0.061437 0.830887 0.645804 0.126041
H27   H     H_    0.309953 0.145022 0.537532 0.135510
H28   H     H_    0.781501 0.906843 0.438335 0.125967
H29   H     H_    0.768972 0.146059 0.478058 0.124263
H30   H     H_    0.218356 0.906960 0.561482 0.126081
H31   H     H_    0.807838 0.644526 0.538276 0.136132
H32   H     H_    0.279958 0.406291 0.438633 0.126364
H33   H     H_    0.191634 0.644532 0.462127 0.135273
H34   H     H_    0.357460 0.754904 0.054404 0.147656
H35   H     H_    0.641996 0.405153 0.545557 0.123791
H36   H     H_    0.366856 0.285410 0.570499 0.127515
H37   H     H_    0.722738 0.767792 0.405573 0.140732
H38   H     H_    0.707526 0.210411 0.370797 0.143858
H39   H     H_    0.276783 0.768000 0.594729 0.140791
H40   H     H_    0.866057 0.783890 0.571509 0.129407
H41   H     H_    0.222407 0.266255 0.406285 0.140449
H42   H     H_    0.133776 0.783818 0.428382 0.129332
H43   H     H_    0.701885 0.339950 0.655157 0.136920
H44   H     H_    0.374746 0.605313 0.847796 0.250800
H45   H     H_    0.822397 0.714198 0.117002 0.150788
H46   H     H_    0.417202 0.702310 0.809196 0.255595
H47   H     H_    0.391176 0.658308 0.931959 0.256760
H48   H     H_    0.668239 0.361392 0.083327 0.248849
H49   H     H_    0.653760 0.318106 0.992187 0.257184
H50   H     H_    0.625565 0.265168 0.111391 0.254603
H51   H     H_    0.625493 0.605190 0.151605 0.250785
H52   H     H_    0.582903 0.702092 0.190254 0.255572
H53   H     H_    0.609155 0.658136 0.067349 0.256750
H54   H     H_    0.331293 0.361792 0.917622 0.248867
H55   H     H_    0.345678 0.318374 0.008769 0.257404
H56   H     H_    0.142462 0.254932 0.945630 0.147482
H57   H     H_    0.374250 0.265711 0.889202 0.253877
H58   H     H_    0.874699 0.105407 0.847882 0.250713
H59   H     H_    0.917137 0.202413 0.809470 0.255949
H60   H     H_    0.891086 0.158259 0.932171 0.256254
H61   H     H_    0.168354 0.861347 0.083185 0.248500
H62   H     H_    0.153842 0.818031 0.992087 0.257939
H63   H     H_    0.125666 0.765124 0.111302 0.254286
H64   H     H_    0.125521 0.104908 0.151465 0.250265
H65   H     H_    0.082766 0.201745 0.190377 0.255438
H66   H     H_    0.109160 0.157968 0.067303 0.256735
H67   H     H_    0.177738 0.714081 0.882731 0.150856
H68   H     H_    0.831653 0.861719 0.917005 0.248534
H69   H     H_    0.846065 0.818327 0.008142 0.257977
H70   H     H_    0.874453 0.765579 0.888728 0.254218
H71   H     H_    0.857403 0.254885 0.054272 0.146804
H72   H     H_    0.332452 0.772686 0.206951 0.117346
N1    N     N_R   0.408680 0.130810 0.995780 -0.064810
N2    N     N_R   0.578590 0.132790 0.846380 -0.041039
N3    N     N_R   0.578590 0.867210 0.846380 -0.042299
N4    N     N_R   0.421410 0.132790 0.153620 -0.040507
N5    N     N_R   0.921410 0.367210 0.153620 -0.042306
N6    N     N_R   0.078590 0.632790 0.846380 -0.040483
N7    N     N_R   0.078590 0.367210 0.846380 -0.042328
N8    N     N_R   0.921410 0.632790 0.153620 -0.040471
N9    N     N_R   0.403840 0.921910 0.935760 -0.097574
N10   N     N_R   0.596160 0.078090 0.064240 -0.083624
N11   N     N_R   0.596160 0.921910 0.064240 -0.097675
N12   N     N_R   0.591320 0.869190 0.004220 -0.069302
N13   N     N_R   0.403840 0.078090 0.935760 -0.083705
N14   N     N_R   0.903840 0.421910 0.935760 -0.097703
N15   N     N_R   0.096160 0.578090 0.064240 -0.083678
N16   N     N_R   0.096160 0.421910 0.064240 -0.097644
N17   N     N_R   0.903840 0.578090 0.935760 -0.083756
N18   N     N_R   0.426250 0.076100 0.213650 -0.042602
N19   N     N_R   0.573750 0.923900 0.786350 -0.036563
N20   N     N_R   0.573750 0.076100 0.786350 -0.042792
N21   N     N_R   0.426250 0.923900 0.213650 -0.036945
N22   N     N_R   0.926250 0.576100 0.213650 -0.042074
N23   N     N_R   0.591320 0.130810 0.004220 -0.065036
N24   N     N_R   0.073750 0.423900 0.786350 -0.036980
N25   N     N_R   0.073750 0.576100 0.786350 -0.042620
N26   N     N_R   0.926250 0.423900 0.213650 -0.036256
N27   N     N_R   0.408680 0.869190 0.995780 -0.069297
N28   N     N_R   0.908680 0.630810 0.995780 -0.064600
N29   N     N_R   0.091320 0.369190 0.004220 -0.069369
N30   N     N_R   0.091320 0.630810 0.004220 -0.064648
N31   N     N_R   0.908680 0.369190 0.995780 -0.069491
N32   N     N_R   0.421410 0.867210 0.153620 -0.042311
Ni1   Ni    Ni4+2 0.500000 0.131570 0.000000 0.199873
Ni2   Ni    Ni4+2 0.500000 0.868430 0.000000 0.204415
Ni3   Ni    Ni4+2 0.000000 0.631570 0.000000 0.200222
Ni4   Ni    Ni4+2 0.000000 0.368430 0.000000 0.204858
Ni5   Ni    Ni4+2 0.488900 0.000000 0.862310 0.287148
Ni6   Ni    Ni4+2 0.511100 0.000000 0.137690 0.287569
Ni7   Ni    Ni4+2 0.988900 0.500000 0.862310 0.287472
Ni8   Ni    Ni4+2 0.011100 0.500000 0.137690 0.286947

loop_
_geom_bond_atom_site_label_1
_geom_bond_atom_site_label_2
_ccdc_geom_bond_type
C27   C48   A    
C92   H57   S    
C40   H14   S    
C28   C47   A    
C65   C79   S    
C30   Cl4   S    
N6    N25   A    
C64   C77   S    
C71   H18   S    
N5    N26   A    
C9    C51   S    
C74   C83   S    
C10   C52   S    
C95   H64   S    
C94   H62   S    
C66   C85   S    
C79   C87   S    
C6    C75   S    
C32   C51   A    
C4    C87   S    
N3    N19   A    
C3    C64   S    
C91   H51   S    
C39   C53   A    
N3    Ni2   S    
N17   N28   A    
C96   H70   S    
N5    Ni4   S    
C37   N19   A    
C8    C83   S    
C92   H54   S    
C26   C61   A    
C22   N5    A    
C41   N24   A    
C9    C88   S    
C45   N28   A    
C4    C65   S    
C75   C84   S    
C74   H21   S    
C63   C76   S    
C93   H59   S    
C12   N12   A    
C62   C89   S    
C23   N23   A    
N24   Ni7   S    
C2    C85   S    
C18   N32   A    
C27   N9    A    
C30   N13   A    
N1    Ni1   S    
C13   C92   S    
N16   N29   A    
C3    C74   S    
C70   C74   S    
N25   Ni7   S    
C18   C53   A    
C78   N31   A    
C1    N1    A    
N30   Ni3   S    
C21   N4    A    
C11   C17   D    
C56   N29   A    
C38   N20   A    
C35   C49   A    
N13   Ni5   S    
C92   H55   S    
N27   Ni2   S    
C69   C73   S    
C25   C60   A    
C90   H50   S    
N14   Ni7   S    
C16   C44   S    
C14   C93   S    
C45   H45   S    
C65   H30   S    
C69   C87   S    
C7    H42   S    
C22   H5    S    
C6    C68   S    
C39   N21   A    
N11   Ni6   S    
N22   Ni8   S    
C70   H35   S    
C6    C81   S    
C26   N8    A    
C3    C86   S    
C30   C44   A    
C3    H38   S    
N12   Ni2   S    
C15   C48   S    
C4    H39   S    
C20   C55   A    
C52   C78   A    
C36   H9    S    
C58   C86   S    
C94   H61   S    
C55   C80   S    
C54   C83   S    
N21   N32   A    
N17   Ni7   S    
C20   N3    A    
C36   N18   A    
C63   C80   S    
C69   H33   S    
C23   C47   A    
C96   H69   S    
C29   Cl3   S    
C24   N6    A    
C68   C84   S    
C68   H32   S    
N1    N13   A    
C17   C46   S    
C90   H48   S    
C35   Cl8   S    
C10   C14   D    
C6    H41   S    
C35   N17   A    
C5    H40   S    
C77   H25   S    
C37   H10   S    
C93   H60   S    
C67   H67   S    
C33   C50   A    
C39   H13   S    
C79   H26   S    
N2    N20   A    
C34   H34   S    
C50   C56   A    
C40   C61   A    
C29   N11   A    
C32   N15   A    
C53   C82   S    
N23   Ni1   S    
N15   N30   A    
C94   H63   S    
C13   C50   S    
C64   C83   S    
C21   C57   A    
C11   C49   S    
C28   N10   A    
N15   Ni8   S    
N18   Ni6   S    
C1    C44   A    
C66   C71   S    
C38   C54   A    
C45   C49   A    
C34   N27   A    
C68   C72   S    
C73   H20   S    
C43   N26   A    
C88   H44   S    
C24   H6    S    
C17   C96   S    
C51   C67   A    
C63   H28   S    
C41   H15   S    
C90   H49   S    
C95   H65   S    
C19   N2    A    
C10   C90   S    
C4    C73   S    
C67   N30   A    
C61   C85   S    
C15   C94   S    
C19   C54   A    
C12   C46   A    
C62   C81   S    
C77   C86   S    
C36   C57   A    
N8    N22   A    
C33   N16   A    
C72   H19   S    
C8    C77   S    
C76   H24   S    
C88   H47   S    
C57   C81   S    
N10   N23   A    
C8    H43   S    
C34   C48   A    
C84   C89   S    
C2    C71   S    
C70   C86   S    
C26   H8    S    
C73   C82   S    
N4    N18   A    
C2    C63   S    
N8    Ni3   S    
C7    C79   S    
C28   Cl2   S    
C43   H17   S    
C64   H29   S    
C27   Cl1   S    
C16   C95   S    
C33   Cl7   S    
C88   H46   S    
C62   H27   S    
C72   C81   S    
C41   C60   A    
C5    C66   S    
C42   N25   A    
C42   C59   A    
C22   C58   A    
C71   C80   S    
N31   Ni4   S    
C14   C47   S    
C23   H23   S    
C8    C70   S    
N7    N24   A    
N29   Ni4   S    
C31   C52   A    
C29   C46   A    
C75   H22   S    
C20   H3    S    
C5    C76   S    
C7    C69   S    
N7    Ni4   S    
N11   N12   A    
C56   H56   S    
N20   Ni5   S    
C38   H11   S    
C60   C84   S    
N9    N27   A    
C65   C82   S    
C78   H71   S    
C93   H58   S    
C40   N22   A    
C5    C80   S    
C31   Cl5   S    
C24   C59   A    
N10   Ni6   S    
N28   Ni3   S    
C31   N14   A    
N6    Ni3   S    
N9    Ni5   S    
C32   Cl6   S    
C9    C15   D    
N4    Ni1   S    
C62   C75   S    
C95   H66   S    
C59   C87   S    
C91   H53   S    
C21   H4    S    
C25   H7    S    
C66   H31   S    
C37   C55   A    
C19   H2    S    
C11   C91   S    
N14   N31   A    
C91   H52   S    
C7    C82   S    
N2    Ni1   S    
N32   Ni2   S    
C96   H68   S    
C13   C16   D    
C42   H16   S    
C2    H37   S    
C43   C58   A    
C89   H36   S    
C72   C89   S    
N26   Ni8   S    
C76   C85   S    
N16   Ni8   S    
N21   Ni6   S    
C25   N7    A    
N19   Ni5   S    
C1    H1    S    
C12   H12   S    
C18   H72   S    
