data_mof_unit_17019.cif
_audit_creation_date              2012-12-10T22:11:16-0500
_audit_creation_method            fapswitch 2.2
_symmetry_space_group_name_H-M    P1
_symmetry_Int_Tables_number       1
_space_group_crystal_system       triclinic
_cell_length_a                    12.115167
_cell_length_b                    12.282097
_cell_length_c                    23.020428
_cell_angle_alpha                 91.408423
_cell_angle_beta                  90.852664
_cell_angle_gamma                 90.353408
_cell_volume                      3423.94456782

loop_
_atom_site_label
_atom_site_type_symbol
_atom_type_description
_atom_site_fract_x
_atom_site_fract_y
_atom_site_fract_z
_atom_type_partial_charge
C1    C     C_R   0.656452 0.998376 0.579489 0.863076
C2    C     C_R   0.096295 0.828659 0.803459 -0.174552
C3    C     C_R   0.905548 0.253107 0.156616 -0.205907
C4    C     C_R   0.094452 0.746894 0.843384 -0.205906
C5    C     C_R   0.097217 0.924646 0.330494 -0.172040
C6    C     C_R   0.902783 0.075354 0.669506 -0.172041
C7    C     C_R   0.180166 0.920396 0.372170 -0.215860
C8    C     C_R   0.819834 0.079604 0.627830 -0.215860
C9    C     C_R   0.880822 0.104070 0.329501 0.139705
C10   C     C_R   0.119180 0.895929 0.670500 0.139704
C11   C     C_R   0.803987 0.091550 0.372900 -0.243862
C12   C     C_R   0.343548 0.001624 0.420511 0.863076
C13   C     C_R   0.196015 0.908449 0.627101 -0.243862
C14   C     C_3   0.995679 0.012183 0.247487 -0.083458
C15   C     C_3   0.004321 0.987817 0.752513 -0.083459
C16   C     C_R   0.652143 0.001117 0.419465 0.869162
C17   C     C_R   0.347857 0.998883 0.580535 0.869161
C18   C     C_R   0.094323 0.009290 0.289953 0.129488
C19   C     C_R   0.905677 0.990710 0.710047 0.129488
C20   C     C_R   0.259818 0.002643 0.375516 -0.012788
C21   C     C_R   0.740182 0.997357 0.624484 -0.012788
C22   C     C_R   0.894652 0.016846 0.287699 0.044022
C23   C     C_R   0.907941 0.816984 0.123456 -0.236255
C24   C     C_R   0.105348 0.983154 0.712301 0.044023
C25   C     C_R   0.732375 0.002496 0.373227 -0.101411
C26   C     C_R   0.267625 0.997504 0.626774 -0.101411
C27   C     C_R   0.997974 0.107060 0.206125 0.120581
C28   C     C_R   0.002026 0.892940 0.793875 0.120581
C29   C     C_R   0.999858 0.269621 0.123866 -0.017936
C30   C     C_R   0.000141 0.730379 0.876133 -0.017936
C31   C     C_R   0.994463 0.912274 0.205924 0.092642
C32   C     C_R   0.005536 0.087725 0.794076 0.092641
C33   C     C_R   0.990458 0.738248 0.124890 -0.053775
C34   C     C_R   0.092059 0.183016 0.876544 -0.236256
C35   C     C_R   0.009542 0.261752 0.875109 -0.053775
C36   C     C_R   0.992727 0.657595 0.077897 0.859402
C37   C     C_R   0.007272 0.342405 0.922103 0.859401
C38   C     C_R   0.999466 0.352575 0.080716 0.865066
C39   C     C_R   0.000534 0.647425 0.919284 0.865065
C40   C     C_R   0.177266 0.090536 0.293643 -0.213649
C41   C     C_R   0.822735 0.909463 0.706356 -0.213650
C42   C     C_R   0.258562 0.087320 0.336273 -0.200050
C43   C     C_R   0.741439 0.912680 0.663727 -0.200050
C44   C     C_R   0.821966 0.926223 0.289611 -0.233199
C45   C     C_R   0.079022 0.834060 0.205566 -0.206469
C46   C     C_R   0.178034 0.073778 0.710389 -0.233199
C47   C     C_R   0.736111 0.921080 0.329139 0.080392
C48   C     C_R   0.263888 0.078921 0.670861 0.080389
C49   C     C_R   0.089565 0.120071 0.169871 -0.171888
C50   C     C_R   0.910435 0.879928 0.830129 -0.171888
C51   C     C_R   0.091783 0.202710 0.130232 -0.209736
C52   C     C_R   0.908217 0.797289 0.869768 -0.209737
C53   C     C_R   0.908794 0.901798 0.163967 -0.171194
C54   C     C_R   0.091206 0.098202 0.836033 -0.171192
C55   C     C_3   0.947518 0.209824 0.332863 -0.420009
C56   C     C_R   0.920978 0.165939 0.794434 -0.206469
C57   C     C_3   0.873347 0.310767 0.328088 -0.346963
C58   C     C_3   0.941129 0.412988 0.316756 -0.899014
C59   C     C_3   0.052483 0.790175 0.667138 -0.420011
C60   C     C_3   0.126653 0.689232 0.671913 -0.346967
C61   C     C_3   0.058870 0.587012 0.683245 -0.899016
C62   C     C_3   0.649845 0.829692 0.325074 -0.383692
C63   C     C_3   0.640744 0.768058 0.266100 -0.378833
C64   C     C_3   0.538676 0.694345 0.263127 -0.883561
C65   C     C_3   0.350152 0.170312 0.674925 -0.383685
C66   C     C_3   0.359254 0.231948 0.733898 -0.378824
C67   C     C_R   0.072652 0.741866 0.169299 0.096188
C68   C     C_3   0.461317 0.305668 0.736869 -0.883579
C69   C     C_3   0.152591 0.649258 0.180941 -0.420437
C70   C     C_3   0.143002 0.608914 0.243408 -0.371797
C71   C     C_3   0.212163 0.507056 0.252568 -0.891086
C72   C     C_3   0.847409 0.350742 0.819058 -0.420437
C73   C     C_3   0.856995 0.391083 0.756591 -0.371796
C74   C     C_3   0.787833 0.492941 0.747431 -0.891064
C75   C     C_R   0.927347 0.258134 0.830701 0.096188
C76   C     C_R   0.903706 0.171342 0.196541 -0.174552
H1    H     H_    0.320384 0.151495 0.338737 0.150246
H2    H     H_    0.849292 0.157856 0.766340 0.150599
H3    H     H_    0.827077 0.157776 0.218702 0.139391
H4    H     H_    0.172923 0.842225 0.781298 0.139391
H5    H     H_    0.034797 0.861085 0.329449 0.142033
H6    H     H_    0.965203 0.138915 0.670551 0.142033
H7    H     H_    0.163874 0.212236 0.103495 0.155719
H8    H     H_    0.836126 0.787763 0.896504 0.155719
H9    H     H_    0.843658 0.814136 0.090199 0.160844
H10   H     H_    0.156342 0.185864 0.909801 0.160844
H11   H     H_    0.832627 0.302592 0.150940 0.154259
H12   H     H_    0.679617 0.848504 0.661262 0.150246
H13   H     H_    0.167373 0.697409 0.849060 0.154260
H14   H     H_    0.180333 0.854645 0.402703 0.150042
H15   H     H_    0.819667 0.145355 0.597297 0.150042
H16   H     H_    0.799862 0.153165 0.407336 0.161727
H17   H     H_    0.200140 0.846834 0.592666 0.161728
H18   H     H_    0.178464 0.160200 0.266125 0.142337
H19   H     H_    0.821536 0.839799 0.733875 0.142337
H20   H     H_    0.003949 0.426874 0.351836 0.265038
H21   H     H_    0.983023 0.404348 0.274313 0.272674
H22   H     H_    0.885923 0.484741 0.315316 0.246490
H23   H     H_    0.833929 0.855950 0.261937 0.158925
H24   H     H_    0.812099 0.298936 0.292074 0.225137
H25   H     H_    0.827375 0.324098 0.369009 0.216998
H26   H     H_    0.993822 0.214218 0.374937 0.201333
H27   H     H_    0.009274 0.214832 0.298864 0.225234
H28   H     H_    0.016978 0.595650 0.725688 0.272674
H29   H     H_    0.996047 0.573129 0.648165 0.265038
H30   H     H_    0.114074 0.515257 0.684681 0.246490
H31   H     H_    0.172625 0.675901 0.630991 0.216998
H32   H     H_    0.187901 0.701062 0.707927 0.225139
H33   H     H_    0.990727 0.785168 0.701137 0.225235
H34   H     H_    0.166069 0.144051 0.738063 0.158925
H35   H     H_    0.006179 0.785782 0.625064 0.201333
H36   H     H_    0.541923 0.634338 0.298432 0.261240
H37   H     H_    0.462366 0.743483 0.267269 0.262636
H38   H     H_    0.535508 0.649409 0.220679 0.248541
H39   H     H_    0.635121 0.827057 0.230314 0.230039
H40   H     H_    0.714514 0.716034 0.259665 0.220736
H41   H     H_    0.667617 0.770158 0.359517 0.215345
H42   H     H_    0.567635 0.866352 0.333295 0.212818
H43   H     H_    0.537629 0.256538 0.732720 0.262639
H44   H     H_    0.458057 0.365681 0.701568 0.261242
H45   H     H_    0.159746 0.066119 0.172704 0.143078
H46   H     H_    0.464492 0.350597 0.779319 0.248542
H47   H     H_    0.285481 0.283968 0.740334 0.220736
H48   H     H_    0.364884 0.172949 0.769685 0.230038
H49   H     H_    0.432363 0.133655 0.666702 0.212817
H50   H     H_    0.332376 0.229844 0.640481 0.215344
H51   H     H_    0.182645 0.439401 0.223265 0.262608
H52   H     H_    0.300442 0.524344 0.243915 0.266730
H53   H     H_    0.204719 0.481033 0.298206 0.251959
H54   H     H_    0.171726 0.672976 0.275124 0.225375
H55   H     H_    0.055250 0.589775 0.252453 0.229453
H56   H     H_    0.840253 0.933881 0.827296 0.143078
H57   H     H_    0.136526 0.577623 0.151960 0.230347
H58   H     H_    0.238317 0.677975 0.173532 0.203448
H59   H     H_    0.699552 0.475653 0.756083 0.266724
H60   H     H_    0.817349 0.560597 0.776736 0.262606
H61   H     H_    0.795279 0.518965 0.701793 0.251956
H62   H     H_    0.944747 0.410221 0.747545 0.229451
H63   H     H_    0.828268 0.327020 0.724877 0.225372
H64   H     H_    0.761683 0.322026 0.826469 0.203449
H65   H     H_    0.863476 0.422378 0.848039 0.230344
H66   H     H_    0.842892 0.960794 0.162217 0.148620
H67   H     H_    0.157108 0.039207 0.837783 0.148620
H68   H     H_    0.150707 0.842143 0.233660 0.150599
O1    O     O_R   0.621380 0.090460 0.561410 -0.631357
O2    O     O_R   0.912410 0.372520 0.941210 -0.629491
O3    O     O_R   0.905660 0.383870 0.059980 -0.623143
O4    O     O_R   0.094340 0.616130 0.940020 -0.623143
O5    O     O_R   0.092570 0.390420 0.063230 -0.637268
O6    O     O_R   0.907430 0.609580 0.936770 -0.637269
O7    O     O_R   0.900680 0.620930 0.055550 -0.624389
O8    O     O_R   0.099320 0.379070 0.944450 -0.624388
O9    O     O_R   0.378620 0.909540 0.438590 -0.631356
O10   O     O_R   0.617150 0.909540 0.438590 -0.633431
O11   O     O_R   0.382850 0.090460 0.561410 -0.633432
O12   O     O_R   0.619720 0.093230 0.440890 -0.628658
O13   O     O_R   0.380280 0.906770 0.559110 -0.628658
O14   O     O_R   0.618800 0.906770 0.559110 -0.624095
O15   O     O_R   0.381200 0.093230 0.440890 -0.624095
O16   O     O_R   0.087590 0.627480 0.058790 -0.629492
Zn1   Zn    Zn3+2 0.501730 0.123520 0.501540 0.928105
Zn2   Zn    Zn3+2 0.498270 0.876480 0.498460 0.928105
Zn3   Zn    Zn3+2 0.125690 0.504390 0.002180 0.931430
Zn4   Zn    Zn3+2 0.874310 0.495610 0.997820 0.931429

loop_
_geom_bond_atom_site_label_1
_geom_bond_atom_site_label_2
_ccdc_geom_bond_type
C66   C68   S    
C1    C21   S    
C69   H58   S    
C6    H6    S    
C73   C74   S    
C14   C18   S    
C1    O1    A    
C58   H22   S    
C76   H3    S    
C12   O9    A    
C47   C62   S    
C15   C28   S    
C15   C32   S    
O11   Zn1   S    
C15   C19   S    
C6    C19   A    
C55   H26   S    
C35   C75   A    
O1    Zn1   S    
C43   H12   S    
C1    O14   A    
C35   C37   S    
C34   C35   A    
O3    Zn4   S    
C68   H43   S    
C44   H23   S    
C9    C22   A    
C64   H36   S    
C73   H62   S    
C11   C25   A    
C55   H27   S    
C70   H54   S    
C33   C36   S    
C56   H2    S    
C52   H8    S    
C53   H66   S    
C34   H10   S    
C3    C29   A    
C18   C40   A    
C62   H41   S    
C58   H20   S    
C21   C43   A    
C28   C50   A    
C11   H16   S    
C22   C44   A    
C23   C33   A    
C74   H60   S    
C39   O4    A    
C45   C67   A    
C45   H68   S    
C50   C52   A    
O15   Zn1   S    
C70   C71   S    
C9    C55   S    
C14   C27   S    
C17   O13   A    
C14   C31   S    
C38   O5    A    
C60   H32   S    
C44   C47   A    
C26   C48   A    
C63   H39   S    
C40   C42   A    
C54   H67   S    
C59   C60   S    
C56   C75   A    
C41   C43   A    
C71   H51   S    
C58   H21   S    
C72   C75   S    
C32   C54   A    
C23   C53   A    
C72   H65   S    
C74   H61   S    
C46   C48   A    
C64   H38   S    
C3    H11   S    
O16   Zn3   S    
C61   H28   S    
C68   H46   S    
C5    C7    A    
O14   Zn2   S    
C6    C8    A    
C5    C18   A    
C73   H63   S    
C49   C51   A    
C7    H14   S    
O2    Zn4   S    
C13   H17   S    
C60   C61   S    
C67   C69   S    
C65   H49   S    
C29   C38   S    
C2    C4    A    
C16   O12   A    
C62   C63   S    
C3    C76   A    
C71   H53   S    
C5    H5    S    
C59   H35   S    
C39   O6    A    
C49   H45   S    
C74   H59   S    
C12   C20   S    
C8    C21   A    
O7    Zn4   S    
C8    H15   S    
C31   C53   A    
C61   H30   S    
C9    C11   A    
C60   H31   S    
C50   H56   S    
O5    Zn3   S    
C63   H40   S    
C15   C24   S    
O12   Zn1   S    
C34   C54   A    
C55   C57   S    
C16   O10   A    
C48   C65   S    
C66   H48   S    
C13   C26   A    
C17   C26   S    
C37   O8    A    
C31   C45   A    
C27   C76   A    
C17   O11   A    
C51   H7    S    
C61   H29   S    
C33   C67   A    
C4    H13   S    
C29   C51   A    
C16   C25   S    
C25   C47   A    
C69   H57   S    
C64   H37   S    
O4    Zn3   S    
O10   Zn2   S    
C40   H18   S    
C72   C73   S    
C10   C13   A    
C20   C42   A    
C36   O7    A    
C57   H25   S    
O9    Zn2   S    
C10   C24   A    
C65   H50   S    
C14   C22   S    
C46   H34   S    
C10   C59   S    
C24   C46   A    
C68   H44   S    
C57   H24   S    
C57   C58   S    
C41   H19   S    
C30   C52   A    
C70   H55   S    
C59   H33   S    
C30   C39   S    
C65   C66   S    
C12   O15   A    
C69   C70   S    
C71   H52   S    
C38   O3    A    
C62   H42   S    
O8    Zn3   S    
C2    H4    S    
C36   O16   A    
C37   O2    A    
C63   C64   S    
C19   C41   A    
C72   H64   S    
C42   H1    S    
C7    C20   A    
C23   H9    S    
O6    Zn4   S    
C66   H47   S    
C2    C28   A    
O13   Zn2   S    
C32   C56   A    
C4    C30   A    
C27   C49   A    
