data_mof_unit_40805.cif
_audit_creation_date              2012-12-10T20:57:58-0500
_audit_creation_method            fapswitch 2.2
_symmetry_space_group_name_H-M    P1
_symmetry_Int_Tables_number       1
_space_group_crystal_system       triclinic
_cell_length_a                    18.167782
_cell_length_b                    18.285063
_cell_length_c                    18.406515
_cell_angle_alpha                 120.144254
_cell_angle_beta                  89.969962
_cell_angle_gamma                 119.88399
_cell_volume                      4322.95862331

loop_
_atom_site_label
_atom_site_type_symbol
_atom_type_description
_atom_site_fract_x
_atom_site_fract_y
_atom_site_fract_z
_atom_type_partial_charge
C1    C     C_R   0.360468 0.220063 0.360973 0.816947
C2    C     C_3   0.270795 0.571676 0.359462 -0.513570
C3    C     C_3   0.300385 0.500538 0.301980 0.073538
C4    C     C_3   0.197079 0.499010 0.200156 0.067824
C5    C     C_3   0.150787 0.388907 0.179296 0.281823
C6    C     C_3   0.213813 0.574423 0.300408 -0.494512
C7    C     C_3   0.636851 0.936571 0.702366 0.221199
C8    C     C_3   0.696142 0.057611 0.764193 0.335594
C9    C     C_3   0.744140 0.939042 0.794373 0.340366
C10   C     C_3   0.772069 0.942763 0.661134 -0.353031
C11   C     C_3   0.697736 0.897573 0.697989 -0.021497
C12   C     C_R   0.640897 0.781008 0.639339 0.831948
C13   C     C_3   0.797309 0.102521 0.802774 -0.027104
C14   C     C_3   0.805176 0.059575 0.854211 -0.470037
C15   C     C_3   0.829278 0.062510 0.721568 -0.513539
C16   C     C_3   0.679214 0.391568 0.241202 -0.395673
C17   C     C_3   0.738969 0.391433 0.181410 -0.404815
C18   C     C_3   0.679685 0.530631 0.242965 -0.383591
C19   C     C_3   0.799738 0.579261 0.360076 -0.389576
C20   C     C_3   0.698596 0.500500 0.302262 0.190744
C21   C     C_3   0.799877 0.500217 0.200715 0.193906
C22   C     C_3   0.739341 0.530325 0.183102 -0.376264
C23   C     C_R   0.358777 0.500123 0.640203 0.784548
C24   C     C_3   0.859050 0.579373 0.300792 -0.388619
C25   C     C_R   0.474004 0.198937 0.558998 -0.209293
C26   C     C_R   0.431408 0.145557 0.467761 0.583000
C27   C     C_R   0.338721 0.100131 0.435837 0.030225
C28   C     C_R   0.289192 0.104042 0.494648 -0.222746
C29   C     C_R   0.331965 0.155746 0.584966 -0.120604
C30   C     C_R   0.424334 0.203789 0.617205 -0.200438
C31   C     C_R   0.236614 0.944069 0.286206 -0.272141
C32   C     C_R   0.191140 0.892290 0.196526 -0.052278
C33   C     C_R   0.201136 0.948885 0.161389 -0.007191
C34   C     C_R   0.640833 0.500243 0.359512 0.746644
C35   C     C_R   0.258972 0.055867 0.216498 -0.275064
C36   C     C_R   0.304689 0.107609 0.306039 -0.021557
C37   C     C_R   0.293239 0.051027 0.341584 0.058423
C38   C     C_R   0.197796 0.906274 0.008838 -0.146247
C39   C     C_R   0.150919 0.860319 0.921337 -0.127781
C40   C     C_R   0.057572 0.809118 0.893438 -0.094019
C41   C     C_R   0.010859 0.803974 0.953004 -0.123567
C42   C     C_R   0.057456 0.849640 0.040570 -0.117331
C43   C     C_R   0.151245 0.900450 0.068807 0.155429
C44   C     C_R   0.909167 0.590550 0.549181 -0.211456
C45   C     C_R   0.642022 0.500150 0.639900 0.810290
C46   C     C_R   0.859838 0.541856 0.588049 -0.156350
C47   C     C_R   0.839105 0.594355 0.662034 0.047321
C48   C     C_R   0.869276 0.696485 0.697494 -0.101718
C49   C     C_R   0.917812 0.745402 0.658317 0.522354
C50   C     C_R   0.937853 0.691686 0.583703 -0.256522
C51   C     C_R   0.839493 0.541053 0.759745 -0.281564
C52   C     C_R   0.799179 0.497495 0.805112 -0.028005
C53   C     C_R   0.707169 0.454672 0.795488 0.084494
C54   C     C_R   0.658474 0.458689 0.741914 -0.279508
C55   C     C_R   0.698712 0.502218 0.696606 -0.052299
C56   C     C_R   0.358267 0.500450 0.359510 0.800596
C57   C     C_R   0.790682 0.544876 0.706000 0.007798
C58   C     C_R   0.624757 0.302432 0.804019 0.628912
C59   C     C_R   0.577377 0.258684 0.848120 -0.313724
C60   C     C_R   0.559458 0.314909 0.922295 -0.209894
C61   C     C_R   0.589260 0.415886 0.955193 0.501185
C62   C     C_R   0.639711 0.461671 0.914308 -0.386525
C63   C     C_R   0.658571 0.406139 0.840137 -0.013053
C64   C     C_R   0.334987 0.766128 0.683032 -0.167075
C65   C     C_R   0.333371 0.712179 0.716958 -0.102465
C66   C     C_R   0.264959 0.606323 0.671825 0.166146
C67   C     C_3   0.352826 0.541174 0.249014 0.417710
C68   C     C_R   0.197835 0.555361 0.593103 -0.153318
C69   C     C_R   0.199522 0.609746 0.559623 -0.142664
C70   C     C_R   0.268341 0.714898 0.604229 -0.114501
C71   C     C_R   0.205965 0.548777 0.765631 -0.262456
C72   C     C_R   0.195769 0.498540 0.806206 -0.061114
C73   C     C_R   0.240145 0.449421 0.792263 0.040893
C74   C     C_R   0.292593 0.451627 0.737493 -0.254253
C75   C     C_R   0.302486 0.501563 0.696738 -0.063980
C76   C     C_R   0.258845 0.551366 0.711465 -0.017529
C77   C     C_R   0.313305 0.441097 0.899653 -0.254306
C78   C     C_3   0.290326 0.536476 0.186740 -0.476137
C79   C     C_R   0.318511 0.383745 0.925924 -0.351283
C80   C     C_R   0.245710 0.279552 0.886879 0.504211
C81   C     C_R   0.166642 0.236730 0.823722 0.486764
C82   C     C_R   0.163554 0.293958 0.795645 -0.262205
C83   C     C_R   0.236629 0.396180 0.833291 0.089082
C84   C     C_R   0.857078 0.499942 0.142881 0.738078
C85   C     C_R   0.139189 0.500024 0.862302 0.794086
C86   C     C_R   0.856406 0.218983 0.861908 0.826631
C87   C     C_R   0.136731 0.779901 0.141291 0.784296
C88   C     C_R   0.855750 0.499796 0.862204 0.804241
C89   C     C_3   0.214244 0.389107 0.235850 -0.433198
C90   C     C_R   0.139248 0.499389 0.142821 0.814550
H1    H     H_    0.148647 0.553039 0.313140 0.185216
H2    H     H_    0.178094 0.358656 0.273364 0.124783
H3    H     H_    0.089328 0.369963 0.199047 0.118347
H4    H     H_    0.584921 0.902441 0.728940 0.087040
H5    H     H_    0.697161 0.081865 0.719317 0.151625
H6    H     H_    0.689215 0.911080 0.821303 0.016422
H7    H     H_    0.788644 0.090542 0.916120 0.137540
H8    H     H_    0.816757 0.916932 0.657690 0.236409
H9    H     H_    0.409760 0.624022 0.299380 0.053250
H10   H     H_    0.741321 0.913684 0.592059 0.191311
H11   H     H_    0.824396 0.091023 0.681976 0.172310
H12   H     H_    0.901220 0.093137 0.744427 0.227304
H13   H     H_    0.876568 0.088084 0.876878 0.213168
H14   H     H_    0.607112 0.333185 0.198432 0.181530
H15   H     H_    0.692491 0.368430 0.282473 0.158468
H16   H     H_    0.781220 0.368418 0.193918 0.151320
H17   H     H_    0.695345 0.332917 0.110166 0.181080
H18   H     H_    0.607582 0.475097 0.200279 0.198973
H19   H     H_    0.322686 0.614959 0.201967 0.122568
H20   H     H_    0.695752 0.474203 0.112075 0.213658
H21   H     H_    0.816071 0.658503 0.405066 0.178202
H22   H     H_    0.814991 0.558399 0.402434 0.190001
H23   H     H_    0.903368 0.559755 0.315763 0.172504
H24   H     H_    0.903292 0.658561 0.316898 0.177102
H25   H     H_    0.693374 0.608770 0.285443 0.147582
H26   H     H_    0.781612 0.608151 0.196255 0.149406
H27   H     H_    0.457451 0.244964 0.687419 0.149624
H28   H     H_    0.545734 0.237165 0.584706 0.176327
H29   H     H_    0.282450 0.485440 0.115922 0.199956
H30   H     H_    0.217836 0.068877 0.470773 0.148347
H31   H     H_    0.293659 0.159610 0.630201 0.154913
H32   H     H_    0.229443 0.901167 0.313444 0.165983
H33   H     H_    0.266020 0.098975 0.189516 0.171621
H34   H     H_    0.270132 0.945573 0.029697 0.125034
H35   H     H_    0.186942 0.864304 0.875121 0.135325
H36   H     H_    0.021597 0.773511 0.825669 0.129443
H37   H     H_    0.938556 0.764413 0.931260 0.118943
H38   H     H_    0.020677 0.845095 0.086198 0.096938
H39   H     H_    0.975511 0.727907 0.552330 0.129803
H40   H     H_    0.232932 0.336427 0.192103 0.221865
H41   H     H_    0.924999 0.549753 0.492007 0.144234
H42   H     H_    0.838138 0.463578 0.560870 0.141798
H43   H     H_    0.854686 0.737751 0.755524 0.135828
H44   H     H_    0.909877 0.572875 0.766185 0.178409
H45   H     H_    0.588262 0.427482 0.735932 0.172731
H46   H     H_    0.554059 0.181340 0.825846 0.183628
H47   H     H_    0.522105 0.279703 0.954466 0.161004
H48   H     H_    0.663757 0.540235 0.939598 0.144288
H49   H     H_    0.269653 0.756826 0.578106 0.121101
H50   H     H_    0.387483 0.847817 0.718198 0.109640
H51   H     H_    0.384654 0.752859 0.778660 0.105766
H52   H     H_    0.143689 0.474189 0.558621 0.115559
H53   H     H_    0.147095 0.570543 0.499442 0.115927
H54   H     H_    0.172144 0.586371 0.775668 0.176805
H55   H     H_    0.326548 0.414130 0.727246 0.178566
H56   H     H_    0.371226 0.519109 0.927706 0.160834
H57   H     H_    0.381156 0.420354 0.973735 0.190803
H58   H     H_    0.230601 0.542147 0.395581 0.206759
H59   H     H_    0.104841 0.257584 0.742652 0.162027
H60   H     H_    0.330593 0.651813 0.410203 0.191866
H61   H     H_    0.249363 0.654834 0.319315 0.203879
O1    O     O_3   0.500000 0.500000 0.500000 -0.487778
O2    O     O_R   0.383400 0.560740 0.616060 -0.643171
O3    O     O_R   0.555060 0.439270 0.322940 -0.640329
O4    O     O_R   0.383950 0.268380 0.445700 -0.636126
O5    O     O_R   0.677590 0.731610 0.615290 -0.602348
O6    O     O_3   0.997750 0.500010 0.002220 -0.485330
O7    O     O_R   0.942690 0.560750 0.179280 -0.653564
O8    O     O_R   0.114340 0.439270 0.886160 -0.645773
O9    O     O_R   0.820160 0.268410 0.886930 -0.576641
O10   O     O_R   0.113800 0.731630 0.056520 -0.631695
O11   O     O_R   0.819390 0.439310 0.886160 -0.623560
O12   O     O_R   0.383400 0.268380 0.323710 -0.653341
O13   O     O_R   0.115110 0.560720 0.179280 -0.663198
O14   O     O_R   0.941380 0.560750 0.885620 -0.651662
O15   O     O_R   0.115110 0.439270 0.057830 -0.610878
O16   O     O_R   0.942690 0.268390 0.886930 -0.664653
O17   O     O_R   0.114340 0.731630 0.178520 -0.651735
O18   O     O_R   0.820160 0.439310 0.057830 -0.640759
O19   O     O_R   0.113800 0.560730 0.885620 -0.644663
O20   O     O_R   0.555060 0.731630 0.615290 -0.652109
O21   O     O_R   0.383950 0.439280 0.616600 -0.647062
O22   O     O_R   0.677590 0.560710 0.444390 -0.646079
O23   O     O_R   0.556370 0.439260 0.616600 -0.643088
O24   O     O_R   0.382640 0.439290 0.322940 -0.602517
O25   O     O_R   0.678360 0.560700 0.616060 -0.638755
O26   O     O_R   0.382640 0.560750 0.444390 -0.658856
Zn1   Zn    Zn3+2 0.456040 0.586770 0.543190 0.953102
Zn2   Zn    Zn3+2 0.456820 0.413240 0.543960 0.976797
Zn3   Zn    Zn3+2 0.631110 0.586750 0.543190 0.991822
Zn4   Zn    Zn3+2 0.456040 0.413240 0.369660 0.978228
Zn5   Zn    Zn3+2 0.041710 0.413240 0.959030 0.962585
Zn6   Zn    Zn3+2 0.866640 0.413270 0.959030 1.004324
Zn7   Zn    Zn3+2 0.040930 0.586780 0.958260 0.965608
Zn8   Zn    Zn3+2 0.041710 0.586770 0.132560 0.936991
O27   O     O_3   0.383887 0.480361 0.198014 -0.613123
C91   C     C_3   0.465694 0.540557 0.189497 -0.366610
H62   H     H_    0.520570 0.600310 0.255125 0.160019
H63   H     H_    0.458720 0.576901 0.158805 0.161663
H64   H     H_    0.484829 0.489097 0.145209 0.236096
O28   O     O_3   0.596687 0.901531 0.615022 -0.610898
C92   C     C_3   0.507746 0.874062 0.601198 -0.332182
H65   H     H_    0.502471 0.933253 0.657761 0.147021
H66   H     H_    0.461830 0.797685 0.589638 0.216754
H67   H     H_    0.485415 0.866984 0.540561 0.172496
O29   O     O_3   0.662207 0.105980 0.828280 -0.592581
C93   C     C_3   0.617064 0.057866 0.869888 -0.367695
H68   H     H_    0.643718 0.020079 0.880365 0.132082
H69   H     H_    0.544074 0.001258 0.830988 0.155292
H70   H     H_    0.624263 0.117911 0.936477 0.197549
O30   O     O_3   0.797021 0.901493 0.791539 -0.555151
C94   C     C_3   0.804613 0.895236 0.864259 -0.301354
H71   H     H_    0.740050 0.828863 0.853993 0.142211
H72   H     H_    0.825471 0.968172 0.928787 0.149093
H73   H     H_    0.857300 0.882116 0.868547 0.193120
O31   O     O_3   0.481255 0.144571 0.410987 -0.622186
C95   C     C_3   0.498616 0.070403 0.389851 -0.378222
H74   H     H_    0.434944 0.992080 0.358348 0.159780
H75   H     H_    0.542506 0.092848 0.449687 0.162577
H76   H     H_    0.534879 0.065973 0.340946 0.201907
O32   O     O_3   0.944836 0.845185 0.694473 -0.757471
H77   H     H_    0.977861 0.868358 0.659201 0.336968
O33   O     O_3   0.645302 0.250786 0.730071 -0.602013
C96   C     C_3   0.576301 0.144030 0.672676 -0.379193
H78   H     H_    0.508028 0.127704 0.662807 0.154623
H79   H     H_    0.581596 0.102700 0.697952 0.207543
H80   H     H_    0.585260 0.113166 0.606484 0.192372
O34   O     O_3   0.568497 0.467852 0.027382 -0.839920
H81   H     H_    0.594373 0.538004 0.042585 0.319666
O35   O     O_3   0.121915 0.310934 0.087905 -0.775086
H82   H     H_    0.175817 0.322118 0.069776 0.345369
O36   O     O_3   0.250168 0.212788 0.899968 -0.602063
C97   C     C_3   0.312304 0.264103 0.982708 -0.316469
H83   H     H_    0.304720 0.321516 0.038156 0.201325
H84   H     H_    0.382195 0.300200 0.981081 0.201161
H85   H     H_    0.298559 0.206046 0.995451 0.197645
O37   O     O_3   0.094427 0.134750 0.781924 -0.611301
C98   C     C_3   0.049741 0.125637 0.842759 -0.225909
H86   H     H_    0.035082 0.184839 0.876441 0.168706
H87   H     H_    0.088842 0.130414 0.893220 0.217055
H88   H     H_    0.984490 0.048410 0.805503 0.230245

loop_
_geom_bond_atom_site_label_1
_geom_bond_atom_site_label_2
_ccdc_geom_bond_type
C2    H60   S    
C66   C68   A    
C24   H24   S    
C8    C13   S    
C39   H35   S    
O12   Zn4   S    
C53   C63   S    
C41   C42   A    
C41   H37   S    
C74   H55   S    
C35   C36   A    
O15   Zn5   S    
C9    C14   S    
C25   H28   S    
C98   H87   S    
C72   C85   S    
C14   H13   S    
C97   H85   S    
C7    C8    S    
C2    C6    S    
C19   H22   S    
C44   H41   S    
C7    C11   S    
C8    H5    S    
C26   C27   A    
C62   C63   A    
C94   H72   S    
O10   Zn7   S    
C28   C29   A    
O6    Zn8   S    
C69   C70   A    
C17   H17   S    
C46   H42   S    
C71   C76   A    
C51   H44   S    
C96   H79   S    
C5    O35   S    
C77   C83   A    
C2    H58   S    
C6    H1    S    
O3    Zn4   S    
C59   H46   S    
C58   C63   A    
C1    O4    A    
C73   C74   A    
C45   O23   A    
C10   H8    S    
C87   O17   A    
O18   Zn6   S    
C91   H64   S    
C46   C47   A    
C16   H14   S    
C23   O21   A    
C31   C32   A    
C44   C46   A    
C16   C17   S    
C22   H20   S    
C94   H73   S    
C29   H31   S    
C13   C86   S    
C95   H76   S    
O20   Zn1   S    
C68   H52   S    
C51   C57   A    
O6    Zn7   S    
C64   C70   A    
C93   H68   S    
O36   C97   S    
O9    Zn6   S    
C67   O27   S    
C42   H38   S    
C60   H47   S    
C72   C73   A    
C20   C34   S    
C77   C79   A    
O27   C91   S    
C66   C76   S    
C70   H49   S    
C15   H12   S    
C18   C22   S    
C21   C22   S    
C90   O15   A    
C7    O28   S    
C26   O31   S    
C67   C78   S    
C48   C49   A    
C12   O5    A    
O35   H82   S    
O4    Zn2   S    
C81   C82   A    
C12   O20   A    
C4    C90   S    
C56   O26   A    
C34   O3    A    
C74   C75   A    
C56   O24   A    
C51   C52   A    
C33   C43   S    
C92   H67   S    
C48   H43   S    
C52   C88   S    
C61   O34   S    
C97   H83   S    
C4    C6    S    
O13   Zn8   S    
C94   H71   S    
C45   O25   A    
C39   C40   A    
C84   O7    A    
O31   C95   S    
C80   C81   A    
C79   H57   S    
O22   Zn3   S    
C25   C26   A    
C53   C54   A    
C32   C87   S    
C17   C21   S    
C89   H40   S    
C95   H74   S    
C90   O13   A    
C60   C61   A    
C92   H66   S    
O1    Zn3   S    
C93   H70   S    
C75   C76   A    
C59   C60   A    
C4    C78   S    
C29   C30   A    
C50   H39   S    
O16   Zn5   S    
C47   C57   S    
C65   H51   S    
C3    C56   S    
C8    O29   S    
O19   Zn7   S    
O37   C98   S    
C21   C84   S    
O25   Zn3   S    
C16   C20   S    
C40   H36   S    
C49   O32   S    
C3    C89   S    
C55   C57   A    
C15   H11   S    
C89   H2    S    
C10   H10   S    
C9    C11   S    
C9    H6    S    
C45   C55   S    
C9    O30   S    
C16   H15   S    
O26   Zn1   S    
C6    H61   S    
O21   Zn2   S    
C40   C41   A    
C62   H48   S    
C93   H69   S    
C65   C66   A    
C19   H21   S    
C23   O2    A    
C13   C15   S    
C28   H30   S    
C84   O18   A    
C49   C50   A    
C38   C43   A    
C79   C80   A    
O6    Zn5   S    
O7    Zn8   S    
C38   H34   S    
C52   C53   A    
C14   H7    S    
C64   H50   S    
C44   C50   A    
C25   C30   A    
C7    H4    S    
C54   C55   A    
C36   C37   A    
O17   Zn8   S    
C81   O37   S    
C87   O10   A    
C96   H78   S    
O14   Zn7   S    
C19   C24   S    
C68   C69   A    
C3    C67   S    
C86   O16   A    
C31   H32   S    
C23   C75   S    
O29   C93   S    
C47   C48   A    
C96   H80   S    
C18   H25   S    
C5    H3    S    
C11   C12   S    
C97   H84   S    
C30   H27   S    
C67   H9    S    
C69   H53   S    
O6    Zn6   S    
C85   O19   A    
O30   C94   S    
O24   Zn4   S    
C10   C15   S    
C88   O11   A    
C32   C33   A    
C19   C20   S    
C35   H33   S    
C2    C3    S    
C58   C59   A    
O11   Zn6   S    
C88   O14   A    
C34   O22   A    
C17   H16   S    
C92   H65   S    
O5    Zn3   S    
O34   H81   S    
C38   C39   A    
O1    Zn2   S    
O33   C96   S    
C4    C5    S    
C77   H56   S    
C64   C65   A    
C22   H26   S    
C98   H86   S    
C33   C35   A    
C78   H29   S    
C78   H19   S    
C18   C20   S    
O8    Zn5   S    
O1    Zn1   S    
C61   C62   A    
O28   C92   S    
C18   H18   S    
C91   H63   S    
C82   H59   S    
O2    Zn1   S    
C10   C11   S    
C80   O36   S    
O32   H77   S    
C54   H45   S    
C58   O33   S    
C31   C37   A    
C24   H23   S    
C71   C72   A    
C1    O12   A    
C82   C83   A    
C42   C43   A    
C21   C24   S    
C27   C28   A    
C95   H75   S    
C91   H62   S    
C85   O8    A    
O1    Zn4   S    
C13   C14   S    
C86   O9    A    
O23   Zn2   S    
C73   C83   S    
C98   H88   S    
C5    C89   S    
C27   C37   S    
C1    C36   S    
C71   H54   S    
