data_mof_unit_9890.cif
_audit_creation_date              2012-12-10T17:02:55-0500
_audit_creation_method            fapswitch 2.2
_symmetry_space_group_name_H-M    P1
_symmetry_Int_Tables_number       1
_space_group_crystal_system       triclinic
_cell_length_a                    9.786111
_cell_length_b                    11.029234
_cell_length_c                    13.501822
_cell_angle_alpha                 93.051348
_cell_angle_beta                  82.228941
_cell_angle_gamma                 110.755105
_cell_volume                      1350.18599166

loop_
_atom_site_label
_atom_site_type_symbol
_atom_type_description
_atom_site_fract_x
_atom_site_fract_y
_atom_site_fract_z
_atom_type_partial_charge
C1    C     C_R   0.553554 0.744680 0.511516 0.851135
C2    C     C_R   0.432524 0.457319 0.969094 0.044291
C3    C     C_R   0.474453 0.447796 0.865161 0.033712
C4    C     C_R   0.543675 0.491028 0.034590 0.083578
C5    C     C_R   0.692838 0.516301 0.994644 0.130750
C6    C     C_R   0.727595 0.491988 0.894232 -0.268941
C7    C     C_R   0.615821 0.440129 0.833779 -0.036982
C8    C     C_R   0.511814 0.498904 0.138565 -0.230111
C9    C     C_R   0.768580 0.553949 0.160533 -0.189569
C10   C     C_R   0.372726 0.443826 0.797216 -0.096499
C11   C     C_2   0.581619 0.883081 0.516781 -0.372050
C12   C     C_R   0.420984 0.475771 0.689686 0.809713
C13   C     C_2   0.474866 0.932633 0.545204 0.194867
C14   C     C_2   0.408361 0.115234 0.500355 -0.338426
C15   C     C_2   0.510549 0.068954 0.520088 -0.183036
C16   C     C_2   0.921906 0.489896 0.492086 -0.019978
C17   C     C_2   0.076348 0.507170 0.509724 -0.047760
C18   C     C_R   0.443816 0.254427 0.493414 0.877149
C19   C     C_R   0.577740 0.514812 0.309853 0.802927
C20   C     C_R   0.804249 0.552321 0.057349 -0.149349
C21   C     C_R   0.621583 0.523812 0.201569 -0.063163
C22   C     C_R   0.223678 0.414315 0.833796 -0.234797
C23   C     C_R   0.175834 0.397787 0.936147 0.030815
C24   C     C_R   0.280666 0.426728 0.003199 -0.225517
Cu1   Cu    Cu3+1 0.362000 0.479240 0.482530 0.951920
Cu2   Cu    Cu3+1 0.638000 0.520760 0.517470 0.966714
H1    H     H_    0.855234 0.576074 0.207998 0.165293
H2    H     H_    0.295441 0.051508 0.496536 0.161445
H3    H     H_    0.691372 0.946088 0.486773 0.133017
H4    H     H_    0.123922 0.571351 0.569414 0.150412
H5    H     H_    0.872494 0.422789 0.434302 0.152060
H6    H     H_    0.107314 0.388515 0.399378 0.197281
H7    H     H_    0.894832 0.615339 0.598065 0.197925
H8    H     H_    0.838764 0.496969 0.866669 0.194506
H9    H     H_    0.918358 0.572987 0.026765 0.148733
H10   H     H_    0.401292 0.482638 0.172867 0.157138
H11   H     H_    0.144031 0.402829 0.782296 0.197163
H12   H     H_    0.239409 0.419549 0.081404 0.170838
H13   H     H_    0.624699 0.133194 0.518621 0.171162
N1    N     N_2   0.845330 0.551960 0.543750 -0.273707
N2    N     N_2   0.154690 0.448120 0.456210 -0.286895
O1    O     O_R   0.426290 0.668220 0.490680 -0.581203
O2    O     O_R   0.659360 0.703290 0.520190 -0.569272
O3    O     O_R   0.326580 0.473880 0.629020 -0.585276
O4    O     O_R   0.559660 0.508940 0.658530 -0.580833
O5    O     O_R   0.340640 0.296710 0.479810 -0.571386
O6    O     O_R   0.573710 0.331780 0.509320 -0.567064
O7    O     O_R   0.440340 0.491060 0.341470 -0.579415
O8    O     O_R   0.673420 0.526120 0.370980 -0.588347
C25   C     C_3   0.325402 0.855554 0.602700 -0.365770
C26   C     C_3   0.290720 0.923737 0.699241 -0.808953
H14   H     H_    0.380212 0.943613 0.747062 0.265071
H15   H     H_    0.276192 0.015774 0.683498 0.278893
H16   H     H_    0.186429 0.860059 0.741201 0.233936
H17   H     H_    0.236987 0.838631 0.554439 0.192257
H18   H     H_    0.321558 0.759880 0.626756 0.207395
C27   C     C_2   0.016132 0.349664 0.973479 0.813644
O9    O     O_2   0.924883 0.311679 0.914622 -0.594000
O10   O     O_R   0.969314 0.343830 0.076286 -0.788815
H19   H     H_    0.858116 0.306982 0.092214 0.340401
C28   C     C_2   0.635725 0.344465 0.757174 0.934600
O11   O     O_2   0.758403 0.355501 0.715172 -0.593541
O12   O     O_R   0.514238 0.236352 0.738354 -0.783786
H20   H     H_    0.544822 0.169182 0.696944 0.333700

loop_
_geom_bond_atom_site_label_1
_geom_bond_atom_site_label_2
_ccdc_geom_bond_type
Cu1   O1    S    
C2    C4    A    
H6    N2    S    
C6    C7    A    
C12   O4    A    
C14   C18   S    
C9    C20   A    
C24   H12   S    
C25   H17   S    
C1    C11   S    
C4    C8    A    
C23   C24   A    
C26   H16   S    
C15   H13   S    
C18   O6    A    
C28   O12   S    
C2    C3    A    
O10   H19   S    
C12   O3    A    
C3    C10   A    
C10   C22   A    
C16   H5    S    
C17   H4    S    
C11   C13   D    
Cu1   O7    S    
Cu2   N1    S    
C27   O9    D    
C5    C6    A    
C10   C12   S    
Cu2   O6    S    
C16   N1    D    
C7    C28   S    
C18   O5    A    
Cu1   O3    S    
C19   C21   S    
C1    O2    A    
Cu2   O2    S    
C25   C26   S    
C3    C7    A    
C13   C15   S    
C2    C24   A    
C28   O11   D    
C17   N2    D    
C27   O10   S    
H7    N1    S    
C11   H3    S    
O12   H20   S    
C9    C21   A    
C6    H8    S    
C1    O1    A    
C26   H14   S    
C9    H1    S    
C23   C27   S    
C8    H10   S    
Cu2   O8    S    
Cu1   N2    S    
C5    C20   A    
C19   O8    A    
C14   C15   D    
C16   C17   S    
Cu2   O4    S    
C14   H2    S    
Cu1   Cu2   S    
C19   O7    A    
C22   H11   S    
Cu1   O5    S    
C20   H9    S    
C22   C23   A    
C25   H18   S    
C13   C25   S    
C4    C5    A    
C26   H15   S    
C8    C21   A    
