data_mof_unit_25925.cif
_audit_creation_date              2012-12-11T17:01:34-0500
_audit_creation_method            fapswitch 2.2
_symmetry_space_group_name_H-M    P1
_symmetry_Int_Tables_number       1
_space_group_crystal_system       triclinic
_cell_length_a                    15.076076
_cell_length_b                    14.919717
_cell_length_c                    14.964333
_cell_angle_alpha                 109.551878
_cell_angle_beta                  109.220225
_cell_angle_gamma                 109.738358
_cell_volume                      2587.96048925

loop_
_atom_site_label
_atom_site_type_symbol
_atom_type_description
_atom_site_fract_x
_atom_site_fract_y
_atom_site_fract_z
_atom_type_partial_charge
C1    C     C_R   0.998252 0.802067 0.090029 -0.041425
C2    C     C_R   0.677968 0.212887 0.670591 0.053516
C3    C     C_R   0.065825 0.504221 0.700317 0.001788
C4    C     C_R   0.675011 0.501275 0.965515 0.075484
C5    C     C_R   0.066836 0.592835 0.312862 -0.094702
C6    C     C_R   0.210178 0.409445 0.906675 -0.111943
C7    C     C_R   0.297679 0.803698 0.205842 -0.191320
C8    C     C_R   0.959165 0.232549 0.048633 0.270183
C9    C     C_R   0.063584 0.248542 0.970847 -0.130554
C10   C     C_R   0.206741 0.807625 0.296651 0.276685
C11   C     C_R   0.967304 0.409704 0.225308 -0.130518
C12   C     C_R   0.781049 0.247621 0.685363 -0.121898
C13   C     C_R   0.303071 0.592914 0.003213 -0.084403
C14   C     C_R   0.045396 0.502848 0.326328 0.038044
C15   C     C_R   0.303493 0.501876 0.939902 0.088502
C16   C     C_R   0.300386 0.870492 0.297615 0.003508
C17   C     C_R   0.044502 0.216690 0.042976 0.030457
C18   C     C_3   0.474418 0.399582 0.842741 -0.412716
C19   C     C_3   0.369913 0.396345 0.837549 0.206402
C20   C     C_3   0.564467 0.500292 0.049549 -0.448692
C21   C     C_3   0.578355 0.608159 0.950163 0.217447
C22   C     C_3   0.575013 0.502530 0.950681 0.170228
C23   C     C_R   0.099697 0.593813 0.796426 0.292290
C24   C     C_3   0.399523 0.502128 0.937790 0.169254
C25   C     C_3   0.464156 0.505227 0.044508 -0.452528
C26   C     C_3   0.471738 0.605140 0.937598 -0.382039
C27   C     C_R   0.582506 0.103504 0.469544 0.153776
C28   C     C_R   0.580855 0.156598 0.565032 0.035372
C29   C     C_R   0.481345 0.143908 0.556333 -0.180573
C30   C     C_R   0.384485 0.059145 0.459844 -0.141281
C31   C     C_R   0.387990 0.985287 0.374502 0.043207
C32   C     C_R   0.487447 0.018450 0.375740 0.164497
C33   C     C_3   0.541794 0.954567 0.346762 -0.491637
C34   C     C_R   0.684960 0.409059 0.949788 -0.143680
C35   C     C_3   0.645873 0.048260 0.449443 -0.489725
C36   C     C_R   0.125652 0.608579 0.524163 0.129051
C37   C     C_R   0.088179 0.510486 0.431778 0.038630
C38   C     C_R   0.074374 0.416904 0.440852 -0.183991
C39   C     C_R   0.079469 0.416821 0.535581 -0.105654
C40   C     C_R   0.097531 0.510675 0.620398 0.058952
C41   C     C_R   0.129010 0.608302 0.616674 0.248855
C42   C     C_3   0.085923 0.686021 0.635640 -0.470348
C43   C     C_3   0.083161 0.686949 0.534747 -0.492823
C44   C     C_R   0.064922 0.040561 0.156349 0.067153
C45   C     C_R   0.003341 0.410764 0.699168 -0.175369
C46   C     C_R   0.089595 0.977228 0.087139 0.002184
C47   C     C_R   0.151502 0.030587 0.048897 -0.227662
C48   C     C_R   0.162326 0.130557 0.057910 0.313864
C49   C     C_R   0.103101 0.172128 0.097942 -0.002971
C50   C     C_R   0.082830 0.141805 0.171365 0.112291
C51   C     C_3   0.030361 0.150506 0.241104 -0.533015
C52   C     C_3   0.004733 0.034204 0.217363 0.197795
C53   C     C_R   0.777664 0.593348 0.034272 -0.089333
C54   C     C_R   0.685094 0.237677 0.771959 -0.070450
C55   C     C_R   0.084770 0.799344 0.994569 -0.105881
C56   C     C_R   0.053521 0.862231 0.053920 0.089616
H1    H     H_    0.979238 0.832317 0.153147 0.147468
H2    H     H_    0.180538 0.324820 0.849967 0.127032
H3    H     H_    0.115240 0.240077 0.937932 0.169351
H4    H     H_    0.928677 0.326206 0.208485 0.142335
H5    H     H_    0.361147 0.678821 0.039940 0.131025
H6    H     H_    0.469403 0.321891 0.837447 0.142378
H7    H     H_    0.480478 0.400761 0.771098 0.233283
H8    H     H_    0.324786 0.322410 0.841005 0.117218
H9    H     H_    0.558103 0.423696 0.049568 0.208447
H10   H     H_    0.412965 0.434692 0.049008 0.224829
H11   H     H_    0.426828 0.604300 0.861440 0.252608
H12   H     H_    0.637553 0.571239 0.128007 0.182776
H13   H     H_    0.309791 0.047646 0.458412 0.198249
H14   H     H_    0.512207 0.877220 0.349983 0.207908
H15   H     H_    0.544562 0.945558 0.271072 0.210668
H16   H     H_    0.675771 0.024667 0.511386 0.212045
H17   H     H_    0.707957 0.093271 0.432561 0.202805
H18   H     H_    0.046829 0.341023 0.370898 0.131683
H19   H     H_    0.057445 0.340459 0.536731 0.161222
H20   H     H_    0.003745 0.647568 0.626428 0.198092
H21   H     H_    0.999194 0.649958 0.467483 0.218262
H22   H     H_    0.622118 0.327083 0.918776 0.106614
H23   H     H_    0.142733 0.768181 0.552636 0.237872
H24   H     H_    0.189650 0.995434 0.009983 0.176079
H25   H     H_    0.092913 0.211577 0.328230 0.181730
H26   H     H_    0.959062 0.160563 0.214105 0.250782
H27   H     H_    0.045789 0.029363 0.290941 0.123130
H28   H     H_    0.978064 0.326944 0.644323 0.122988
H29   H     H_    0.800264 0.678965 0.071947 0.137736
H30   H     H_    0.617588 0.212359 0.785942 0.101067
H31   H     H_    0.140749 0.826207 0.967068 0.154274
N1    N     N_R   0.995640 0.706130 0.053910 -0.051565
N2    N     N_R   0.153680 0.443190 0.946090 -0.048902
N3    N     N_R   0.208920 0.706140 0.152110 -0.054544
N4    N     N_R   0.947120 0.293870 0.002870 -0.067915
N5    N     N_R   0.004360 0.293870 0.946090 -0.065098
N6    N     N_R   0.151690 0.706140 0.208890 -0.072261
N7    N     N_R   0.945990 0.443210 0.152110 -0.046772
N8    N     N_R   0.210060 0.556810 0.002870 -0.039831
N9    N     N_R   0.848310 0.293860 0.791110 -0.043327
N10   N     N_R   0.054010 0.556790 0.847890 -0.064267
N11   N     N_R   0.789940 0.443190 0.997130 -0.042078
N12   N     N_R   0.997630 0.443170 0.791110 -0.056969
N13   N     N_R   0.846320 0.556810 0.053910 -0.044035
N14   N     N_R   0.791080 0.293860 0.847890 -0.038001
N15   N     N_R   0.052880 0.706130 0.997130 -0.044838
N16   N     N_R   0.002370 0.556830 0.208890 -0.039429
Ni1   Ni    Ni4+2 0.999010 0.630300 0.130220 0.259032
Ni2   Ni    Ni4+2 0.000990 0.369700 0.869780 0.229225
Ni3   Ni    Ni4+2 0.130280 0.630280 0.000000 0.249164
Ni4   Ni    Ni4+2 0.869720 0.369720 0.000000 0.270991
H32   H     H_    0.346099 0.829818 0.170389 0.150045
Br1   Br    Br    0.829002 0.120063 0.023321 -0.489003
Br2   Br    Br    0.136036 0.859750 0.369636 -0.666134
Br3   Br    Br    0.276203 0.375640 0.697300 -0.581335
H33   H     H_    0.805384 0.242380 0.624550 0.109967
H34   H     H_    0.645516 0.682254 0.029798 0.121363
Br4   Br    Br    0.606052 0.628261 0.837502 -0.448187
H35   H     H_    0.493500 0.682446 0.006847 0.152356
H36   H     H_    0.489484 0.582117 0.117282 0.187486
H37   H     H_    0.477664 0.191444 0.626421 0.142343
Br5   Br    Br    0.237605 0.727784 0.876890 -0.637127
H38   H     H_    0.145752 0.768027 0.710065 0.250875
Br6   Br    Br    0.272387 0.211433 0.033178 -0.613623
Br7   Br    Br    0.849476 0.929053 0.123194 -0.478608
H39   H     H_    0.126961 0.676988 0.374164 0.157148

loop_
_geom_bond_atom_site_label_1
_geom_bond_atom_site_label_2
_ccdc_geom_bond_type
N14   Ni4   S    
N9    Ni2   S    
C5    N16   A    
C4    C53   A    
C41   C42   S    
C6    H2    S    
C54   N14   A    
C3    C23   A    
C21   C26   S    
C2    C12   A    
C23   Br5   S    
C48   Br6   S    
C16   C31   S    
C55   N15   A    
C28   C29   A    
C29   C30   A    
C13   N8    A    
C26   H11   S    
C36   C37   A    
C1    C56   A    
C24   C26   S    
C38   C39   A    
C11   C14   A    
C42   H38   S    
C20   C25   S    
C43   H23   S    
N13   Ni1   S    
N6    Ni1   S    
C18   C19   S    
C26   H35   S    
N10   N12   A    
C6    C15   A    
C31   C32   A    
N15   Ni3   S    
C39   H19   S    
C51   H25   S    
C44   C52   S    
C1    N1    A    
C21   C22   S    
C36   C41   A    
C47   H24   S    
C9    N5    A    
N1    Ni1   S    
C44   C46   A    
C53   N13   A    
N12   Ni2   S    
C4    C34   A    
N7    Ni4   S    
C51   C52   S    
N4    Ni4   S    
C20   H9    S    
C24   C25   S    
N3    Ni3   S    
C21   H34   S    
C2    C54   A    
C25   H36   S    
C17   C49   S    
N4    N5    A    
C54   H30   S    
C18   H6    S    
C10   N6    A    
C27   C35   S    
C7    N3    A    
C29   H37   S    
C5    H39   S    
C3    C45   A    
N11   Ni4   S    
C9    H3    S    
N2    N8    A    
C52   H27   S    
C37   C38   A    
N8    Ni3   S    
C1    H1    S    
C4    C22   S    
C52   Br7   S    
C47   C48   A    
C19   H8    S    
C55   C56   A    
C50   C51   S    
C8    N4    A    
C15   C24   S    
C51   H26   S    
C5    C14   A    
C33   H14   S    
N10   Ni3   S    
C11   N7    A    
C9    C17   A    
C40   C41   A    
C23   N10   A    
C20   C22   S    
C35   H16   S    
N11   N13   A    
C13   C15   A    
C45   N12   A    
C45   H28   S    
C42   C43   S    
N2    Ni2   S    
C11   H4    S    
C12   H33   S    
C30   H13   S    
N3    N6    A    
C38   H18   S    
C44   C50   A    
C46   C47   A    
C35   H17   S    
C27   C32   A    
C18   C22   S    
C20   H12   S    
C7    C16   A    
C25   H10   S    
C21   Br4   S    
C3    C40   S    
N1    N15   A    
C19   Br3   S    
C43   H21   S    
C6    N2    A    
N7    N16   A    
C42   H20   S    
C8    C17   A    
C32   C33   S    
C34   N11   A    
C53   H29   S    
C19   C24   S    
C10   C16   A    
C8    Br1   S    
C34   H22   S    
C14   C37   S    
C30   C31   A    
C48   C49   A    
C33   C35   S    
C10   Br2   S    
C55   H31   S    
C18   H7    S    
C33   H15   S    
C39   C40   A    
N5    Ni2   S    
C13   H5    S    
C49   C50   A    
C46   C56   S    
N16   Ni1   S    
C7    H32   S    
C12   N9    A    
C36   C43   S    
C2    C28   S    
N9    N14   A    
C27   C28   A    
