data_mof_unit_9376.cif
_audit_creation_date              2012-12-10T17:46:14-0500
_audit_creation_method            fapswitch 2.2
_symmetry_space_group_name_H-M    P1
_symmetry_Int_Tables_number       1
_space_group_crystal_system       triclinic
_cell_length_a                    14.150325
_cell_length_b                    10.64384
_cell_length_c                    9.928799
_cell_angle_alpha                 89.916757
_cell_angle_beta                  89.959219
_cell_angle_gamma                 91.589393
_cell_volume                      1494.83676371

loop_
_atom_site_label
_atom_site_type_symbol
_atom_type_description
_atom_site_fract_x
_atom_site_fract_y
_atom_site_fract_z
_atom_type_partial_charge
C1    C     C_R   0.502434 0.260675 0.500124 0.845107
C2    C     C_R   0.439172 0.061998 0.429570 -0.215006
C3    C     C_R   0.439359 0.933612 0.429284 -0.198807
C4    C     C_R   0.329292 0.499676 0.500072 0.875766
C5    C     C_R   0.509451 0.872038 0.499411 -0.102105
C6    C     C_R   0.376708 0.334530 0.140188 -0.147160
C7    C     C_R   0.316407 0.252534 0.070266 -0.195863
C8    C     C_R   0.316431 0.252476 0.930911 -0.186372
C9    C     C_R   0.376784 0.334384 0.860557 -0.143094
C10   C     C_R   0.439431 0.418328 0.927919 0.165247
C11   C     C_R   0.439419 0.418394 0.072431 0.169303
C12   C     C_1   0.772192 0.500022 0.499968 -0.213291
C13   C     C_R   0.558016 0.578150 0.071238 -0.108485
C14   C     C_R   0.557993 0.578128 0.928246 -0.109020
C15   C     C_R   0.502850 0.739480 0.499881 0.865531
C16   C     C_R   0.670713 0.500338 0.499944 0.864906
C17   C     C_1   0.227796 0.499368 0.500176 -0.210410
C18   C     C_1   0.142526 0.499216 0.500233 -0.012975
C19   C     C_1   0.042615 0.499229 0.500253 0.003826
C20   C     C_1   0.957349 0.499389 0.500213 0.003182
C21   C     C_1   0.857448 0.499707 0.500094 -0.013113
C22   C     C_R   0.658583 0.136625 0.630325 -0.173148
C23   C     C_R   0.731387 0.073636 0.693664 -0.131945
C24   C     C_R   0.731520 0.942940 0.693413 -0.138908
C25   C     C_R   0.658874 0.874740 0.629762 -0.189297
C26   C     C_R   0.583664 0.937111 0.566699 0.096597
C27   C     C_R   0.583493 0.068895 0.566994 0.098837
C28   C     C_R   0.509095 0.128616 0.499966 -0.089138
H1    H     H_    0.383174 0.109656 0.377297 0.138558
H2    H     H_    0.269124 0.188893 0.124767 0.146421
H3    H     H_    0.269145 0.188806 0.876760 0.150173
H4    H     H_    0.605326 0.642097 0.874453 0.144930
H5    H     H_    0.371904 0.329134 0.753790 0.199312
H6    H     H_    0.662798 0.238135 0.629836 0.152034
H7    H     H_    0.788432 0.126454 0.741768 0.139579
H8    H     H_    0.788652 0.894232 0.741343 0.137406
H9    H     H_    0.663292 0.773517 0.628757 0.140699
H10   H     H_    0.383476 0.881860 0.376874 0.154232
H11   H     H_    0.605383 0.642111 0.124647 0.148689
H12   H     H_    0.371710 0.329399 0.246942 0.194381
N1    N     N_R   0.499190 0.498800 0.142780 -0.115180
N2    N     N_R   0.499160 0.498720 0.857170 -0.114655
O1    O     O_R   0.500000 0.316780 0.614690 -0.634818
O2    O     O_R   0.499990 0.316750 0.385360 -0.622355
O3    O     O_R   0.373720 0.500010 0.614690 -0.608942
O4    O     O_R   0.373710 0.499990 0.385360 -0.613897
O5    O     O_R   0.500010 0.683250 0.614640 -0.608506
O6    O     O_R   0.500000 0.683220 0.385310 -0.605821
O7    O     O_R   0.626290 0.500010 0.614640 -0.608577
O8    O     O_R   0.626280 0.499990 0.385310 -0.587314
Zn1   Zn    Zn3+2 0.500010 0.500020 0.653130 0.927227
Zn2   Zn    Zn3+2 0.499990 0.499980 0.346870 0.936257

loop_
_geom_bond_atom_site_label_1
_geom_bond_atom_site_label_2
_ccdc_geom_bond_type
C1    C28   S    
O8    Zn2   S    
C23   C24   A    
C6    C7    A    
C5    C26   A    
C10   N2    A    
C2    C28   A    
C9    C10   A    
C1    O2    A    
C19   C20   T    
C15   O5    A    
N2    Zn1   S    
C14   N2    A    
O2    Zn2   S    
C13   N1    A    
C17   C18   T    
C25   C26   A    
C3    C5    A    
C7    C8    A    
C7    H2    S    
C4    O4    A    
C13   C14   A    
C24   C25   A    
C9    H5    S    
O1    Zn1   S    
C26   C27   A    
C24   H8    S    
C15   O6    A    
C2    H1    S    
C4    C17   S    
C16   O8    A    
C11   N1    A    
C23   H7    S    
C22   C27   A    
C6    C11   A    
C22   H6    S    
C6    H12   S    
C13   H11   S    
C5    C15   S    
C10   C11   A    
O3    Zn1   S    
C4    O3    A    
O4    Zn2   S    
O6    Zn2   S    
C16   O7    A    
C18   C19   S    
C27   C28   A    
C22   C23   A    
C2    C3    A    
N1    Zn2   S    
C25   H9    S    
C20   C21   S    
C8    H3    S    
C12   C21   T    
C1    O1    A    
O5    Zn1   S    
C12   C16   S    
C3    H10   S    
C14   H4    S    
C8    C9    A    
O7    Zn1   S    
