data_mof_unit_51424.cif
_audit_creation_date              2012-12-10T16:59:22-0500
_audit_creation_method            fapswitch 2.2
_symmetry_space_group_name_H-M    P1
_symmetry_Int_Tables_number       1
_space_group_crystal_system       triclinic
_cell_length_a                    19.357118
_cell_length_b                    10.933717
_cell_length_c                    9.673763
_cell_angle_alpha                 90.667573
_cell_angle_beta                  89.847449
_cell_angle_gamma                 90.544844
_cell_volume                      2047.16778992

loop_
_atom_site_label
_atom_site_type_symbol
_atom_type_description
_atom_site_fract_x
_atom_site_fract_y
_atom_site_fract_z
_atom_type_partial_charge
C1    C     C_R   0.501671 0.265196 0.498900 0.791658
C2    C     C_R   0.291614 0.500861 0.499660 -0.033088
C3    C     C_R   0.930179 0.493060 0.506378 0.443941
C4    C     C_R   0.070379 0.495269 0.502034 0.400316
C5    C     C_R   0.815657 0.476358 0.631583 0.480692
C6    C     C_R   0.743193 0.472174 0.624886 -0.299267
C7    C     C_R   0.708421 0.496260 0.501397 -0.088459
C8    C     C_R   0.746514 0.517508 0.380852 -0.192678
C9    C     C_R   0.818361 0.515485 0.383972 -0.239503
C10   C     C_R   0.853790 0.494564 0.508185 -0.030581
C11   C     C_2   0.503375 0.931370 0.390613 -0.261681
C12   C     C_R   0.367478 0.500407 0.500058 0.782534
C13   C     C_2   0.490543 0.865691 0.503357 -0.301825
C14   C     C_2   0.489547 0.063890 0.389619 0.375871
C15   C     C_2   0.514331 0.133771 0.495479 0.225000
C16   C     C_2   0.463417 0.422679 0.921557 0.517250
C17   C     C_2   0.471286 0.414273 0.076786 -0.185379
C18   C     C_R   0.498551 0.734584 0.500863 0.850615
C19   C     C_R   0.632534 0.498731 0.499942 0.790797
C20   C     C_R   0.255051 0.534798 0.619148 -0.215686
C21   C     C_R   0.183149 0.532425 0.619912 -0.154179
C22   C     C_R   0.146442 0.497745 0.500434 0.064231
C23   C     C_R   0.183073 0.465917 0.379953 -0.160579
C24   C     C_R   0.255096 0.467331 0.379645 -0.179947
Cu1   Cu    Cu3+1 0.500010 0.500020 0.638630 0.964305
Cu2   Cu    Cu3+1 0.499990 0.499980 0.361370 0.944843
H1    H     H_    0.281975 0.564006 0.711912 0.136398
H2    H     H_    0.535504 0.553235 0.895287 0.144299
H3    H     H_    0.156407 0.558726 0.713959 0.151724
H4    H     H_    0.713903 0.447934 0.716224 0.154073
H5    H     H_    0.720856 0.535620 0.283955 0.159971
H6    H     H_    0.846253 0.531534 0.288612 0.164937
H7    H     H_    0.521174 0.886824 0.296390 0.157577
N1    N     N_R   0.033941 0.481985 0.383042 -0.240965
N2    N     N_R   0.965201 0.481166 0.385179 -0.247494
N3    N     N_R   0.966781 0.505788 0.625000 -0.196565
N4    N     N_R   0.035416 0.506993 0.623029 -0.251442
N5    N     N_2   0.499250 0.498660 0.846910 -0.315515
N6    N     N_2   0.499230 0.498630 0.153040 -0.304678
O1    O     O_R   0.500010 0.321960 0.617040 -0.523887
O2    O     O_R   0.499990 0.321920 0.382900 -0.554773
O3    O     O_R   0.400160 0.500010 0.617110 -0.571629
O4    O     O_R   0.400130 0.499970 0.382960 -0.570753
O5    O     O_R   0.500010 0.678080 0.617100 -0.579829
O6    O     O_R   0.499990 0.678040 0.382960 -0.580183
O7    O     O_R   0.599870 0.500030 0.617040 -0.591128
O8    O     O_R   0.599840 0.499990 0.382890 -0.575593
H8    H     H_    0.471083 0.908122 0.597633 0.186688
O9    O     O_3   0.451237 0.120184 0.285463 -0.631715
C25   C     C_3   0.432295 0.043464 0.172620 0.046044
H9    H     H_    0.385086 0.082374 0.126612 0.158837
H10   H     H_    0.416654 0.949472 0.203216 0.145913
C26   C     C_3   0.489006 0.043822 0.061510 -0.354580
H11   H     H_    0.497697 0.138827 0.025379 0.241110
H12   H     H_    0.538345 0.010895 0.105093 0.201343
C27   C     C_3   0.469071 0.963104 0.937940 -0.870727
H13   H     H_    0.460936 0.867061 0.971012 0.239427
H14   H     H_    0.511193 0.965148 0.859840 0.281720
H15   H     H_    0.421058 0.997048 0.889476 0.257358
O10   O     O_3   0.551864 0.081575 0.602068 -0.635961
C28   C     C_3   0.620367 0.128463 0.605644 0.067986
H16   H     H_    0.642220 0.106421 0.708361 0.172590
H17   H     H_    0.623109 0.229819 0.597543 0.129928
C29   C     C_3   0.665363 0.068042 0.493849 -0.393439
H18   H     H_    0.664193 0.967182 0.507073 0.233573
H19   H     H_    0.644751 0.089034 0.389774 0.208170
C30   C     C_3   0.739951 0.113998 0.502214 -0.872965
H20   H     H_    0.742318 0.214320 0.485618 0.264576
H21   H     H_    0.771319 0.068128 0.420919 0.258320
H22   H     H_    0.762346 0.093118 0.604778 0.259484
O11   O     O_3   0.420826 0.337870 0.855901 -0.573555
C31   C     C_3   0.350594 0.368455 0.877426 0.089342
H23   H     H_    0.324249 0.358708 0.776163 0.182843
H24   H     H_    0.342339 0.464666 0.913862 0.107709
C32   C     C_3   0.315644 0.278992 0.976635 -0.406283
H25   H     H_    0.323585 0.183840 0.938610 0.228315
H26   H     H_    0.338416 0.288702 0.081207 0.213433
C33   C     C_3   0.238250 0.302961 0.987777 -0.899911
H27   H     H_    0.229052 0.397413 0.026751 0.249933
H28   H     H_    0.214386 0.237432 0.061051 0.260939
H29   H     H_    0.213207 0.290919 0.885248 0.265325
H30   H     H_    0.450606 0.334076 0.127228 0.202417
H31   H     H_    0.514182 0.578720 0.106715 0.183023
H32   H     H_    0.156206 0.438740 0.286306 0.152639
H33   H     H_    0.282155 0.440915 0.285956 0.154595
O12   O     O_3   0.849400 0.446568 0.753136 -0.599395
C34   C     C_3   0.832628 0.528720 0.862653 0.052758
H34   H     H_    0.840161 0.479591 0.961296 0.171872
H35   H     H_    0.777900 0.558753 0.863070 0.119321
C35   C     C_3   0.880792 0.640730 0.862170 -0.327693
H36   H     H_    0.935168 0.610642 0.872742 0.250971
H37   H     H_    0.875482 0.689713 0.762787 0.214383
C36   C     C_3   0.863942 0.728577 0.981042 -0.915274
H38   H     H_    0.810114 0.761809 0.971801 0.253283
H39   H     H_    0.899709 0.808502 0.978009 0.265740
H40   H     H_    0.870091 0.682325 0.081838 0.255842

loop_
_geom_bond_atom_site_label_1
_geom_bond_atom_site_label_2
_ccdc_geom_bond_type
C34   H34   S    
C36   H38   S    
C15   O10   S    
C2    C12   S    
C19   O7    A    
C7    C8    A    
C26   H11   S    
C13   C18   S    
N3    N4    A    
N1    N2    A    
C12   O4    A    
Cu1   O1    S    
C5    C6    A    
C11   C14   S    
C33   H28   S    
Cu2   N6    S    
C14   O9    S    
C27   H13   S    
C17   H30   S    
C17   N6    D    
C28   H17   S    
C12   O3    A    
C1    O1    A    
C8    C9    A    
Cu2   O6    S    
C25   H10   S    
C23   C24   A    
C1    C15   S    
H2    N5    S    
C24   H33   S    
C9    H6    S    
C36   H39   S    
C21   C22   A    
C16   O11   S    
C31   C32   S    
Cu1   O5    S    
Cu2   O4    S    
C26   H12   S    
C4    N1    A    
C25   C26   S    
C23   H32   S    
C2    C20   A    
C30   H20   S    
C29   C30   S    
C11   H7    S    
C31   H24   S    
O12   C34   S    
C16   C17   S    
Cu1   Cu2   S    
C21   H3    S    
O10   C28   S    
C30   H21   S    
C29   H19   S    
C28   C29   S    
C32   H25   S    
C18   O5    A    
Cu1   N5    S    
C4    C22   S    
C35   H37   S    
C14   C15   D    
C3    N2    A    
C25   H9    S    
C20   C21   A    
C32   H26   S    
Cu2   O8    S    
C5    O12   S    
C1    O2    A    
C6    H4    S    
C36   H40   S    
C7    C19   S    
C34   H35   S    
C2    C24   A    
C18   O6    A    
C35   C36   S    
C9    C10   A    
C26   C27   S    
C33   H27   S    
C8    H5    S    
C31   H23   S    
Cu1   O3    S    
C13   H8    S    
C6    C7    A    
C20   H1    S    
C27   H15   S    
C30   H22   S    
C29   H18   S    
N6    H31   S    
C5    C10   A    
C3    C10   S    
C11   C13   D    
C33   H29   S    
C35   H36   S    
C3    N3    A    
C27   H14   S    
C19   O8    A    
C28   H16   S    
C32   C33   S    
O11   C31   S    
C4    N4    A    
O9    C25   S    
C34   C35   S    
C22   C23   A    
Cu1   O7    S    
Cu2   O2    S    
C16   N5    D    
