data_mof_unit_33231.cif
_audit_creation_date              2012-12-10T17:56:16-0500
_audit_creation_method            fapswitch 2.2
_symmetry_space_group_name_H-M    P1
_symmetry_Int_Tables_number       1
_space_group_crystal_system       triclinic
_cell_length_a                    13.131736
_cell_length_b                    10.876255
_cell_length_c                    9.585674
_cell_angle_alpha                 89.207073
_cell_angle_beta                  95.590483
_cell_angle_gamma                 94.550323
_cell_volume                      1358.23304594

loop_
_atom_site_label
_atom_site_type_symbol
_atom_type_description
_atom_site_fract_x
_atom_site_fract_y
_atom_site_fract_z
_atom_type_partial_charge
C1    C     C_R   0.505688 0.262376 0.502255 0.813955
C2    C     C_R   0.488962 0.736041 0.497492 0.800491
C3    C     C_R   0.474622 0.869310 0.493660 -0.186739
C4    C     C_R   0.508206 0.126812 0.506303 -0.144673
C5    C     C_R   0.439345 0.413580 0.066716 0.096112
C6    C     C_R   0.564839 0.581895 0.932347 0.071943
C7    C     C_R   0.432681 0.420842 0.917700 0.059986
C8    C     C_R   0.560885 0.587084 0.080851 -0.000292
C9    C     C_R   0.300901 0.505179 0.474101 0.791039
C10   C     C_R   0.698785 0.492320 0.525357 0.799500
C11   C     C_R   0.810478 0.474703 0.539086 -0.173099
C12   C     C_R   0.187359 0.502328 0.458940 -0.194762
C13   C     C_R   0.027602 0.430877 0.323927 -0.041391
C14   C     C_R   0.971353 0.476598 0.690408 -0.047880
C15   C     C_R   0.131887 0.469574 0.329122 -0.049128
C16   C     C_R   0.863546 0.459109 0.673255 -0.075759
C17   C     C_R   0.133351 0.520012 0.577110 -0.075180
C18   C     C_R   0.866195 0.472058 0.419198 -0.066763
C19   C     C_R   0.026505 0.486732 0.569819 0.056375
C20   C     C_R   0.972777 0.459637 0.437449 0.026974
C21   C     C_R   0.518177 0.063906 0.380901 -0.051057
C22   C     C_R   0.462604 0.930857 0.619026 -0.056892
C23   C     C_R   0.486234 0.938224 0.369266 -0.057168
C24   C     C_R   0.485432 0.058380 0.628516 -0.055604
Cu1   Cu    Cu3+1 0.500000 0.500020 0.640660 0.985140
Cu2   Cu    Cu3+1 0.500000 0.499980 0.359340 0.969812
N1    N     N_R   0.500030 0.500030 0.852080 -0.243145
N2    N     N_R   0.499970 0.499970 0.147920 -0.247679
O1    O     O_R   0.499990 0.319660 0.618740 -0.584361
O2    O     O_R   0.500010 0.680340 0.381260 -0.635258
O3    O     O_R   0.499990 0.319630 0.381170 -0.578053
O4    O     O_R   0.500010 0.680370 0.618830 -0.546493
O5    O     O_R   0.349000 0.499990 0.599490 -0.631584
O6    O     O_R   0.651000 0.500010 0.400510 -0.635319
O7    O     O_R   0.348990 0.499960 0.361920 -0.540054
O8    O     O_R   0.651010 0.500040 0.638080 -0.593190
C25   C     C_2   0.818341 0.496780 0.275229 0.337026
H1    H     H_    0.753710 0.437594 0.229221 0.099267
O9    O     O_2   0.853712 0.581613 0.205336 -0.494130
C26   C     C_2   0.182331 0.600595 0.692912 0.369375
H2    H     H_    0.245545 0.571816 0.763624 0.126840
O10   O     O_2   0.149359 0.700249 0.712005 -0.488671
C27   C     C_1   0.809385 0.415680 0.792010 0.370127
N3    N     N_1   0.766795 0.380414 0.886794 -0.221759
C28   C     C_1   0.175943 0.494963 0.197814 0.511727
N4    N     N_1   0.210957 0.517071 0.093244 -0.228741
C29   C     C_2   0.979553 0.342991 0.212774 0.470853
H3    H     H_    0.902295 0.301250 0.218212 0.059360
O11   O     O_2   0.027382 0.309230 0.119151 -0.500517
C30   C     C_2   0.025498 0.471170 0.833640 0.445411
H4    H     H_    0.094632 0.422940 0.851600 0.131475
O12   O     O_2   0.994484 0.523340 0.931392 -0.481426
C31   C     C_1   0.571131 0.124499 0.269551 0.358667
N5    N     N_1   0.614046 0.172568 0.181281 -0.233832
C32   C     C_1   0.421644 0.864698 0.736883 0.366991
N6    N     N_1   0.388762 0.812260 0.830547 -0.198287
C33   C     C_2   0.449478 0.883758 0.228909 0.452149
H5    H     H_    0.399877 0.799074 0.221570 0.093025
O13   O     O_2   0.468643 0.935250 0.119487 -0.505513
C34   C     C_2   0.493648 0.114183 0.770464 0.440137
H6    H     H_    0.431734 0.097151 0.837140 0.063976
O14   O     O_2   0.572531 0.172776 0.817013 -0.485168
C35   C     C_2   0.389406 0.301404 0.128689 0.536939
H7    H     H_    0.403102 0.211822 0.089010 0.055255
O15   O     O_2   0.326904 0.306252 0.213744 -0.512934
C36   C     C_2   0.643762 0.660106 0.865578 0.567484
H8    H     H_    0.717296 0.625451 0.853366 0.061755
O16   O     O_2   0.629589 0.766219 0.831044 -0.483417
C37   C     C_2   0.348941 0.345060 0.834665 0.283474
H9    H     H_    0.356510 0.312654 0.731561 0.144092
O17   O     O_2   0.266595 0.318996 0.881157 -0.567494
C38   C     C_2   0.624703 0.686091 0.162370 0.431306
H10   H     H_    0.655628 0.672592 0.268383 0.138379
O18   O     O_2   0.642935 0.788116 0.111926 -0.473004

loop_
_geom_bond_atom_site_label_1
_geom_bond_atom_site_label_2
_ccdc_geom_bond_type
C12   C17   A    
C7    C37   S    
C30   O12   D    
C27   N3    T    
C35   O15   D    
C11   C18   A    
C25   H1    S    
C14   C16   A    
Cu1   N1    S    
C5    N2    A    
C6    N1    A    
C11   C16   A    
C36   O16   D    
C19   C20   A    
C12   C15   A    
C1    O3    A    
C2    O2    A    
C1    C4    S    
C17   C26   S    
C13   C29   S    
Cu1   O4    S    
C26   O10   D    
C2    C3    S    
C37   O17   D    
Cu2   O3    S    
C29   O11   D    
C14   C30   S    
C31   N5    T    
C9    O5    A    
C4    C21   A    
C16   C27   S    
C33   H5    S    
C22   C32   S    
C23   C33   S    
C21   C31   S    
C2    O4    A    
C34   O14   D    
C26   H2    S    
C17   C19   A    
C18   C25   S    
C10   O8    A    
Cu2   O2    S    
C18   C20   A    
C13   C15   A    
C21   C23   A    
Cu1   O1    S    
C37   H9    S    
C4    C24   A    
C9    C12   S    
C22   C24   A    
C32   N6    T    
C33   O13   D    
C8    C38   S    
C10   C11   S    
C15   C28   S    
Cu1   O8    S    
C9    O7    A    
C35   H7    S    
C10   O6    A    
Cu2   O7    S    
C6    C36   S    
C7    N1    A    
C5    C35   S    
C8    N2    A    
C38   O18   D    
C36   H8    S    
C5    C7    A    
C3    C23   A    
C34   H6    S    
C3    C22   A    
C6    C8    A    
C24   C34   S    
C1    O1    A    
C13   C20   A    
C30   H4    S    
Cu1   Cu2   S    
C28   N4    T    
Cu2   N2    S    
C14   C19   A    
Cu2   O6    S    
C29   H3    S    
Cu1   O5    S    
C38   H10   S    
C25   O9    D    
