data_mof_unit_47338.cif
_audit_creation_date              2012-12-10T18:59:17-0500
_audit_creation_method            fapswitch 2.2
_symmetry_space_group_name_H-M    P1
_symmetry_Int_Tables_number       1
_space_group_crystal_system       triclinic
_cell_length_a                    9.833298
_cell_length_b                    10.65698
_cell_length_c                    16.904069
_cell_angle_alpha                 89.406931
_cell_angle_beta                  94.570547
_cell_angle_gamma                 89.910501
_cell_volume                      1765.69963849

loop_
_atom_site_label
_atom_site_type_symbol
_atom_type_description
_atom_site_fract_x
_atom_site_fract_y
_atom_site_fract_z
_atom_type_partial_charge
C1    C     C_R   0.499619 0.260256 0.497515 0.872712
C2    C     C_R   0.078473 0.415784 0.545538 -0.330127
C3    C     C_R   0.517526 0.501891 0.653182 0.900594
C4    C     C_R   0.482195 0.504158 0.346976 0.899734
C5    C     C_R   0.528710 0.504653 0.739295 -0.156018
C6    C     C_R   0.470417 0.504900 0.261173 -0.124501
C7    C     C_R   0.430028 0.565460 0.782544 0.140008
C8    C     C_R   0.554737 0.581580 0.216965 0.141641
C9    C     C_R   0.443174 0.555036 0.864821 -0.281374
C10   C     C_R   0.548148 0.566750 0.135150 -0.281963
C11   C     C_R   0.551017 0.486742 0.904035 0.176274
C12   C     C_R   0.500491 0.739706 0.502782 0.843193
C13   C     C_R   0.458790 0.479117 0.097581 0.175459
C14   C     C_R   0.651798 0.434255 0.861476 0.652180
C15   C     C_R   0.369110 0.411214 0.141060 0.662881
C16   C     C_R   0.640233 0.442258 0.779360 -0.345513
C17   C     C_R   0.375382 0.423450 0.222750 -0.357186
C18   C     C_R   0.405757 0.061795 0.445252 0.146956
C19   C     C_R   0.595170 0.938048 0.555201 0.145768
C20   C     C_3   0.648337 0.682009 0.253750 -0.370279
C21   C     C_3   0.567526 0.790305 0.285625 -0.821226
C22   C     C_3   0.312635 0.644639 0.745026 -0.355757
C23   C     C_R   0.406391 0.932852 0.451104 -0.223869
C24   C     C_3   0.363177 0.765946 0.708711 -0.825993
C25   C     C_3   0.309670 0.123616 0.381792 -0.402502
C26   C     C_3   0.163887 0.126903 0.406757 -0.761854
C27   C     C_3   0.694375 0.876138 0.617126 -0.409110
C28   C     C_3   0.839000 0.875884 0.590270 -0.765396
C29   C     C_R   0.593340 0.067166 0.550006 -0.211882
C30   C     C_R   0.500534 0.872078 0.504499 -0.095156
C31   C     C_R   0.499697 0.127837 0.496242 -0.095662
C32   C     C_R   0.065537 0.584785 0.454784 0.689783
C33   C     C_R   0.934539 0.415569 0.545516 0.686844
C34   C     C_R   0.921718 0.585010 0.455118 -0.324810
F1    F     F_    0.758917 0.372233 0.899552 -0.625092
F2    F     F_    0.278419 0.330686 0.104369 -0.629011
F3    F     F_    0.127018 0.669562 0.409239 -0.660274
F4    F     F_    0.873090 0.331228 0.591380 -0.664104
H1    H     H_    0.610943 0.625186 0.099977 0.183434
H2    H     H_    0.502978 0.835873 0.236543 0.266953
H3    H     H_    0.501210 0.756741 0.331353 0.247751
H4    H     H_    0.719663 0.641570 0.301152 0.225490
H5    H     H_    0.713958 0.721842 0.209159 0.212116
H6    H     H_    0.421836 0.821944 0.754762 0.259268
H7    H     H_    0.429104 0.745697 0.660420 0.238327
H8    H     H_    0.274721 0.822441 0.683634 0.255039
H9    H     H_    0.248351 0.590794 0.700611 0.232230
H10   H     H_    0.242191 0.671737 0.790277 0.204832
H11   H     H_    0.125052 0.030070 0.414444 0.262201
H12   H     H_    0.370120 0.601883 0.899223 0.184260
H13   H     H_    0.159776 0.178005 0.463403 0.266279
H14   H     H_    0.096651 0.175748 0.360287 0.248383
H15   H     H_    0.342482 0.220162 0.367673 0.202294
H16   H     H_    0.311367 0.070591 0.325560 0.213991
H17   H     H_    0.908751 0.826995 0.635481 0.241477
H18   H     H_    0.841760 0.826280 0.532998 0.266033
H19   H     H_    0.875809 0.973492 0.582970 0.263911
H20   H     H_    0.693759 0.927856 0.673890 0.211089
H21   H     H_    0.664518 0.778607 0.631036 0.209528
H22   H     H_    0.716987 0.396903 0.746898 0.228142
H23   H     H_    0.308343 0.366843 0.256264 0.186559
H24   H     H_    0.336203 0.879251 0.411871 0.200037
H25   H     H_    0.663090 0.120951 0.589402 0.199057
H26   H     H_    0.862234 0.653644 0.419825 0.181899
H27   H     H_    0.138366 0.348593 0.581955 0.195111
H28   H     H_    0.638971 0.861137 0.312899 0.251204
N1    N     N_2   0.563291 0.478155 0.987146 -0.122861
N2    N     N_2   0.450326 0.466728 0.014847 -0.119886
N3    N     N_R   0.857210 0.499970 0.500020 -0.150869
N4    N     N_R   0.142790 0.500030 0.499980 -0.154557
O1    O     O_R   0.614620 0.316750 0.500010 -0.568268
O2    O     O_R   0.385380 0.683250 0.499990 -0.569601
O3    O     O_R   0.385290 0.316780 0.500000 -0.622884
O4    O     O_R   0.614710 0.683220 0.500000 -0.620713
O5    O     O_R   0.627460 0.498830 0.616130 -0.584815
O6    O     O_R   0.372540 0.501170 0.383870 -0.577840
O7    O     O_R   0.398130 0.498850 0.616130 -0.623097
O8    O     O_R   0.601870 0.501150 0.383870 -0.625393
Zn1   Zn    Zn3+2 0.653130 0.499980 0.500000 0.994566
Zn2   Zn    Zn3+2 0.346870 0.500020 0.500000 0.993953

loop_
_geom_bond_atom_site_label_1
_geom_bond_atom_site_label_2
_ccdc_geom_bond_type
C22   H10   S    
C29   H25   S    
C12   O4    A    
C21   H28   S    
C2    H27   S    
O1    Zn1   S    
C28   H18   S    
C28   H19   S    
C8    C20   S    
C24   H7    S    
C25   H15   S    
C11   C14   A    
C1    C31   S    
C15   C17   A    
C16   H22   S    
C5    C16   A    
C17   H23   S    
C23   H24   S    
C19   C27   S    
C33   N3    A    
C22   H9    S    
C12   O2    A    
C18   C25   S    
C28   H17   S    
C11   N1    S    
N4    Zn2   S    
N1    N2    D    
C23   C30   A    
C25   H16   S    
C4    C6    S    
C26   H11   S    
C14   F1    S    
C5    C7    A    
C32   N4    A    
O8    Zn1   S    
C6    C8    A    
C25   C26   S    
C10   C13   A    
C18   C23   A    
C10   H1    S    
C32   C34   A    
C4    O8    A    
C26   H14   S    
C34   H26   S    
C1    O1    A    
C32   F3    S    
C9    C11   A    
C34   N3    A    
C21   H3    S    
C2    C33   A    
C8    C10   A    
O4    Zn1   S    
C13   C15   A    
C24   H6    S    
C14   C16   A    
N3    Zn1   S    
C19   C29   A    
C15   F2    S    
C20   H5    S    
C3    O5    A    
O7    Zn2   S    
C7    C9    A    
C6    C17   A    
C12   C30   S    
C9    H12   S    
O6    Zn2   S    
C3    C5    S    
C27   H20   S    
C20   H4    S    
C7    C22   S    
C33   F4    S    
C1    O3    A    
C24   H8    S    
O2    Zn2   S    
C27   H21   S    
C26   H13   S    
C21   H2    S    
O3    Zn2   S    
C22   C24   S    
C4    O6    A    
C20   C21   S    
C29   C31   A    
C27   C28   S    
C18   C31   A    
C2    N4    A    
C19   C30   A    
O5    Zn1   S    
C13   N2    S    
C3    O7    A    
