data_mof_unit_10025.cif
_audit_creation_date              2012-12-10T18:16:58-0500
_audit_creation_method            fapswitch 2.2
_symmetry_space_group_name_H-M    P1
_symmetry_Int_Tables_number       1
_space_group_crystal_system       triclinic
_cell_length_a                    15.896867
_cell_length_b                    15.890224
_cell_length_c                    14.663855
_cell_angle_alpha                 90.312392
_cell_angle_beta                  90.323424
_cell_angle_gamma                 89.90794
_cell_volume                      3704.04115927

loop_
_atom_site_label
_atom_site_type_symbol
_atom_type_description
_atom_site_fract_x
_atom_site_fract_y
_atom_site_fract_z
_atom_type_partial_charge
C1    C     C_R   0.500401 0.339893 0.499911 0.827909
C2    C     C_3   0.083398 0.497529 0.499662 0.112169
C3    C     C_3   0.971736 0.572277 0.483604 0.187768
C4    C     C_3   0.916569 0.495421 0.502257 0.128688
C5    C     C_3   0.027074 0.521278 0.416957 -0.247613
C6    C     C_3   0.972172 0.443650 0.437971 0.123647
C7    C     C_1   0.174755 0.498028 0.499269 -0.031617
C8    C     C_1   0.825184 0.496384 0.501775 -0.024170
C9    C     C_3   0.595032 0.047986 0.552438 0.835858
C10   C     C_3   0.502815 0.051613 0.409886 -0.493482
C11   C     C_3   0.501876 0.953565 0.403154 0.345938
C12   C     C_R   0.339506 0.499703 0.499720 0.829197
C13   C     C_1   0.500883 0.749765 0.500853 -0.189925
C14   C     C_3   0.508581 0.083185 0.511236 0.049342
C15   C     C_3   0.586205 0.948111 0.550228 -0.508756
C16   C     C_3   0.504272 0.917664 0.502435 0.151761
C17   C     C_3   0.428778 0.950858 0.558925 -0.571168
C18   C     C_3   0.428309 0.050382 0.563705 0.810819
C19   C     C_1   0.502148 0.825224 0.501445 0.001589
C20   C     C_1   0.506281 0.175362 0.505119 0.029233
C21   C     C_1   0.503177 0.250594 0.500725 -0.183312
C22   C     C_3   0.410957 0.485174 0.051373 -0.374723
C23   C     C_R   0.499972 0.660212 0.500226 0.824611
C24   C     C_3   0.556743 0.424797 0.055364 -0.324504
C25   C     C_3   0.559746 0.423207 0.947589 0.376305
C26   C     C_3   0.500611 0.497462 0.091938 0.153638
C27   C     C_3   0.411823 0.487781 0.944943 -0.396286
C28   C     C_3   0.503051 0.497516 0.908089 0.159091
C29   C     C_3   0.535178 0.582706 0.948117 -0.400766
C30   C     C_3   0.536407 0.581359 0.054584 -0.371893
C31   C     C_1   0.502263 0.500123 0.804853 0.051814
C32   C     C_1   0.499002 0.498085 0.195090 0.086102
C33   C     C_R   0.660482 0.499415 0.500322 0.828468
C34   C     C_3   0.973349 0.471783 0.584563 -0.226386
C35   C     C_3   0.028758 0.420321 0.518420 0.211073
C36   C     C_1   0.250084 0.498786 0.499232 -0.179434
C37   C     C_1   0.749873 0.497766 0.501108 -0.178559
C38   C     C_3   0.028934 0.550808 0.565588 -0.233967
Cu1   Cu    Cu3+1 0.499890 0.499910 0.589920 0.961790
Cu2   Cu    Cu3+1 0.500110 0.500090 0.410080 0.975828
H1    H     H_    0.556467 0.077419 0.370398 0.203751
H2    H     H_    0.428618 0.918492 0.625225 0.156337
H3    H     H_    0.585613 0.924102 0.621397 0.164897
H4    H     H_    0.369527 0.927767 0.527251 0.182569
H5    H     H_    0.381021 0.430726 0.916315 0.156872
H6    H     H_    0.951254 0.450330 0.652230 0.148819
H7    H     H_    0.384923 0.423825 0.074016 0.159246
H8    H     H_    0.621147 0.431514 0.084706 0.153837
H9    H     H_    0.532709 0.363985 0.082030 0.152275
H10   H     H_    0.498756 0.635190 0.081100 0.170143
H11   H     H_    0.602092 0.590160 0.079435 0.160373
H12   H     H_    0.493330 0.634685 0.924882 0.172944
H13   H     H_    0.368389 0.535315 0.077591 0.169833
H14   H     H_    0.372631 0.541738 0.921597 0.173325
H15   H     H_    0.598597 0.598291 0.921790 0.155254
H16   H     H_    0.048627 0.541959 0.348798 0.144462
H17   H     H_    0.052813 0.596591 0.616947 0.143662
H18   H     H_    0.639606 0.913647 0.520284 0.177490
H19   H     H_    0.446317 0.078527 0.375510 0.196547
N1    N     N_1   0.501700 0.501390 0.724970 -0.152441
N2    N     N_1   0.498280 0.498620 0.275030 -0.149559
O1    O     O_R   0.499910 0.379360 0.575970 -0.582058
O2    O     O_R   0.500090 0.379510 0.424100 -0.569286
O3    O     O_R   0.378990 0.499920 0.575920 -0.566681
O4    O     O_R   0.379170 0.500070 0.424050 -0.572657
O5    O     O_R   0.499910 0.620490 0.575900 -0.571090
O6    O     O_R   0.500090 0.620640 0.424030 -0.568444
O7    O     O_R   0.620830 0.499930 0.575950 -0.577044
O8    O     O_R   0.621010 0.500080 0.424080 -0.568067
N3    N     N_3   0.061343 0.336365 0.536878 -0.589388
H20   H     H_    0.009717 0.296184 0.542856 0.225347
H21   H     H_    0.094681 0.316687 0.479341 0.215419
N4    N     N_3   0.576919 0.924921 0.353075 -0.606491
H22   H     H_    0.577562 0.952497 0.288446 0.206837
H23   H     H_    0.573173 0.859979 0.341825 0.233688
N5    N     N_3   0.426099 0.924159 0.353907 -0.596503
H24   H     H_    0.372248 0.953684 0.379233 0.228577
H25   H     H_    0.430079 0.942202 0.285566 0.206993
O9    O     O_3   0.425595 0.090241 0.652194 -0.650884
C39   C     C_3   0.444629 0.042029 0.730625 0.032515
H26   H     H_    0.473184 0.085876 0.781206 0.172818
H27   H     H_    0.493355 0.993292 0.720018 0.163156
C40   C     C_3   0.364389 0.007158 0.773859 -0.384324
H28   H     H_    0.320889 0.060081 0.789468 0.223473
H29   H     H_    0.331630 0.963591 0.726373 0.202855
C41   C     C_3   0.384340 0.959965 0.861711 -0.911981
H30   H     H_    0.426700 0.905876 0.847356 0.253714
H31   H     H_    0.325189 0.935712 0.891630 0.254663
H32   H     H_    0.414985 0.002642 0.912067 0.254719
O10   O     O_3   0.357385 0.079135 0.512101 -0.637051
C42   C     C_3   0.281043 0.077578 0.561315 0.100851
H33   H     H_    0.281276 0.127436 0.614887 0.191523
H34   H     H_    0.270312 0.015241 0.593068 0.121104
C43   C     C_3   0.208424 0.095484 0.495515 -0.361091
H35   H     H_    0.218699 0.157275 0.462182 0.228914
H36   H     H_    0.206648 0.045927 0.441732 0.217070
C44   C     C_3   0.124120 0.097413 0.544811 -0.931916
H37   H     H_    0.111739 0.035755 0.577415 0.255074
H38   H     H_    0.072882 0.110556 0.495090 0.257958
H39   H     H_    0.123993 0.147690 0.597751 0.265357
O11   O     O_3   0.611449 0.068936 0.646250 -0.663139
C45   C     C_3   0.611105 0.154904 0.674228 0.066931
H40   H     H_    0.619959 0.153883 0.749414 0.161481
H41   H     H_    0.549216 0.185357 0.665996 0.170522
C46   C     C_3   0.682670 0.209039 0.635983 -0.333313
H42   H     H_    0.743575 0.176629 0.646057 0.224491
H43   H     H_    0.672915 0.221194 0.562348 0.246667
C47   C     C_3   0.687305 0.294131 0.684791 -0.931466
H44   H     H_    0.626432 0.327972 0.679027 0.277958
H45   H     H_    0.737111 0.333287 0.653482 0.259439
H46   H     H_    0.702780 0.285384 0.758102 0.264916
N6    N     N_3   0.530072 0.340433 0.915178 -0.583867
H47   H     H_    0.525852 0.339516 0.844006 0.212572
H48   H     H_    0.470776 0.326342 0.941286 0.200897
N7    N     N_3   0.647957 0.431515 0.918736 -0.580178
H49   H     H_    0.676150 0.484583 0.947989 0.201637
H50   H     H_    0.651288 0.437189 0.847859 0.216169
N8    N     N_3   0.940660 0.383761 0.370571 -0.597475
H51   H     H_    0.992648 0.359772 0.335672 0.210317
H52   H     H_    0.905078 0.417692 0.323198 0.225484
N9    N     N_3   0.938882 0.655967 0.464533 -0.588893
H53   H     H_    0.990445 0.696066 0.457486 0.215452
H54   H     H_    0.906272 0.676157 0.522360 0.213617
O12   O     O_3   0.661523 0.081714 0.497580 -0.641273
C48   C     C_3   0.734772 0.032396 0.482246 0.055262
H55   H     H_    0.778354 0.072241 0.442315 0.160776
H56   H     H_    0.721485 0.978930 0.435506 0.162712
C49   C     C_3   0.782991 0.006270 0.569120 -0.352677
H57   H     H_    0.811650 0.062474 0.601590 0.212602
H58   H     H_    0.741325 0.975992 0.619495 0.244099
C50   C     C_3   0.853624 0.944699 0.546097 -0.943508
H59   H     H_    0.827296 0.886204 0.515546 0.259380
H60   H     H_    0.888552 0.927975 0.609258 0.258596
H61   H     H_    0.898259 0.973639 0.497438 0.259435

loop_
_geom_bond_atom_site_label_1
_geom_bond_atom_site_label_2
_ccdc_geom_bond_type
C2    C35   S    
C30   H11   S    
C1    C21   S    
O11   C45   S    
Cu1   O7    S    
C14   C18   S    
C5    H16   S    
C2    C7    S    
C4    C8    S    
C50   H61   S    
C49   H57   S    
N6    H48   S    
C44   H37   S    
C27   H14   S    
C47   H44   S    
C25   C28   S    
C26   C32   S    
Cu1   O3    S    
C46   H43   S    
Cu2   O2    S    
C23   O5    A    
C28   C29   S    
C24   C26   S    
C32   N2    T    
C11   N5    S    
C25   N7    S    
C7    C36   T    
C5    C6    S    
C12   O3    A    
C41   H31   S    
C15   C16   S    
C9    O12   S    
C6    C35   S    
C13   C23   S    
C45   C46   S    
C34   C35   S    
N4    H22   S    
C23   O6    A    
N8    H51   S    
C25   N6    S    
C17   H2    S    
C35   N3    S    
C18   O9    S    
N7    H50   S    
Cu2   O6    S    
C48   C49   S    
N3    H20   S    
C34   H6    S    
C12   C36   S    
C33   O8    A    
C27   H5    S    
C22   H7    S    
C30   H10   S    
C1    O1    A    
C10   H1    S    
N4    H23   S    
C43   H35   S    
C39   C40   S    
C1    O2    A    
N6    H47   S    
C44   H38   S    
C22   H13   S    
C46   C47   S    
C4    C34   S    
Cu2   O8    S    
C13   C19   T    
C18   O10   S    
C14   C20   S    
N5    H24   S    
C3    C38   S    
C39   H27   S    
C11   N4    S    
Cu1   Cu2   S    
C41   H30   S    
C16   C17   S    
C29   H15   S    
C43   C44   S    
C3    C5    S    
C33   C37   S    
Cu2   N2    S    
C24   H8    S    
C31   N1    T    
C45   H41   S    
C9    C14   S    
C29   C30   S    
C42   H34   S    
C38   H17   S    
C11   C16   S    
C2    C38   S    
C40   H28   S    
C17   C18   S    
C24   C25   S    
C43   H36   S    
N9    H53   S    
C4    C6    S    
C40   H29   S    
C26   C30   S    
Cu2   O4    S    
C10   C14   S    
C48   H55   S    
C15   H18   S    
C2    C5    S    
C8    C37   T    
C3    C4    S    
C49   C50   S    
C42   H33   S    
C44   H39   S    
C12   O4    A    
C24   H9    S    
Cu1   O1    S    
C34   C38   S    
C28   C31   S    
N5    H25   S    
C39   H26   S    
C50   H60   S    
C41   H32   S    
C49   H58   S    
C46   H42   S    
C47   H46   S    
C22   C27   S    
C10   H19   S    
C9    C15   S    
C17   H4    S    
C15   H3    S    
C42   C43   S    
O10   C42   S    
C16   C19   S    
Cu1   N1    S    
Cu1   O5    S    
C47   H45   S    
C45   H40   S    
N8    H52   S    
N9    H54   S    
C10   C11   S    
O9    C39   S    
C3    N9    S    
C40   C41   S    
C20   C21   T    
C9    O11   S    
C22   C26   S    
C27   C28   S    
C48   H56   S    
N3    H21   S    
N7    H49   S    
C6    N8    S    
C50   H59   S    
C33   O7    A    
O12   C48   S    
C29   H12   S    
