data_mof_unit_63898.cif
_audit_creation_date              2012-12-10T20:11:55-0500
_audit_creation_method            fapswitch 2.2
_symmetry_space_group_name_H-M    P1
_symmetry_Int_Tables_number       1
_space_group_crystal_system       triclinic
_cell_length_a                    13.631889
_cell_length_b                    18.492861
_cell_length_c                    19.174583
_cell_angle_alpha                 89.309427
_cell_angle_beta                  89.844312
_cell_angle_gamma                 83.005658
_cell_volume                      4797.44669613

loop_
_atom_site_label
_atom_site_type_symbol
_atom_type_description
_atom_site_fract_x
_atom_site_fract_y
_atom_site_fract_z
_atom_type_partial_charge
C1    C     C_R   0.501872 0.499383 0.634558 1.017191
C2    C     C_R   0.501595 0.500380 0.365243 0.978610
C3    C     C_R   0.480637 0.444060 0.250595 0.517829
C4    C     C_R   0.577500 0.545310 0.739182 0.503807
C5    C     C_R   0.514680 0.499910 0.289573 -0.392379
C6    C     C_R   0.518012 0.496770 0.709569 -0.328452
C7    C     C_R   0.602351 0.424597 0.036413 -0.064656
C8    C     C_R   0.543531 0.553907 0.962385 -0.071796
C9    C     C_R   0.603952 0.424716 0.963929 -0.176950
C10   C     C_R   0.541638 0.553748 0.034492 -0.189099
C11   C     C_R   0.573001 0.489207 0.926888 0.200097
C12   C     C_R   0.569089 0.488856 0.071740 0.186963
C13   C     C_R   0.466437 0.278133 0.442883 -0.233786
C14   C     C_R   0.552124 0.721729 0.450423 -0.261729
C15   C     C_R   0.466249 0.202373 0.440878 0.605413
C16   C     C_R   0.552233 0.797505 0.448580 0.603519
C17   C     C_R   0.498138 0.158778 0.499095 -0.267601
C18   C     C_R   0.500872 0.841132 0.499753 -0.261037
C19   C     C_R   0.530969 0.193834 0.558781 0.233612
C20   C     C_R   0.449162 0.806003 0.552282 0.237769
C21   C     C_R   0.533356 0.269643 0.556760 0.746503
C22   C     C_R   0.448454 0.730063 0.549832 0.768890
C23   C     C_R   0.685921 0.487006 0.499975 0.897732
C24   C     C_R   0.314077 0.512998 0.500040 0.897334
C25   C     C_R   0.589604 0.030368 0.501061 0.403994
C26   C     C_R   0.411101 0.969510 0.486287 0.401272
C27   C     C_R   0.589855 0.954301 0.505159 0.479674
C28   C     C_R   0.409575 0.045651 0.489619 0.477466
C29   C     C_R   0.500717 0.922575 0.496777 -0.252804
C30   C     C_R   0.499066 0.077347 0.496073 -0.249566
C31   C     C_1   0.210329 0.522959 0.500095 -0.110750
C32   C     C_1   0.789661 0.477060 0.499980 -0.106903
C33   C     C_2   0.018749 0.531447 0.500166 -0.128418
C34   C     C_2   0.981234 0.468596 0.500012 -0.140353
C35   C     C_1   0.877417 0.470647 0.499992 0.054320
C36   C     C_1   0.122569 0.529389 0.500138 0.052430
C37   C     C_R   0.569158 0.550817 0.256126 0.383069
C38   C     C_R   0.480940 0.442868 0.751046 0.451343
C39   C     C_R   0.591644 0.543435 0.185877 -0.243507
C40   C     C_R   0.503117 0.439158 0.822302 -0.347044
C41   C     C_R   0.556497 0.488523 0.147200 -0.229325
C42   C     C_R   0.561218 0.488322 0.851534 -0.185797
C43   C     C_R   0.500716 0.438794 0.179628 0.596914
C44   C     C_R   0.599139 0.540903 0.809754 0.584871
H1    H     H_    0.027661 0.416430 0.499881 0.179354
H2    H     H_    0.972322 0.583613 0.500289 0.184840
H3    H     H_    0.634370 0.582212 0.160859 0.216252
H4    H     H_    0.472577 0.399542 0.855418 0.194242
H5    H     H_    0.624763 0.374356 0.064841 0.185233
H6    H     H_    0.517512 0.603717 0.934289 0.182393
H7    H     H_    0.626876 0.374462 0.936720 0.171820
H8    H     H_    0.514592 0.603574 0.061160 0.165649
H9    H     H_    0.440173 0.311040 0.398251 0.262825
H10   H     H_    0.593791 0.688525 0.412017 0.228596
N1    N     N_R   0.499990 0.310560 0.500020 -0.221526
N2    N     N_R   0.500010 0.689440 0.499980 -0.212674
O1    O     O_R   0.500000 0.439160 0.601820 -0.524366
O2    O     O_R   0.500000 0.560840 0.398180 -0.629022
O3    O     O_R   0.500040 0.560790 0.601820 -0.527693
O4    O     O_R   0.499960 0.439210 0.398180 -0.581733
O5    O     O_R   0.640320 0.430440 0.499980 -0.601661
O6    O     O_R   0.359680 0.569560 0.500020 -0.587209
O7    O     O_R   0.640370 0.552060 0.499990 -0.592777
O8    O     O_R   0.359630 0.447940 0.500010 -0.604629
Zn1   Zn    Zn3+2 0.499970 0.418790 0.500000 1.058696
Zn2   Zn    Zn3+2 0.500030 0.581210 0.500000 1.056449
O9    O     O_3   0.561157 0.157038 0.619625 -0.646918
H11   H     H_    0.542081 0.107162 0.618674 0.354716
O10   O     O_3   0.399097 0.842788 0.606473 -0.640212
H12   H     H_    0.416797 0.893006 0.608397 0.356183
F1    F     F_    0.569181 0.302196 0.612534 -0.576359
F2    F     F_    0.396548 0.696698 0.598396 -0.577123
O11   O     O_3   0.680361 0.056438 0.504361 -0.629032
H13   H     H_    0.674172 0.107507 0.487437 0.356388
O12   O     O_3   0.321777 0.943386 0.474609 -0.630652
H14   H     H_    0.333394 0.892008 0.459848 0.354064
O13   O     O_3   0.680024 0.913118 0.517228 -0.618639
H15   H     H_    0.669735 0.863796 0.533845 0.350108
O14   O     O_3   0.317942 0.086890 0.486041 -0.622371
H16   H     H_    0.322456 0.136617 0.503044 0.344828
O15   O     O_3   0.603643 0.606970 0.290986 -0.711685
H17   H     H_    0.544015 0.639523 0.305322 0.351407
O16   O     O_3   0.421717 0.395984 0.721442 -0.685772
H18   H     H_    0.402613 0.361696 0.757765 0.355567
F3    F     F_    0.462493 0.387003 0.142183 -0.597748
F4    F     F_    0.657498 0.587742 0.837401 -0.595657
F5    F     F_    0.425775 0.395648 0.280790 -0.599871
F6    F     F_    0.617262 0.595716 0.699475 -0.579430
F7    F     F_    0.435163 0.171703 0.382229 -0.569234
F8    F     F_    0.602393 0.828147 0.397042 -0.584286

loop_
_geom_bond_atom_site_label_1
_geom_bond_atom_site_label_2
_ccdc_geom_bond_type
C14   N2    A    
C16   F8    S    
C17   C30   S    
C5    C37   A    
C38   O16   S    
C27   C29   A    
O11   H13   S    
C9    H7    S    
C10   H8    S    
O15   H17   S    
C39   C41   A    
O13   H15   S    
C3    C43   A    
C21   F1    S    
C19   C21   A    
C1    O3    A    
O3    Zn2   S    
C2    O4    A    
C33   C36   S    
C11   C42   S    
C15   C17   A    
C34   C35   S    
C28   O14   S    
O2    Zn2   S    
C6    C38   A    
C19   O9    S    
C18   C20   A    
C40   C42   A    
O7    Zn2   S    
C24   O8    A    
C33   H2    S    
C41   C43   A    
C37   O15   S    
C42   C44   A    
C44   F4    S    
C22   F2    S    
N1    Zn1   S    
C33   C34   D    
C13   H9    S    
C7    C12   A    
O6    Zn2   S    
C3    F5    S    
C1    C6    S    
C43   F3    S    
C32   C35   T    
C7    H5    S    
C4    C6    A    
C21   N1    A    
C22   N2    A    
C4    C44   A    
C3    C5    A    
O9    H11   S    
O12   H14   S    
C12   C41   S    
C1    O1    A    
C15   F7    S    
O16   H18   S    
C7    C9    A    
C26   O12   S    
C34   H1    S    
C9    C11   A    
C10   C12   A    
C16   C18   A    
C14   H10   S    
C20   C22   A    
O4    Zn1   S    
C13   C15   A    
C14   C16   A    
C20   O10   S    
C2    C5    S    
C8    H6    S    
C39   H3    S    
C25   C30   A    
C40   H4    S    
C24   O6    A    
O1    Zn1   S    
C27   O13   S    
C2    O2    A    
C4    F6    S    
C25   C27   A    
C26   C28   A    
C23   C32   S    
C28   C30   A    
C24   C31   S    
C37   C39   A    
O8    Zn1   S    
C38   C40   A    
C8    C11   A    
N2    Zn2   S    
C23   O7    A    
C17   C19   A    
C25   O11   S    
O10   H12   S    
C18   C29   S    
O14   H16   S    
O5    Zn1   S    
C23   O5    A    
C26   C29   A    
C8    C10   A    
C31   C36   T    
C13   N1    A    
