data_mof_unit_64570.cif
_audit_creation_date              2012-12-10T16:43:14-0500
_audit_creation_method            fapswitch 2.2
_symmetry_space_group_name_H-M    P1
_symmetry_Int_Tables_number       1
_space_group_crystal_system       triclinic
_cell_length_a                    18.43649
_cell_length_b                    18.433043
_cell_length_c                    18.46413
_cell_angle_alpha                 119.777301
_cell_angle_beta                  90.510052
_cell_angle_gamma                 119.612982
_cell_volume                      4457.96493911

loop_
_atom_site_label
_atom_site_type_symbol
_atom_type_description
_atom_site_fract_x
_atom_site_fract_y
_atom_site_fract_z
_atom_type_partial_charge
C1    C     C_R   0.361418 0.000235 0.138487 0.510484
C2    C     C_2   0.800412 0.996185 0.687936 -0.108718
C3    C     C_2   0.707616 0.924830 0.761454 -0.042632
C4    C     C_R   0.637780 0.998785 0.860527 0.521208
C5    C     C_2   0.695965 0.000528 0.807492 -0.100885
C6    C     C_2   0.280889 0.443647 0.720476 -0.154410
C7    C     C_2   0.192203 0.387799 0.696559 -0.093665
C8    C     C_2   0.337204 0.555979 0.779115 -0.150909
C9    C     C_2   0.304640 0.612288 0.803080 -0.087666
C10   C     C_2   0.280908 0.059789 0.337146 -0.154777
C11   C     C_2   0.192186 0.995752 0.304522 -0.092648
C12   C     C_R   0.129613 0.812441 0.572862 -0.102976
C13   C     C_2   0.337104 0.057540 0.281009 -0.155044
C14   C     C_2   0.304513 0.000983 0.192265 -0.092105
C15   C     C_2   0.779774 0.941774 0.218119 -0.157038
C16   C     C_R   0.638810 0.277034 0.138585 0.509827
C17   C     C_2   0.799376 0.994899 0.306128 -0.089668
C18   C     C_2   0.719668 0.937535 0.162087 -0.156695
C19   C     C_2   0.700553 0.006470 0.195249 -0.089127
C20   C     C_2   0.778967 0.556159 0.219071 -0.157263
C21   C     C_2   0.803526 0.612288 0.307786 -0.094149
C22   C     C_2   0.720434 0.443823 0.162879 -0.157316
C23   C     C_R   0.189829 0.902241 0.657411 0.019649
C24   C     C_2   0.696584 0.387714 0.195483 -0.092764
C25   C     C_R   0.138373 0.277092 0.638843 0.513419
C26   C     C_R   0.861188 0.722966 0.361604 0.509426
C27   C     C_R   0.860821 0.999621 0.637949 0.516857
C28   C     C_R   0.361456 0.722925 0.861208 0.533729
C29   C     C_R   0.138393 0.999610 0.361412 0.512971
C30   C     C_R   0.859541 0.999287 0.360465 0.516179
C31   C     C_R   0.139970 0.998949 0.639111 0.491182
C32   C     C_R   0.640389 0.000705 0.139570 0.511597
C33   C     C_R   0.360080 0.998667 0.858535 0.509945
C34   C     C_R   0.247817 0.902023 0.708937 0.015214
C35   C     C_R   0.247466 0.812426 0.669611 0.003381
C36   C     C_R   0.185468 0.724628 0.586398 -0.117690
C37   C     C_R   0.126453 0.724359 0.539004 -0.135256
C38   C     C_1   0.314151 0.808848 0.706459 0.198622
C39   C     C_1   0.659237 0.831421 0.756776 0.252465
C40   C     C_R   0.305129 0.992675 0.795639 0.023344
C41   C     C_R   0.310754 0.081847 0.824830 -0.147297
C42   C     C_R   0.257681 0.082649 0.772219 -0.142636
C43   C     C_R   0.195846 0.993529 0.690123 0.031877
C44   C     C_2   0.771322 0.933267 0.713531 -0.163516
H1    H     H_    0.355868 0.151351 0.889837 0.123923
H2    H     H_    0.234501 0.954197 0.156117 0.108645
H3    H     H_    0.807186 0.898531 0.185443 0.160500
H4    H     H_    0.769732 0.034424 0.340398 0.107591
H5    H     H_    0.691870 0.876941 0.091668 0.161802
H6    H     H_    0.730545 0.070797 0.264162 0.107610
H7    H     H_    0.801527 0.593444 0.185349 0.157778
H8    H     H_    0.780753 0.578432 0.343856 0.108886
H9    H     H_    0.697212 0.406522 0.091830 0.157793
H10   H     H_    0.720033 0.421590 0.265461 0.108064
H11   H     H_    0.184409 0.656319 0.556570 0.120328
H12   H     H_    0.732743 0.069580 0.809917 0.094110
H13   H     H_    0.079787 0.656257 0.474102 0.119575
H14   H     H_    0.085111 0.809365 0.531187 0.132715
H15   H     H_    0.263107 0.152772 0.796867 0.125061
H16   H     H_    0.792589 0.882933 0.696052 0.162603
H17   H     H_    0.777048 0.043332 0.699581 0.110475
H18   H     H_    0.314508 0.406113 0.697377 0.160306
H19   H     H_    0.156260 0.421917 0.719956 0.107851
H20   H     H_    0.408239 0.593080 0.802341 0.165593
H21   H     H_    0.234689 0.578558 0.779415 0.107537
H22   H     H_    0.314652 0.115979 0.408206 0.159342
H23   H     H_    0.156091 0.937043 0.234524 0.107574
H24   H     H_    0.408167 0.105547 0.314807 0.159313
N1    N     N_1   0.367676 0.805490 0.735059 -0.293654
N2    N     N_1   0.620656 0.756697 0.752841 -0.281517
O1    O     O_3   0.500000 0.000000 0.000000 -0.447066
O2    O     O_R   0.054120 0.939900 0.325040 -0.541955
O3    O     O_R   0.884120 0.060070 0.444330 -0.539893
O4    O     O_R   0.325020 0.939940 0.054210 -0.542648
O5    O     O_R   0.175860 0.060090 0.615830 -0.539744
O6    O     O_R   0.884120 0.939900 0.324160 -0.541592
O7    O     O_R   0.055710 0.939940 0.615850 -0.546037
O8    O     O_R   0.885720 0.939940 0.614980 -0.536801
O9    O     O_R   0.174930 0.060060 0.445830 -0.539467
O10   O     O_R   0.054120 0.229160 0.614300 -0.539105
O11   O     O_R   0.885050 0.770830 0.325070 -0.540800
O12   O     O_R   0.614240 0.229150 0.054160 -0.543964
O13   O     O_R   0.614240 0.060060 0.885070 -0.536106
O14   O     O_R   0.614900 0.229170 0.174980 -0.541683
O15   O     O_R   0.445840 0.770840 0.885740 -0.527401
O16   O     O_R   0.615830 0.060100 0.175880 -0.543022
O17   O     O_R   0.324090 0.939910 0.884220 -0.529782
O18   O     O_R   0.615830 0.939930 0.055710 -0.544045
O19   O     O_R   0.444240 0.060060 0.884190 -0.536296
O20   O     O_R   0.325020 0.770840 0.885120 -0.530721
O21   O     O_R   0.445840 0.060100 0.175010 -0.540856
O22   O     O_R   0.614900 0.939900 0.885710 -0.518055
O23   O     O_3   0.999960 0.000000 0.500040 -0.443944
O24   O     O_R   0.174930 0.229160 0.614920 -0.540374
O25   O     O_R   0.885720 0.770850 0.445880 -0.544136
O26   O     O_R   0.885050 0.060100 0.614330 -0.539185
Zn1   Zn    Zn3+2 0.542440 0.085830 0.956610 0.955839
Zn2   Zn    Zn3+2 0.543390 0.085850 0.129220 0.937877
Zn3   Zn    Zn3+2 0.543390 0.914160 0.957530 0.972810
Zn4   Zn    Zn3+2 0.370780 0.914160 0.956640 0.964765
Zn5   Zn    Zn3+2 0.957510 0.914170 0.543430 0.937039
Zn6   Zn    Zn3+2 0.956570 0.085840 0.542520 0.947054
Zn7   Zn    Zn3+2 0.956570 0.914150 0.370820 0.937081
Zn8   Zn    Zn3+2 0.129180 0.085840 0.543400 0.937884

loop_
_geom_bond_atom_site_label_1
_geom_bond_atom_site_label_2
_ccdc_geom_bond_type
C15   C18   S    
C21   C26   S    
O26   Zn6   S    
C25   O10   A    
C41   C42   A    
C5    H12   S    
O7    Zn5   S    
C35   C36   A    
C17   H4    S    
C15   H3    S    
C27   O8    A    
O23   Zn7   S    
C14   H2    S    
O1    Zn1   S    
C12   C23   A    
C31   C43   S    
C34   C40   A    
C1    O4    A    
C36   C37   A    
C18   C19   D    
C20   H7    S    
C24   H10   S    
C32   O18   A    
C16   O14   A    
C23   C43   A    
C34   C35   A    
C12   C37   A    
C2    C44   D    
C8    C9    D    
C2    C27   S    
C2    H17   S    
C29   O2    A    
C12   H14   S    
O6    Zn7   S    
C38   N1    T    
C3    C39   S    
C25   O24   A    
C16   C24   S    
C13   C14   D    
O8    Zn5   S    
C17   C30   S    
C27   O26   A    
C19   C32   S    
O23   Zn8   S    
O20   Zn4   S    
C11   H23   S    
C31   O7    A    
C22   H9    S    
C10   H22   S    
O1    Zn2   S    
C3    C44   S    
C33   C40   S    
C35   C38   S    
O23   Zn5   S    
C30   O3    A    
C6    C8    S    
O1    Zn3   S    
O19   Zn1   S    
O23   Zn6   S    
O15   Zn3   S    
C33   O19   A    
C30   O6    A    
C31   O5    A    
C29   O9    A    
C23   C34   A    
C32   O16   A    
C16   O12   A    
C7    H19   S    
C8    H20   S    
C40   C41   A    
C20   C22   S    
C26   O11   A    
O5    Zn8   S    
O12   Zn1   S    
C22   C24   D    
O9    Zn8   S    
C42   C43   A    
O17   Zn4   S    
O11   Zn7   S    
C26   O25   A    
C15   C17   D    
O3    Zn6   S    
O22   Zn3   S    
C4    C5    S    
C3    C5    D    
C10   C13   S    
C42   H15   S    
O4    Zn4   S    
C6    C7    D    
O2    Zn7   S    
O1    Zn4   S    
C7    C25   S    
O14   Zn2   S    
C6    H18   S    
C33   O17   A    
C36   H11   S    
C11   C29   S    
C19   H6    S    
C4    O13   A    
C44   H16   S    
C39   N2    T    
O21   Zn2   S    
O16   Zn2   S    
C9    H21   S    
O18   Zn3   S    
C10   C11   D    
O24   Zn8   S    
C20   C21   D    
C18   H5    S    
C1    O21   A    
O13   Zn1   S    
O10   Zn6   S    
C28   O15   A    
C41   H1    S    
C28   O20   A    
C1    C14   S    
C21   H8    S    
C37   H13   S    
O25   Zn5   S    
C9    C28   S    
C4    O22   A    
C13   H24   S    
