data_mof_unit_31399.cif
_audit_creation_date              2012-12-11T19:16:12-0500
_audit_creation_method            fapswitch 2.2
_symmetry_space_group_name_H-M    P1
_symmetry_Int_Tables_number       1
_space_group_crystal_system       triclinic
_cell_length_a                    8.514829
_cell_length_b                    15.178812
_cell_length_c                    18.793409
_cell_angle_alpha                 103.201181
_cell_angle_beta                  91.389859
_cell_angle_gamma                 98.940506
_cell_volume                      2331.52354579

loop_
_atom_site_label
_atom_site_type_symbol
_atom_type_description
_atom_site_fract_x
_atom_site_fract_y
_atom_site_fract_z
_atom_type_partial_charge
Ba1   Ba    Ba6+2 0.853510 0.540900 0.466480 1.584095
Ba2   Ba    Ba6+2 0.336320 0.459170 0.533530 1.589473
C1    C     C_3   0.641137 0.839984 0.246329 -0.203391
C2    C     C_R   0.902813 0.410812 0.086037 -0.056611
C3    C     C_R   0.767175 0.448651 0.954295 -0.106711
C4    C     C_3   0.136884 0.742148 0.268448 0.405353
C5    C     C_R   0.929972 0.476411 0.977750 0.021835
C6    C     C_R   0.712867 0.444572 0.883070 -0.096156
C7    C     C_R   0.817132 0.470889 0.832277 -0.028158
C8    C     C_R   0.977228 0.509461 0.856652 0.004822
C9    C     C_R   0.033667 0.512947 0.930160 0.027253
C10   C     C_R   0.764892 0.461766 0.758377 -0.012664
C11   C     C_R   0.870617 0.493922 0.710333 -0.280719
C12   C     C_3   0.667240 0.773844 0.296090 0.336367
C13   C     C_R   0.026505 0.538103 0.733930 0.044728
C14   C     C_R   0.080641 0.545142 0.807960 -0.056712
C15   C     C_R   0.151959 0.503069 0.071325 -0.002172
C16   C     C_3   0.125931 0.785638 0.198280 0.000933
C17   C     C_R   0.211312 0.492723 0.141056 -0.011644
C18   C     C_R   0.112970 0.442347 0.184206 -0.036109
C19   C     C_R   0.965832 0.392079 0.149309 0.093229
C20   C     C_R   0.236420 0.584267 0.834651 -0.040364
C21   C     C_R   0.294840 0.578657 0.902801 -0.100790
C22   C     C_R   0.194592 0.549742 0.954534 0.005674
C23   C     C_3   0.581841 0.256110 0.288792 0.322026
C24   C     C_R   0.251395 0.551642 0.027816 0.024991
C25   C     C_R   0.404555 0.597813 0.059543 0.055021
C26   C     C_R   0.369910 0.531839 0.166583 -0.050824
C27   C     C_R   0.465574 0.578366 0.122635 -0.107776
C28   C     C_3   0.251497 0.743011 0.632319 0.309511
C29   C     C_R   0.427738 0.528885 0.237198 0.036711
C30   C     C_R   0.331971 0.479488 0.279837 -0.217976
C31   C     C_R   0.169910 0.442498 0.257905 0.007075
C32   C     C_R   0.346355 0.819739 0.460515 0.020900
C33   C     C_R   0.583930 0.792757 0.518932 0.070679
C34   C     C_3   0.633891 0.162560 0.263398 -0.366716
C35   C     C_R   0.779051 0.219024 0.489224 -0.214830
C36   C     C_R   0.859470 0.170013 0.529193 0.027556
C37   C     C_R   0.788177 0.082750 0.534776 -0.152442
C38   C     C_R   0.634641 0.042092 0.502253 0.001020
C39   C     C_R   0.546419 0.095077 0.465661 -0.012578
C40   C     C_3   0.269238 0.847227 0.653148 -0.382511
C41   C     C_R   0.567247 0.948612 0.502937 0.000200
C42   C     C_R   0.409943 0.913859 0.472701 -0.045844
C43   C     C_R   0.319566 0.972420 0.451017 -0.064461
C44   C     C_R   0.389746 0.053650 0.436125 0.062327
C45   C     C_3   0.078106 0.285282 0.720700 0.363307
C46   C     C_R   0.649568 0.886849 0.530384 -0.147823
C47   C     C_R   0.435916 0.759722 0.481410 -0.281012
C48   C     C_R   0.618312 0.186057 0.461084 0.001582
C49   C     C_3   0.081589 0.238349 0.326294 0.244814
C50   C     C_3   0.103237 0.173347 0.253647 -0.395099
C51   C     C_3   0.709336 0.694483 0.698347 0.326924
C52   C     C_3   0.716351 0.744594 0.780070 -0.060338
C53   C     C_3   0.790184 0.822101 0.356598 -0.235653
C54   C     C_3   0.726743 0.679631 0.830447 -0.488501
C55   C     C_3   0.573419 0.794741 0.797542 -0.357735
C56   C     C_3   0.083565 0.268263 0.797727 -0.200918
C57   C     C_3   0.611018 0.934739 0.287286 -0.506031
C58   C     C_3   0.525688 0.289837 0.222442 -0.389926
C59   C     C_3   0.922707 0.221430 0.815895 -0.419075
C60   C     C_3   0.033160 0.647912 0.259023 -0.169940
C61   C     C_3   0.894199 0.302231 0.163825 -0.395715
C62   C     C_3   0.408506 0.463682 0.348297 -0.230302
C63   C     C_3   0.305983 0.730185 0.277202 -0.371632
C64   C     C_3   0.499131 0.679191 0.037276 -0.438504
C65   C     C_3   0.869384 0.306811 0.476389 -0.242354
C66   C     C_3   0.300420 0.078580 0.376181 -0.374519
C67   C     C_3   0.559233 0.233608 0.688104 0.331087
C68   C     C_3   0.987318 0.744039 0.140110 -0.443617
C69   C     C_3   0.141638 0.890350 0.219058 -0.350057
C70   C     C_3   0.516348 0.140495 0.706230 -0.375921
C71   C     C_R   0.992116 0.466024 0.046065 -0.015860
H1    H     H_    0.330834 0.877218 0.610919 0.069133
H2    H     H_    0.230779 0.774195 0.165091 0.083447
H3    H     H_    0.191240 0.330067 0.715383 0.104772
H4    H     H_    0.976454 0.321314 0.714059 -0.038527
H5    H     H_    0.117809 0.335039 0.838158 0.080873
H6    H     H_    0.505023 0.228055 0.632478 0.074239
H7    H     H_    0.565887 0.087838 0.665979 0.076237
H8    H     H_    0.384801 0.120640 0.703978 0.140048
H9    H     H_    0.566241 0.143178 0.761959 0.112883
H10   H     H_    0.828784 0.487232 0.654215 0.066865
H11   H     H_    0.587404 0.420527 0.868746 0.112088
H12   H     H_    0.986502 0.136881 0.226743 0.112057
H13   H     H_    0.588407 0.606310 0.138997 0.127489
H14   H     H_    0.677727 0.430135 0.990379 0.071398
H15   H     H_    0.788642 0.371601 0.063632 0.061627
H16   H     H_    0.421959 0.593948 0.911788 0.086063
H17   H     H_    0.194727 0.950533 0.435079 0.124205
H18   H     H_    0.765452 0.908797 0.558808 0.092826
H19   H     H_    0.855399 0.048233 0.565877 0.086578
H20   H     H_    0.370393 0.723189 0.623160 0.004066
H21   H     H_    0.172944 0.717383 0.581290 0.071877
H22   H     H_    0.737290 0.869368 0.399023 0.046286
H23   H     H_    0.173353 0.120858 0.261992 0.100768
H24   H     H_    0.828203 0.769405 0.381410 0.177151
H25   H     H_    0.884377 0.867426 0.337083 0.135526
H26   H     H_    0.339888 0.875056 0.706111 0.111629
H27   H     H_    0.149872 0.868106 0.658414 0.133708
H28   H     H_    0.035574 0.195312 0.363927 0.018902
H29   H     H_    0.194402 0.278914 0.349930 0.103226
H30   H     H_    0.169196 0.211164 0.217102 0.096656
H31   H     H_    0.604498 0.638874 0.685174 0.057142
H32   H     H_    0.747378 0.851489 0.214677 0.116885
H33   H     H_    0.826159 0.797269 0.791917 0.119312
H34   H     H_    0.820164 0.665286 0.686252 -0.019252
H35   H     H_    0.841650 0.654399 0.824408 0.115543
H36   H     H_    0.723873 0.716193 0.888667 0.135476
H37   H     H_    0.626446 0.621357 0.817278 0.141389
H38   H     H_    0.459869 0.747163 0.779547 0.131204
H39   H     H_    0.573907 0.825139 0.857235 0.102977
H40   H     H_    0.579697 0.851756 0.769235 0.131491
H41   H     H_    0.531826 0.930417 0.332464 0.139371
H42   H     H_    0.725063 0.979452 0.310515 0.133936
H43   H     H_    0.554563 0.966874 0.248296 0.134513
H44   H     H_    0.532174 0.240281 0.169450 0.091009
H45   H     H_    0.568486 0.756484 0.328528 0.009570
H46   H     H_    0.401243 0.302073 0.226198 0.112787
H47   H     H_    0.597625 0.356459 0.220504 0.117081
H48   H     H_    0.679292 0.140046 0.310977 0.082574
H49   H     H_    0.175771 0.225187 0.802634 0.134879
H50   H     H_    0.885288 0.154255 0.776414 0.152591
H51   H     H_    0.932172 0.209679 0.871909 0.122402
H52   H     H_    0.830941 0.265604 0.814161 0.130461
H53   H     H_    0.691171 0.250300 0.688010 -0.046812
H54   H     H_    0.096336 0.599005 0.277827 0.048491
H55   H     H_    0.938924 0.655566 0.296894 0.196001
H56   H     H_    0.681770 0.306436 0.318655 0.102552
H57   H     H_    0.985385 0.614165 0.202738 0.084777
H58   H     H_    0.987297 0.259629 0.162778 0.105098
H59   H     H_    0.836982 0.313128 0.215115 0.170466
H60   H     H_    0.801394 0.261908 0.121268 0.083753
H61   H     H_    0.319712 0.615669 0.802327 0.108872
H62   H     H_    0.353323 0.400484 0.361657 0.101744
H63   H     H_    0.531691 0.450399 0.340268 0.138299
H64   H     H_    0.404539 0.522447 0.395392 0.128195
H65   H     H_    0.367867 0.800804 0.297766 0.104374
H66   H     H_    0.324598 0.688624 0.317288 0.042244
H67   H     H_    0.531584 0.111436 0.234421 0.104991
H68   H     H_    0.351757 0.697859 0.225239 0.063720
H69   H     H_    0.598792 0.657700 0.004130 0.118520
H70   H     H_    0.422344 0.714728 0.008750 0.119701
H71   H     H_    0.553375 0.731934 0.086208 0.111402
H72   H     H_    0.385066 0.687925 0.472894 0.058261
H73   H     H_    0.995667 0.301836 0.467408 0.126555
H74   H     H_    0.827557 0.320146 0.425133 0.121619
H75   H     H_    0.859884 0.365159 0.523091 0.122450
H76   H     H_    0.207188 0.022016 0.347014 0.072126
H77   H     H_    0.230016 0.131226 0.398500 0.157660
H78   H     H_    0.729312 0.165558 0.224791 0.099182
H79   H     H_    0.381512 0.092401 0.334009 0.128360
H80   H     H_    0.982408 0.786994 0.099765 0.117596
H81   H     H_    0.004833 0.675608 0.107933 0.112522
H82   H     H_    0.871887 0.737650 0.164252 0.178885
H83   H     H_    0.145848 0.918615 0.169433 0.094572
H84   H     H_    0.040253 0.912429 0.250250 0.132229
H85   H     H_    0.255897 0.919291 0.251371 0.114650
H86   H     H_    0.541323 0.808197 0.205307 0.100114
O1    O     O_2   0.871970 0.437290 0.322980 -0.457020
O2    O     O_2   0.193822 0.179259 0.543308 -0.476504
O3    O     O_3   0.063600 0.201533 0.668097 -0.609102
O4    O     O_3   0.121420 0.444460 0.412460 -0.495755
O5    O     O_3   0.580410 0.613230 0.540280 -0.501485
O6    O     O_2   0.337420 0.273080 0.457680 -0.461904
O7    O     O_3   0.453734 0.248100 0.333036 -0.657344
O8    O     O_2   0.435020 0.464925 0.756711 -0.504938
O9    O     O_3   0.499028 0.300003 0.740524 -0.605401
O10   O     O_3   0.661430 0.607560 0.372520 -0.498628
O11   O     O_2   0.742086 0.524168 0.244480 -0.498145
O12   O     O_3   0.698441 0.760364 0.658165 -0.648367
O13   O     O_3   0.966691 0.292266 0.318294 -0.657396
O14   O     O_3   0.710888 0.693512 0.251956 -0.640934
O15   O     O_2   0.852280 0.726960 0.542370 -0.443691
O16   O     O_3   0.083990 0.657360 0.410240 -0.491341
O17   O     O_2   0.030828 0.821886 0.472773 -0.500477
O18   O     O_3   0.102503 0.804040 0.333942 -0.631791
O19   O     O_2   0.317740 0.562750 0.677070 -0.480006
O20   O     O_3   0.068290 0.555610 0.587550 -0.492336
O21   O     O_3   0.528280 0.392520 0.627490 -0.465555
O22   O     O_3   0.185790 0.709237 0.690265 -0.643242
O23   O     O_3   0.609300 0.386850 0.459730 -0.484266
O24   O     O_3   0.105720 0.342720 0.589770 -0.500547
P1    P     P_3+3 0.039440 0.410950 0.333260 0.943121
P2    P     P_3+3 0.676740 0.714970 0.563520 0.979312
P3    P     P_3+3 0.142862 0.773995 0.418723 0.887794
P4    P     P_3+3 0.150270 0.589130 0.666750 0.966873
P5    P     P_3+3 0.055504 0.223370 0.580434 0.934543
P6    P     P_3+3 0.629236 0.591193 0.277380 0.868293
P7    P     P_3+3 0.509897 0.270711 0.426820 0.903944
P8    P     P_3+3 0.559282 0.407392 0.721398 0.920882

loop_
_geom_bond_atom_site_label_1
_geom_bond_atom_site_label_2
_ccdc_geom_bond_type
C39   C44   A    
C16   C68   S    
C15   C71   A    
C62   H63   S    
C50   H30   S    
C16   H2    S    
C35   C48   A    
C25   C27   A    
C68   H80   S    
C60   H57   S    
C17   C18   A    
O10   P6    S    
C23   H56   S    
O22   P4    S    
C5    C71   A    
C43   C44   A    
C1    H32   S    
C49   H29   S    
C5    C9    A    
O11   P6    D    
C24   C25   A    
O9    P8    S    
C20   H61   S    
C59   H51   S    
C15   C24   A    
C61   H60   S    
C26   C27   A    
C22   C24   A    
C45   H3    S    
O2    P5    D    
O15   P2    D    
C36   C37   A    
C55   H39   S    
O20   P4    S    
C51   H31   S    
C13   C14   A    
C9    C22   A    
C70   H7    S    
C58   H46   S    
Ba1   Ba2   S    
Ba2   O23   S    
Ba1   O10   S    
C32   P3    S    
C51   H34   S    
Ba2   P4    S    
C54   H35   S    
C66   H76   S    
C45   C56   S    
C45   O3    S    
C4    C63   S    
C54   H36   S    
Ba1   O5    S    
C6    C7    A    
C12   H45   S    
C46   H18   S    
O19   P4    D    
C33   C47   A    
C21   C22   A    
C21   H16   S    
C58   H47   S    
C23   C58   S    
C61   H58   S    
C41   C46   A    
C70   H8    S    
C56   C59   S    
C12   C53   S    
C62   H62   S    
C6    H11   S    
C1    H86   S    
C56   H5    S    
Ba2   O21   S    
C65   H73   S    
C4    C16   S    
C33   C46   A    
C54   H37   S    
Ba1   P1    S    
O23   P7    S    
C62   H64   S    
C38   C41   A    
C69   H84   S    
C52   C54   S    
Ba1   O15   S    
C40   H1    S    
C56   H49   S    
C52   H33   S    
C68   H82   S    
C32   C42   A    
C30   C62   S    
C53   H22   S    
O5    P2    S    
Ba2   O5    S    
C37   C38   A    
C3    C5    A    
O12   P2    S    
C57   H43   S    
C55   H40   S    
C64   H70   S    
C51   C52   S    
C13   P4    S    
O18   P3    S    
C49   C50   S    
O7    P7    S    
C3    H14   S    
C39   C48   A    
C67   C70   S    
C41   C42   A    
C26   C29   A    
C44   C66   S    
C35   C36   A    
C66   H79   S    
C40   H27   S    
C63   H68   S    
O13   P1    S    
C29   C30   A    
C33   P2    S    
C53   H24   S    
C31   P1    S    
O6    P7    D    
C27   H13   S    
C47   H72   S    
C58   H44   S    
C61   H59   S    
C10   C11   A    
C43   H17   S    
C34   H67   S    
Ba2   O6    S    
C2    C71   A    
C1    C12   S    
C64   H69   S    
C18   C31   A    
C38   C39   A    
C50   H12   S    
C67   H53   S    
C11   C13   A    
C4    O18   S    
C17   C26   A    
C28   O22   S    
C67   H6    S    
C49   H28   S    
Ba2   O20   S    
C63   H65   S    
C37   H19   S    
C42   C43   A    
C7    C8    A    
C16   C69   S    
C10   P8    S    
C69   H85   S    
C11   H10   S    
Ba1   O16   S    
C32   C47   A    
C14   C20   A    
C49   O13   S    
O4    P1    S    
C68   H81   S    
C28   H20   S    
Ba1   O1    S    
O21   P8    S    
Ba2   O4    S    
C3    C6    A    
Ba1   O23   S    
C34   H78   S    
O17   P3    D    
C2    H15   S    
Ba1   P2    S    
C23   O7    S    
C12   O14   S    
O8    P8    D    
C29   P6    S    
C59   H50   S    
C30   C31   A    
C4    C60   S    
C34   H48   S    
C67   O9    S    
C28   H21   S    
C25   C64   S    
C8    C14   A    
C40   H26   S    
O16   P3    S    
C60   H55   S    
C2    C19   A    
Ba1   O20   S    
C55   H38   S    
C57   H41   S    
C36   P5    S    
C69   H83   S    
C35   C65   S    
C53   H25   S    
O14   P6    S    
C15   C17   A    
C50   H23   S    
Ba2   O24   S    
C48   P7    S    
C7    C10   A    
C19   C61   S    
C66   H77   S    
C8    C9    A    
C51   O12   S    
C23   C34   S    
C63   H66   S    
C60   H54   S    
C64   H71   S    
C18   C19   A    
Ba1   O4    S    
C57   H42   S    
C65   H74   S    
C65   H75   S    
C45   H4    S    
C20   C21   A    
C28   C40   S    
C59   H52   S    
Ba2   O19   S    
O24   P5    S    
O1    P1    D    
C70   H9    S    
O3    P5    S    
C52   C55   S    
C1    C57   S    
