data_mof_unit_43604.cif
_audit_creation_date              2012-12-11T14:17:46-0500
_audit_creation_method            fapswitch 2.2
_symmetry_space_group_name_H-M    P1
_symmetry_Int_Tables_number       1
_space_group_crystal_system       triclinic
_cell_length_a                    11.270657
_cell_length_b                    11.270402
_cell_length_c                    18.953367
_cell_angle_alpha                 90.015175
_cell_angle_beta                  89.985927
_cell_angle_gamma                 119.926304
_cell_volume                      2086.54452923

loop_
_atom_site_label
_atom_site_type_symbol
_atom_type_description
_atom_site_fract_x
_atom_site_fract_y
_atom_site_fract_z
_atom_type_partial_charge
C1    C     C_R   0.521486 0.457897 0.147089 0.549380
C2    C     C_R   0.542065 0.063485 0.147106 0.541742
C3    C     C_R   0.936451 0.478469 0.147081 0.547307
C4    C     C_R   0.452326 0.522029 0.854378 0.534539
C5    C     C_R   0.069669 0.547682 0.854387 0.527818
C6    C     C_R   0.477920 0.930306 0.854402 0.532584
C7    C     C_R   0.380901 0.945350 0.452424 0.128188
C8    C     C_R   0.934988 0.374290 0.473844 0.148926
C9    C     C_R   0.594657 0.585356 0.463333 0.147892
C10   C     C_R   0.945142 0.380802 0.547627 0.127319
C11   C     C_R   0.374403 0.935182 0.526199 0.148156
C12   C     C_R   0.585385 0.594604 0.536703 0.147487
C13   C     C_R   0.670461 0.880754 0.556544 -0.050809
C14   C     C_R   0.981390 0.729274 0.573938 -0.060796
C15   C     C_R   0.223665 0.331422 0.547241 -0.078899
C16   C     C_R   0.880735 0.670453 0.443464 -0.051378
C17   C     C_R   0.729294 0.981429 0.426079 -0.060296
C18   C     C_R   0.331442 0.223640 0.452761 -0.080714
C19   C     C_R   0.802982 0.948510 0.536760 -0.082522
C20   C     C_R   0.999953 0.833729 0.530458 -0.108444
C21   C     C_R   0.146362 0.199277 0.524441 -0.110643
C22   C     C_R   0.948510 0.802974 0.463253 -0.083131
C23   C     C_R   0.833741 0.999959 0.469556 -0.109172
C24   C     C_R   0.199299 0.146337 0.475560 -0.113244
C25   C     C_R   0.543060 0.425268 0.361518 0.515354
C26   C     C_R   0.543451 0.058667 0.352103 0.519347
C27   C     C_R   0.876929 0.454655 0.360956 0.530361
C28   C     C_R   0.425273 0.543053 0.638484 0.508558
C29   C     C_R   0.058640 0.543436 0.647906 0.514651
C30   C     C_R   0.454673 0.876965 0.639047 0.523330
C31   C     C_R   0.491857 0.970150 0.928995 0.011589
C32   C     C_R   0.029638 0.521757 0.928938 0.012971
C33   C     C_R   0.478272 0.507923 0.928937 0.011060
C34   C     C_R   0.998995 0.493633 0.076467 -0.001780
C35   C     C_R   0.494652 0.000769 0.076542 -0.001060
C36   C     C_R   0.506217 0.505220 0.076480 -0.002254
C37   C     C_R   0.417065 0.026961 0.959224 -0.073809
C38   C     C_R   0.972590 0.390185 0.959033 -0.073086
C39   C     C_R   0.609762 0.582464 0.959101 -0.073225
C40   C     C_R   0.970652 0.377559 0.033588 -0.066965
C41   C     C_R   0.406554 0.028848 0.033793 -0.066354
C42   C     C_R   0.622241 0.593062 0.033665 -0.066852
C43   C     C_R   0.561883 0.938764 0.045553 -0.145647
C44   C     C_R   0.061141 0.622824 0.045588 -0.146031
C45   C     C_R   0.377098 0.438092 0.045534 -0.145996
C46   C     C_R   0.079488 0.636949 0.973290 -0.111171
C47   C     C_R   0.557543 0.920431 0.973248 -0.111666
C48   C     C_R   0.363048 0.442416 0.973239 -0.112499
C49   C     C_R   0.349307 0.078398 0.917074 -0.120343
C50   C     C_R   0.921041 0.271236 0.916742 -0.120559
C51   C     C_R   0.728765 0.649932 0.916878 -0.120924
C52   C     C_R   0.941882 0.249662 0.061800 -0.089467
C53   C     C_R   0.307302 0.057402 0.062164 -0.089985
C54   C     C_R   0.749958 0.692180 0.061951 -0.090217
C55   C     C_R   0.258299 0.113186 0.946999 0.454689
C56   C     C_R   0.886220 0.145416 0.946502 0.454583
C57   C     C_R   0.854443 0.740863 0.946715 0.454174
C58   C     C_R   0.898276 0.135326 0.018807 0.478863
C59   C     C_R   0.236396 0.101096 0.019327 0.478534
C60   C     C_R   0.864348 0.762898 0.019031 0.478853
C61   C     C_R   0.464816 0.903693 0.562166 -0.047852
C62   C     C_R   0.979491 0.504596 0.581563 -0.036568
C63   C     C_R   0.452937 0.525485 0.564240 -0.024410
C64   C     C_R   0.903565 0.464746 0.437858 -0.046558
C65   C     C_R   0.504646 0.979596 0.418466 -0.035843
C66   C     C_R   0.525520 0.452912 0.435776 -0.023297
C67   C     C_R   0.575018 0.908594 0.524420 -0.009485
C68   C     C_R   0.958310 0.602819 0.544854 0.025899
C69   C     C_R   0.359339 0.408128 0.527249 -0.017383
C70   C     C_R   0.908504 0.574972 0.475601 -0.008847
C71   C     C_R   0.602863 0.958397 0.455168 0.027249
C72   C     C_R   0.408156 0.359311 0.472760 -0.017037
Cr1   Cr    Cr6+3 0.768550 0.541320 0.250660 0.990853
Cr2   Cr    Cr6+3 0.458680 0.227230 0.250660 1.000060
Cr3   Cr    Cr6+3 0.772770 0.231450 0.250660 0.999744
Cr4   Cr    Cr6+3 0.541320 0.768550 0.749340 1.028832
Cr5   Cr    Cr6+3 0.227230 0.458680 0.749340 1.038182
Cr6   Cr    Cr6+3 0.231450 0.772770 0.749340 1.037361
H1    H     H_    0.620664 0.906872 0.077452 0.185930
H2    H     H_    0.093145 0.713384 0.077566 0.185581
H3    H     H_    0.286537 0.379428 0.077456 0.186393
H4    H     H_    0.133733 0.739843 0.952070 0.205688
H5    H     H_    0.606403 0.866322 0.951945 0.205790
H6    H     H_    0.260174 0.393737 0.951987 0.205556
H7    H     H_    0.365358 0.091866 0.860752 0.160831
H8    H     H_    0.907616 0.274063 0.860427 0.157979
H9    H     H_    0.726106 0.633748 0.860561 0.160036
H10   H     H_    0.960374 0.236489 0.116232 0.188869
H11   H     H_    0.275787 0.038772 0.116619 0.187765
H12   H     H_    0.762938 0.723805 0.116388 0.188113
H13   H     H_    0.650801 0.816679 0.600609 0.167547
H14   H     H_    0.977215 0.751485 0.628861 0.147912
H15   H     H_    0.179191 0.375317 0.580324 0.158506
H16   H     H_    0.816687 0.650813 0.399388 0.167059
H17   H     H_    0.751501 0.977248 0.371157 0.140706
H18   H     H_    0.375319 0.179171 0.419664 0.159538
H19   H     H_    0.875179 0.952312 0.574402 0.087577
H20   H     H_    0.044516 0.934364 0.552202 0.103474
H21   H     H_    0.047487 0.141166 0.546142 0.131629
H22   H     H_    0.952333 0.875179 0.425609 0.082589
H23   H     H_    0.934371 0.044506 0.447811 0.101112
H24   H     H_    0.141188 0.047463 0.453855 0.130453
O1    O     O_R   0.910960 0.572410 0.171010 -0.503078
O2    O     O_R   0.427590 0.338550 0.171010 -0.499513
O3    O     O_R   0.661450 0.089040 0.171010 -0.505524
O4    O     O_R   0.572410 0.910960 0.828990 -0.466798
O5    O     O_R   0.338550 0.427590 0.828990 -0.463717
O6    O     O_R   0.089040 0.661450 0.828990 -0.469399
O7    O     O_R   0.639750 0.528530 0.175600 -0.516201
O8    O     O_R   0.471470 0.111220 0.175600 -0.519273
O9    O     O_R   0.888780 0.360250 0.175600 -0.516436
O10   O     O_R   0.528530 0.639750 0.824400 -0.502892
O11   O     O_R   0.111220 0.471470 0.824400 -0.505956
O12   O     O_R   0.360250 0.888780 0.824400 -0.503312
O13   O     O_R   0.909330 0.572400 0.331540 -0.565908
O14   O     O_R   0.427600 0.336930 0.331540 -0.533150
O15   O     O_R   0.663070 0.090670 0.331540 -0.553355
O16   O     O_R   0.572400 0.909330 0.668460 -0.562281
O17   O     O_R   0.336930 0.427600 0.668460 -0.528623
O18   O     O_R   0.090670 0.663070 0.668460 -0.550783
O19   O     O_R   0.638240 0.528520 0.324410 -0.534504
O20   O     O_R   0.471480 0.109720 0.324410 -0.534880
O21   O     O_R   0.890280 0.361760 0.324410 -0.509907
O22   O     O_R   0.528520 0.638240 0.675590 -0.534226
O23   O     O_R   0.109720 0.471480 0.675590 -0.535190
O24   O     O_R   0.361760 0.890280 0.675590 -0.509801
O25   O     O_3   0.666667 0.333333 0.250630 -0.283909
O26   O     O_3   0.333333 0.666667 0.749370 -0.305824
F1    F     F_    0.187066 0.153226 0.905188 -0.568228
F2    F     F_    0.846239 0.034388 0.904549 -0.569021
F3    F     F_    0.965507 0.811920 0.904827 -0.569109
F4    F     F_    0.868759 0.014314 0.048010 -0.576096
F5    F     F_    0.145016 0.130712 0.048712 -0.576097
F6    F     F_    0.985232 0.854259 0.048318 -0.576164
N1    N     N_2   0.258953 0.904165 0.413060 -0.506907
H25   H     H_    0.258815 0.977624 0.381294 0.255376
C73   C     C_3   0.214893 0.779914 0.373234 -0.291121
H26   H     H_    0.128694 0.763236 0.339087 0.192568
H27   H     H_    0.183066 0.691944 0.409558 0.158301
H28   H     H_    0.297244 0.788882 0.337669 0.120133
N2    N     N_2   0.992266 0.304687 0.437252 -0.493285
H29   H     H_    0.926711 0.230750 0.402945 0.282355
C74   C     C_3   0.125902 0.393879 0.406236 -0.294420
H30   H     H_    0.171490 0.332129 0.387802 0.172567
H31   H     H_    0.194240 0.470413 0.445338 0.132895
H32   H     H_    0.120372 0.451311 0.360253 0.158591
N3    N     N_2   0.601129 0.692468 0.420777 -0.510603
H33   H     H_    0.679104 0.732205 0.384376 0.255003
C75   C     C_3   0.472276 0.670266 0.391696 -0.297169
H34   H     H_    0.419097 0.574347 0.360702 0.165567
H35   H     H_    0.491896 0.754441 0.354846 0.135312
H36   H     H_    0.404882 0.667972 0.434932 0.135703
N4    N     N_2   0.904065 0.258892 0.587017 -0.506549
H37   H     H_    0.977669 0.258748 0.618659 0.258351
C76   C     C_3   0.780051 0.214966 0.627040 -0.288069
H38   H     H_    0.763500 0.128801 0.661195 0.197918
H39   H     H_    0.691883 0.183104 0.590851 0.156921
H40   H     H_    0.789258 0.297410 0.662614 0.119737
N5    N     N_2   0.304687 0.992323 0.562808 -0.492892
H41   H     H_    0.230720 0.926670 0.597071 0.283376
C77   C     C_3   0.393753 0.125930 0.593890 -0.290759
H42   H     H_    0.451188 0.120389 0.639870 0.158709
H43   H     H_    0.331903 0.171394 0.612347 0.175933
H44   H     H_    0.470279 0.194384 0.554820 0.131867
N6    N     N_2   0.692489 0.601115 0.579282 -0.510592
H45   H     H_    0.732238 0.679146 0.615653 0.257318
C78   C     C_3   0.670282 0.472300 0.608425 -0.296656
H46   H     H_    0.574375 0.419175 0.639428 0.165743
H47   H     H_    0.754465 0.491968 0.645282 0.136534
H48   H     H_    0.667972 0.404834 0.565222 0.135540

loop_
_geom_bond_atom_site_label_1
_geom_bond_atom_site_label_2
_ccdc_geom_bond_type
C2    C35   S    
C74   H32   S    
C39   C51   A    
C30   O24   A    
N6    H45   S    
C29   O23   A    
C76   H39   S    
C18   H18   S    
C36   C42   A    
N3    H33   S    
Cr3   O15   S    
C26   O15   A    
Cr6   O26   S    
C77   H42   S    
C53   C59   A    
C11   N5    S    
N1    H25   S    
C78   H47   S    
C54   C60   A    
C7    C11   A    
C73   H27   S    
C17   C23   A    
Cr3   O21   S    
C40   C52   A    
N3    C75   S    
C54   H12   S    
C55   C59   A    
C75   H35   S    
C21   H21   S    
C4    C33   S    
C43   H1    S    
C74   H30   S    
Cr6   O6    S    
C9    C66   A    
C6    O12   A    
C1    O7    A    
C46   H4    S    
C66   C72   A    
C63   C69   A    
C58   F4    S    
C55   F1    S    
Cr1   O1    S    
C16   C22   A    
N5    C77   S    
C8    N2    S    
C51   C57   A    
C32   C38   A    
N4    C76   S    
C35   C43   A    
C24   H24   S    
C5    C32   S    
C6    C31   S    
C4    O10   A    
N6    C78   S    
C31   C47   A    
C13   H13   S    
C76   H40   S    
C18   C72   A    
Cr3   O9    S    
C10   C62   A    
Cr2   O25   S    
Cr5   O11   S    
C10   N4    S    
C77   H43   S    
C44   C46   A    
C39   C42   A    
C19   H19   S    
C15   C69   A    
C4    O5    A    
C22   H22   S    
C13   C19   A    
Cr4   O22   S    
C49   H7    S    
C44   H2    S    
C16   C70   A    
C18   C24   A    
C25   O14   A    
C51   H9    S    
C78   H46   S    
C12   C63   A    
C27   O21   A    
C19   C23   A    
C57   C60   A    
C30   O16   A    
C3    C34   S    
C11   C61   A    
Cr1   O25   S    
C59   F5    S    
Cr4   O16   S    
C31   C37   A    
C69   C72   A    
Cr6   O18   S    
C64   C70   A    
C7    N1    S    
C14   C20   A    
C7    C65   A    
C37   C49   A    
C61   C67   A    
N5    H41   S    
C52   H10   S    
Cr4   O10   S    
Cr2   O14   S    
C6    O4    A    
C34   C44   A    
C36   C45   A    
C33   C39   A    
Cr5   O5    S    
C1    O2    A    
C14   H14   S    
Cr5   O26   S    
C52   C58   A    
C8    C64   A    
C17   H17   S    
C78   H48   S    
C68   C70   A    
Cr2   O20   S    
C20   C22   A    
C17   C71   A    
Cr1   O19   S    
C53   H11   S    
Cr4   O26   S    
N1    C73   S    
C34   C40   A    
C75   H36   S    
C15   H15   S    
C21   C24   A    
Cr6   O24   S    
C60   F6    S    
C29   O18   A    
C12   N6    S    
C77   H44   S    
Cr5   O23   S    
Cr2   O2    S    
C13   C67   A    
C45   C48   A    
C3    O1    A    
C74   H31   S    
C29   C62   S    
Cr6   O12   S    
Cr4   O4    S    
C5    O11   A    
C26   C65   S    
C32   C46   A    
C57   F3    S    
C45   H3    S    
C25   C66   S    
C43   C47   A    
Cr5   O17   S    
C28   O17   A    
Cr2   O8    S    
C28   O22   A    
Cr1   O7    S    
C38   C50   A    
C73   H26   S    
C2    O3    A    
C16   H16   S    
Cr1   O13   S    
C62   C68   A    
N2    C74   S    
C65   C71   A    
C75   H34   S    
C42   C54   A    
C38   C40   A    
Cr3   O25   S    
C23   H23   S    
C9    N3    S    
C73   H28   S    
C56   C58   A    
C67   C71   A    
C49   C55   A    
C37   C41   A    
C35   C41   A    
C9    C12   A    
C50   C56   A    
C27   C64   S    
C50   H8    S    
C3    O9    A    
C47   H5    S    
C41   C53   A    
C28   C63   S    
C48   H6    S    
C15   C21   A    
C20   H20   S    
C8    C10   A    
C30   C61   S    
C76   H38   S    
C33   C48   A    
C14   C68   A    
C26   O20   A    
Cr3   O3    S    
N4    H37   S    
N2    H29   S    
C25   O19   A    
C56   F2    S    
C1    C36   S    
C27   O13   A    
C5    O6    A    
C2    O8    A    
