data_mof_unit_56873.cif
_audit_creation_date              2013-03-05T15:45:43-0500
_audit_creation_method            fapswitch 2.2
_symmetry_space_group_name_H-M    P1
_symmetry_Int_Tables_number       1
_space_group_crystal_system       triclinic
_cell_length_a                    6.933416
_cell_length_b                    16.701779
_cell_length_c                    16.918546
_cell_angle_alpha                 101.30034
_cell_angle_beta                  89.041431
_cell_angle_gamma                 91.56377
_cell_volume                      1920.34757471

loop_
_atom_site_label
_atom_site_type_symbol
_atom_site_description
_atom_site_fract_x
_atom_site_fract_y
_atom_site_fract_z
_atom_type_partial_charge
O1    O     O_R   0.506340 0.439070 0.579550 -0.570702
O2    O     O_R   0.170010 0.404890 0.412100 -0.605584
O3    O     O_R   0.005010 0.560930 0.420450 -0.607956
C1    C     C_R   0.339484 0.381728 0.383217 1.082262
O4    O     O_R   0.176280 0.429360 0.578400 -0.613742
O5    O     O_R   0.011320 0.585570 0.587940 -0.609306
C2    C     C_R   0.342068 0.413289 0.605162 1.000522
O6    O     O_R   0.500030 0.414430 0.412060 -0.568474
O7    O     O_3   0.340950 0.551220 0.502940 -0.260611
V1    V     V_3+5 0.064020 0.490500 0.499460 1.236176
O8    O     O_R   0.681910 0.595110 0.587900 -0.577702
C3    C     C_R   0.851648 0.618057 0.616860 1.024146
O9    O     O_R   0.675640 0.570640 0.421600 -0.541052
C4    C     C_R   0.847610 0.586580 0.395178 1.081345
V2    V     V_3+5 0.564670 0.509500 0.500540 1.302523
O10   O     O_3   0.837610 0.448780 0.497060 -0.275871
C5    C     C_R   0.892448 0.863931 0.168091 -0.175481
C6    C     C_R   0.872481 0.638434 0.333306 -0.344553
C7    C     C_R   0.067037 0.670105 0.220422 0.541959
C8    C     C_R   0.023007 0.620586 0.276497 -0.213206
C9    C     C_R   0.759739 0.707399 0.333049 0.316727
C10   C     C_R   0.804746 0.759471 0.277895 0.000695
C11   C     C_R   0.960080 0.741338 0.221492 -0.047126
C12   C     C_R   0.002979 0.794878 0.167635 -0.098446
C13   C     C_R   0.741653 0.881324 0.224568 -0.112562
C14   C     C_R   0.699651 0.830607 0.279132 0.002810
H1    H     H_    0.117512 0.782555 0.123219 0.189561
H2    H     H_    0.654454 0.934514 0.226215 0.134974
H3    H     H_    0.582753 0.847454 0.321795 0.160439
H4    H     H_    0.107846 0.567059 0.276261 0.212112
C15   C     C_3   0.705644 0.776758 0.774697 -0.147878
C16   C     C_3   0.796258 0.775003 0.689716 -0.116742
H5    H     H_    0.725161 0.796012 0.639387 0.191523
H6    H     H_    0.559031 0.797883 0.794666 0.160090
C17   C     C_3   0.866486 0.687752 0.687956 -0.262554
C18   C     C_3   0.779349 0.690400 0.772017 0.371204
C19   C     C_3   0.969752 0.724340 0.812153 -0.227094
C20   C     C_3   0.059275 0.722716 0.726976 -0.129939
C21   C     C_3   0.988995 0.810579 0.729129 -0.042227
C22   C     C_3   0.898987 0.811255 0.813197 -0.164044
H7    H     H_    0.039373 0.703130 0.862726 0.181440
H8    H     H_    0.205453 0.700826 0.707253 0.159931
H9    H     H_    0.076973 0.861119 0.711880 0.140265
C23   C     C_3   0.462247 0.231764 0.313489 0.376890
C24   C     C_3   0.298775 0.181031 0.265660 -0.165463
H10   H     H_    0.231482 0.124324 0.279778 0.149525
C25   C     C_3   0.409705 0.188490 0.187047 -0.171851
C26   C     C_3   0.575765 0.237395 0.235457 -0.311349
C27   C     C_3   0.466572 0.316193 0.233342 0.378956
C28   C     C_3   0.303087 0.267907 0.183239 -0.161344
C29   C     C_3   0.193267 0.261748 0.263135 -0.150522
C30   C     C_3   0.357462 0.311609 0.312475 -0.377110
H11   H     H_    0.731974 0.227540 0.224048 0.156611
H12   H     H_    0.239615 0.283761 0.128652 0.154379
H13   H     H_    0.037313 0.271970 0.274922 0.160762
C31   C     C_R   0.429893 0.135581 0.828984 -0.342791
C32   C     C_R   0.338312 0.360046 0.666537 -0.136765
C33   C     C_R   0.166807 0.309997 0.775575 -0.133967
C34   C     C_R   0.181464 0.363203 0.721017 -0.118700
C35   C     C_R   0.480614 0.301827 0.667730 -0.133466
C36   C     C_R   0.463304 0.246289 0.720874 0.097229
C37   C     C_R   0.306354 0.250766 0.775771 0.196507
C38   C     C_R   0.291718 0.196203 0.829866 -0.234290
C39   C     C_R   0.580010 0.128156 0.769512 0.567118
C40   C     C_R   0.597576 0.184760 0.718150 -0.297308
H14   H     H_    0.174902 0.202058 0.873871 0.170188
H15   H     H_    0.044510 0.314413 0.816794 0.139128
H16   H     H_    0.714928 0.179855 0.674499 0.203857
H17   H     H_    0.069207 0.407145 0.721380 0.150864
H18   H     H_    0.600558 0.297684 0.625315 0.165514
O11   O     O_R   0.266070 0.085680 0.087850 -0.607218
O12   O     O_R   0.590090 0.070660 0.921580 -0.553323
O13   O     O_R   0.754780 0.914400 0.912080 -0.562658
C41   C     C_R   0.424843 0.084904 0.893080 1.046238
O14   O     O_R   0.596110 0.095130 0.087880 -0.600971
O15   O     O_R   0.760850 0.939050 0.079570 -0.596882
C42   C     C_R   0.426745 0.118427 0.116562 0.959982
O16   O     O_R   0.260010 0.061030 0.920360 -0.573050
O17   O     O_3   0.425070 0.948840 0.997010 -0.276107
V3    V     V_3+5 0.702100 0.009490 0.000550 1.251059
O18   O     O_R   0.090200 0.929250 0.078500 -0.600011
C43   C     C_R   0.918160 0.914288 0.105483 0.933512
O19   O     O_R   0.084180 0.904770 0.912200 -0.603313
C44   C     C_R   0.914343 0.881569 0.883520 1.049551
V4    V     V_3+5 0.201420 0.990350 0.999580 1.218827
O20   O     O_3   0.928580 0.051150 0.002990 -0.259921
N1    N     N_R   0.549408 0.208271 0.383108 0.239805
O21   O     O_R   0.637384 0.139270 0.374416 -0.388948
O22   O     O_R   0.535094 0.254314 0.454317 -0.432700
N2    N     N_R   0.560093 0.388284 0.211773 0.238140
O23   O     O_R   0.647942 0.382324 0.142436 -0.385955
O24   O     O_R   0.557269 0.458503 0.261070 -0.396338
S1    S     S_3+6 0.741274 0.045792 0.752727 -0.053092
O25   O     O_2   0.900679 0.063124 0.813234 -0.308318
O26   O     O_2   0.634558 0.968363 0.761282 -0.341841
O27   O     O_3   0.838084 0.033944 0.659451 -0.514313
H19   H     H_    0.924606 0.987008 0.655094 0.372013
S2    S     S_3+6 0.257599 0.640609 0.150327 -0.004134
O28   O     O_2   0.181738 0.630099 0.066107 -0.264746
O29   O     O_2   0.413485 0.706011 0.162348 -0.302531
O30   O     O_3   0.350869 0.552113 0.162737 -0.478382
H20   H     H_    0.462442 0.543455 0.124955 0.410256
N3    N     N_R   0.605782 0.726518 0.390805 0.234571
O31   O     O_R   0.427526 0.721191 0.367105 -0.377847
O32   O     O_R   0.643265 0.746676 0.467351 -0.430338
N4    N     N_R   0.663433 0.626057 0.798196 0.229682
O33   O     O_R   0.593488 0.637822 0.871234 -0.353542
O34   O     O_R   0.632426 0.556322 0.749868 -0.427617

loop_
_geom_bond_atom_site_label_1
_geom_bond_atom_site_label_2
_geom_bond_distance
_ccdc_geom_bond_type
C33   C37   1.402995 A    
N1    O21   1.300294 A    
S1    O25   1.502491 D    
C6    C9    1.410312 A    
C4    C6    1.488855 S    
O2    C1    1.304096 A    
C7    C8    1.400454 A    
C12   H1    1.079808 S    
O17   V4    1.712218 S    
C27   N2    1.457746 S    
C1    O6    1.286876 A    
O18   C43   1.305334 A    
C8    H4    1.082813 S    
V4    O20   2.165945 S    
C13   H2    1.083769 S    
O30   H20   0.990585 S    
C1    C30   1.507691 S    
O19   C44   1.301062 A    
C18   C19   1.537371 S    
C19   C20   1.555113 S    
C39   S1    1.772956 S    
C20   H8    1.110550 S    
C19   C22   1.541702 S    
O5    C3    1.292296 A    
C20   C21   1.552326 S    
C32   C34   1.409087 A    
N4    O33   1.300291 A    
C24   C29   1.559423 S    
V2    O10   2.165814 S    
C15   C22   1.547012 S    
C5    C43   1.481812 S    
C16   C21   1.553920 S    
C22   C44   1.501939 S    
V3    O20   1.697908 S    
O11   V4    2.004444 S    
O8    V2    2.009538 S    
C15   C16   1.554668 S    
C11   C12   1.419190 A    
C31   C39   1.426255 A    
O1    V2    1.976435 S    
C23   N1    1.457516 S    
O14   V3    1.990409 S    
O13   C44   1.292082 A    
C29   H13   1.107985 S    
C23   C30   1.539081 S    
C38   H14   1.084176 S    
S1    O26   1.502771 D    
O9    C4    1.305318 A    
C19   H7    1.110176 S    
C7    S2    1.774515 S    
C25   C28   1.548731 S    
C24   C25   1.549662 S    
C26   H11   1.107997 S    
C15   H6    1.110557 S    
C5    C12   1.400727 A    
C31   C41   1.500139 S    
C18   N4    1.457538 S    
C29   C30   1.547249 S    
C16   C17   1.543613 S    
C17   C20   1.548998 S    
O12   C41   1.296179 A    
O15   C43   1.290169 A    
C21   C22   1.541733 S    
O4    C2    1.296235 A    
C32   C35   1.407151 A    
C21   H9    1.110065 S    
C13   C14   1.392309 A    
C24   H10   1.110222 S    
C35   C36   1.414358 A    
C17   C18   1.528931 S    
C7    C11   1.415963 A    
C37   C38   1.413187 A    
N2    O24   1.299533 A    
C25   C26   1.543258 S    
C35   H18   1.083994 S    
C40   H16   1.083496 S    
O27   H19   0.990636 S    
C28   C29   1.559909 S    
C31   C38   1.410567 A    
N3    O32   1.301403 A    
C28   H12   1.110172 S    
C3    C17   1.503758 S    
O14   C42   1.302948 A    
O3    C4    1.292371 A    
C34   H17   1.083376 S    
O16   V4    1.982575 S    
C26   C27   1.542796 S    
O19   V4    2.009466 S    
S2    O28   1.503247 D    
O6    V2    2.003758 S    
S2    O29   1.502858 D    
O9    V2    1.968662 S    
C10   C14   1.407114 A    
C25   C42   1.503766 S    
O2    V1    1.990420 S    
O11   C42   1.287200 A    
C23   C24   1.538492 S    
O7    V1    2.143060 S    
O1    C2    1.303939 A    
C10   C11   1.425626 A    
O15   V3    1.999525 S    
C27   C30   1.540675 S    
O5    V1    1.994352 S    
O8    C3    1.301169 A    
S1    O27   1.682118 S    
S2    O30   1.680828 S    
C5    C13   1.401738 A    
C16   H5    1.109827 S    
N1    O22   1.299902 A    
C33   C34   1.401929 A    
O4    V1    2.011190 S    
O12   V3    2.011195 S    
O3    V1    1.999689 S    
V1    O10   1.697875 S    
C39   C40   1.405632 A    
N2    O23   1.300250 A    
N4    O34   1.300109 A    
O13   V3    1.994446 S    
C6    C8    1.404626 A    
O7    V2    1.714357 S    
C36   C37   1.412733 A    
O17   V3    2.143104 S    
C9    N3    1.434445 S    
C36   C40   1.398964 A    
C33   H15   1.083622 S    
C14   H3    1.081832 S    
C27   C28   1.538867 S    
C41   O16   1.306802 A    
N3    O31   1.301077 A    
C15   C18   1.535368 S    
C9    C10   1.420547 A    
C2    C32   1.493111 S    
O18   V4    1.968605 S    
C23   C26   1.543072 S    
