data_mof_unit_67684.cif
_audit_creation_date              2012-12-10T19:48:30-0500
_audit_creation_method            fapswitch 2.2
_symmetry_space_group_name_H-M    P1
_symmetry_Int_Tables_number       1
_space_group_crystal_system       triclinic
_cell_length_a                    10.929332
_cell_length_b                    10.741255
_cell_length_c                    9.568041
_cell_angle_alpha                 86.45309
_cell_angle_beta                  90.553973
_cell_angle_gamma                 87.90512
_cell_volume                      1120.25671821

loop_
_atom_site_label
_atom_site_type_symbol
_atom_type_description
_atom_site_fract_x
_atom_site_fract_y
_atom_site_fract_z
_atom_type_partial_charge
C1    C     C_R   0.505005 0.260142 0.503671 0.832969
C2    C     C_R   0.494366 0.739821 0.496495 0.821599
C3    C     C_R   0.871535 0.492773 0.503007 -0.133619
C4    C     C_R   0.128353 0.508322 0.496592 -0.126491
C5    C     C_R   0.946455 0.418450 0.599474 0.021879
C6    C     C_R   0.053385 0.582030 0.399253 0.040044
C7    C     C_3   0.555742 0.023023 0.620290 0.118552
C8    C     C_3   0.443136 0.976936 0.381041 0.110387
C9    C     C_3   0.611693 0.947380 0.503555 0.044785
C10   C     C_3   0.387007 0.052426 0.497788 0.033388
C11   C     C_3   0.492856 0.876286 0.491395 -0.120561
C12   C     C_3   0.505826 0.123655 0.509752 -0.129228
C13   C     C_3   0.436894 0.953202 0.608494 0.170869
C14   C     C_3   0.561859 0.046595 0.393016 0.159421
C15   C     C_3   0.454474 0.602994 0.040974 0.091736
C16   C     C_3   0.545531 0.396806 0.958538 0.059708
C17   C     C_3   0.391062 0.514490 0.948486 0.483188
C18   C     C_3   0.609224 0.485483 0.051474 0.426829
C19   C     C_3   0.563572 0.588500 0.945026 0.188920
C20   C     C_3   0.436375 0.411557 0.054777 0.136813
C21   C     C_R   0.262701 0.507504 0.498320 0.774195
C22   C     C_R   0.737281 0.493017 0.501558 0.778466
C23   C     C_R   0.096621 0.904460 0.236182 0.338630
C24   C     C_R   0.901632 0.092389 0.748723 0.383466
C25   C     C_R   0.095813 0.804736 0.339294 0.229060
C26   C     C_R   0.903892 0.194703 0.650931 0.320378
C27   C     C_R   0.097522 0.679954 0.298212 -0.224088
C28   C     C_R   0.902036 0.317941 0.696714 -0.232719
C29   C     C_R   0.097262 0.657479 0.153277 0.380070
C30   C     C_R   0.900121 0.336042 0.842593 0.402103
C31   C     C_R   0.098445 0.759038 0.051824 0.116962
C32   C     C_R   0.895325 0.231822 0.939598 0.148423
C33   C     C_R   0.109409 0.881247 0.094845 0.067500
C34   C     C_R   0.884893 0.111706 0.891498 -0.016000
C35   C     C_R   0.926470 0.572596 0.403999 -0.121559
C36   C     C_R   0.073286 0.428556 0.595644 -0.129813
Cu1   Cu    Cu3+1 0.500030 0.499990 0.643150 0.993234
Cu2   Cu    Cu3+1 0.499970 0.500010 0.356850 0.973158
H1    H     H_    0.869431 0.631475 0.331394 0.186255
H2    H     H_    0.130185 0.369405 0.668124 0.186213
N1    N     N_3   0.500090 0.499970 0.858290 -0.234526
N2    N     N_3   0.499910 0.500030 0.141710 -0.248735
O1    O     O_R   0.500060 0.316850 0.620870 -0.561982
O2    O     O_R   0.499940 0.683150 0.379130 -0.593221
O3    O     O_R   0.500000 0.316860 0.379090 -0.565655
O4    O     O_R   0.500000 0.683140 0.620910 -0.547718
O5    O     O_R   0.319670 0.500010 0.620890 -0.571378
O6    O     O_R   0.680330 0.499990 0.379110 -0.565490
O7    O     O_R   0.319620 0.500010 0.379110 -0.562348
O8    O     O_R   0.680380 0.499990 0.620890 -0.570537
N3    N     N_3   0.126588 0.986085 0.996518 -0.509427
H3    H     H_    0.214784 0.017246 0.012048 0.224494
H4    H     H_    0.121654 0.962561 0.892699 0.240746
N4    N     N_3   0.849710 0.009875 0.985047 -0.594171
H5    H     H_    0.757227 0.024885 0.007060 0.213096
H6    H     H_    0.897252 0.011009 0.079779 0.292526
O9    O     O_3   0.273266 0.528229 0.892447 -0.682414
H7    H     H_    0.276043 0.604315 0.829353 0.328340
O10   O     O_3   0.727196 0.472145 0.107447 -0.682453
H8    H     H_    0.725765 0.394957 0.169070 0.322547
N5    N     N_3   0.403049 0.719865 0.085572 -0.564920
H9    H     H_    0.476172 0.768836 0.122568 0.264082
H10   H     H_    0.346633 0.697519 0.170002 0.236696
N6    N     N_3   0.594229 0.279528 0.911566 -0.556135
H11   H     H_    0.631524 0.228886 0.999443 0.206904
H12   H     H_    0.518654 0.230548 0.881085 0.253141
N7    N     N_3   0.633701 0.689753 0.882189 -0.519991
H13   H     H_    0.670015 0.737763 0.963798 0.217804
H14   H     H_    0.707945 0.649636 0.831358 0.243164
N8    N     N_3   0.362507 0.313035 0.117087 -0.515917
H15   H     H_    0.308292 0.280983 0.037237 0.228473
H16   H     H_    0.422359 0.238641 0.149418 0.235457
O11   O     O_3   0.085317 0.027380 0.269719 -0.711799
H17   H     H_    0.045631 0.030718 0.361831 0.400170
O12   O     O_3   0.913914 0.974340 0.700018 -0.702594
H18   H     H_    0.914305 0.910714 0.779292 0.361773
O13   O     O_3   0.088942 0.833115 0.478191 -0.721881
H19   H     H_    0.111237 0.758327 0.539918 0.329998
O14   O     O_3   0.913114 0.169569 0.511420 -0.721387
H20   H     H_    0.892851 0.245876 0.451324 0.321495
O15   O     O_3   0.090324 0.538249 0.107597 -0.647733
H21   H     H_    0.112665 0.476064 0.185151 0.352301
O16   O     O_3   0.907800 0.453119 0.893671 -0.662415
H22   H     H_    0.891440 0.518023 0.817254 0.330716
N9    N     N_3   0.077515 0.741350 0.905839 -0.572236
H23   H     H_    0.156158 0.764950 0.851159 0.206134
H24   H     H_    0.059728 0.648992 0.887760 0.311115
N10   N     N_3   0.911365 0.243786 0.087436 -0.513305
H25   H     H_    0.830318 0.219719 0.136934 0.190773
H26   H     H_    0.931099 0.334553 0.110738 0.306582
N11   N     N_3   0.732534 0.886557 0.497970 -0.570328
H27   H     H_    0.796054 0.956070 0.482798 0.309196
H28   H     H_    0.750215 0.838624 0.594774 0.253679
N12   N     N_3   0.265678 0.112366 0.501923 -0.576126
H29   H     H_    0.203087 0.042048 0.517167 0.282930
H30   H     H_    0.247771 0.158589 0.404214 0.265459
N13   N     N_3   0.611732 0.045209 0.753540 -0.576939
H31   H     H_    0.665523 0.965917 0.784946 0.253819
H32   H     H_    0.669067 0.119299 0.734210 0.227946
N14   N     N_3   0.386621 0.955131 0.248075 -0.581371
H33   H     H_    0.335859 0.035954 0.215194 0.247283
H34   H     H_    0.325687 0.884845 0.269583 0.214400
N15   N     N_3   0.368351 0.902283 0.727181 -0.535954
H35   H     H_    0.338529 0.977319 0.784121 0.231477
H36   H     H_    0.290305 0.863520 0.686716 0.205121
N16   N     N_3   0.631301 0.096870 0.275084 -0.601406
H37   H     H_    0.665495 0.020674 0.223065 0.233403
H38   H     H_    0.706606 0.139589 0.316690 0.214130

loop_
_geom_bond_atom_site_label_1
_geom_bond_atom_site_label_2
_ccdc_geom_bond_type
C22   O6    A    
C4    C36   A    
C31   N9    S    
C27   C29   A    
O11   H17   S    
C9    C14   S    
C9    N11   S    
C21   O7    A    
N13   H31   S    
Cu2   O7    S    
O13   H19   S    
C2    O4    A    
C15   C19   S    
C25   O13   S    
C24   C26   A    
Cu2   N2    S    
C18   N2    S    
N16   H37   S    
C10   N12   S    
C32   N10   S    
C5    C36   A    
C17   C20   S    
C6    C35   A    
C7    C9    S    
C18   C19   S    
C30   O16   S    
N5    H10   S    
Cu2   O3    S    
C1    O1    A    
C6    C27   S    
C2    O2    A    
C23   C33   A    
C31   C33   A    
C19   N7    S    
N8    H15   S    
Cu1   O5    S    
Cu2   O6    S    
C22   O8    A    
O10   H8    S    
C20   N8    S    
N5    H9    S    
C1    C12   S    
C23   O11   S    
C2    C11   S    
N13   H32   S    
Cu2   O2    S    
O15   H21   S    
N9    H24   S    
C7    C12   S    
N4    H6    S    
N7    H13   S    
C36   H2    S    
C4    C6    A    
N11   H27   S    
N9    H23   S    
C24   C34   A    
C33   N3    S    
N3    H3    S    
N7    H14   S    
N6    H12   S    
Cu1   O1    S    
C35   H1    S    
O12   H18   S    
C29   O15   S    
Cu1   Cu2   S    
N11   H28   S    
C5    C28   S    
O16   H22   S    
C3    C35   A    
C16   C20   S    
N14   H34   S    
C15   N5    S    
N15   H36   S    
N12   H30   S    
C9    C11   S    
C10   C12   S    
C16   C18   S    
C12   C14   S    
C34   N4    S    
C13   N15   S    
C15   C17   S    
N4    H5    S    
C8    C14   S    
C7    N13   S    
C15   N2    S    
N10   H26   S    
C3    C5    A    
C10   C13   S    
C20   N2    S    
C24   O12   S    
C25   C27   A    
C26   C28   A    
C26   O14   S    
N6    H11   S    
C28   C30   A    
C8    N14   S    
C29   C31   A    
C30   C32   A    
C4    C21   S    
C11   C13   S    
C1    O3    A    
O9    H7    S    
N16   H38   S    
C8    C11   S    
Cu1   O8    S    
N14   H33   S    
C23   C25   A    
Cu1   N1    S    
N12   H29   S    
C17   N1    S    
O14   H20   S    
C18   O10   S    
C7    C13   S    
N10   H25   S    
C8    C10   S    
C14   N16   S    
C17   O9    S    
N15   H35   S    
C3    C22   S    
N8    H16   S    
C16   N6    S    
N3    H4    S    
Cu1   O4    S    
C16   N1    S    
C19   N1    S    
C32   C34   A    
C21   O5    A    
