data_mof_unit_30952.cif
_audit_creation_date              2012-12-10T17:50:12-0500
_audit_creation_method            fapswitch 2.2
_symmetry_space_group_name_H-M    P1
_symmetry_Int_Tables_number       1
_space_group_crystal_system       triclinic
_cell_length_a                    10.618413
_cell_length_b                    14.707012
_cell_length_c                    14.783109
_cell_angle_alpha                 64.9469
_cell_angle_beta                  103.440224
_cell_angle_gamma                 102.837087
_cell_volume                      2013.96127852

loop_
_atom_site_label
_atom_site_type_symbol
_atom_type_description
_atom_site_fract_x
_atom_site_fract_y
_atom_site_fract_z
_atom_type_partial_charge
C1    C     C_R   0.477946 0.119751 0.312437 0.792862
C2    C     C_R   0.522054 0.880249 0.687563 0.792862
C3    C     C_R   0.494156 0.292001 0.178617 -0.245395
C4    C     C_R   0.505844 0.707999 0.821383 -0.245395
C5    C     C_R   0.471863 0.360732 0.077954 0.089590
C6    C     C_R   0.528136 0.639268 0.922045 0.089590
C7    C     C_R   0.441245 0.321328 0.002046 0.116551
C8    C     C_R   0.558755 0.678672 0.997954 0.116552
C9    C     C_R   0.491138 0.467455 0.050795 0.004886
C10   C     C_R   0.508861 0.532545 0.949205 0.004886
C11   C     C_R   0.505948 0.487901 0.879266 0.170332
C12   C     C_R   0.494051 0.512099 0.120734 0.170332
C13   C     C_R   0.456599 0.385631 0.903190 -0.234679
C14   C     C_R   0.543400 0.614369 0.096810 -0.234680
C15   C     C_R   0.740922 0.295519 0.647980 -0.316159
C16   C     C_R   0.259078 0.704481 0.352021 -0.316159
C17   C     C_R   0.696153 0.209033 0.627386 0.069832
C18   C     C_R   0.303846 0.790967 0.372614 0.069832
C19   C     C_R   0.513165 0.282292 0.515191 0.008004
C20   C     C_R   0.486835 0.717708 0.484809 0.008003
C21   C     C_R   0.550897 0.371960 0.535244 -0.053218
C22   C     C_R   0.449103 0.628040 0.464756 -0.053218
C23   C     C_R   0.259529 0.000441 0.499989 0.783588
C24   C     C_R   0.740471 0.999559 0.500011 0.783588
C25   C     C_R   0.670604 0.378921 0.600920 0.152710
C26   C     C_R   0.329396 0.621079 0.399080 0.152710
C27   C     C_R   0.475614 0.454698 0.491105 0.026351
C28   C     C_R   0.524386 0.545301 0.508895 0.026351
C29   C     C_R   0.647649 0.551052 0.569297 -0.231945
C30   C     C_R   0.352351 0.448948 0.430703 -0.231946
C31   C     C_R   0.718976 0.469333 0.616806 0.178937
C32   C     C_R   0.281023 0.530667 0.383195 0.178937
C33   C     C_3   0.015853 0.010693 0.408294 -0.171835
C34   C     C_3   0.984147 0.989307 0.591706 -0.171835
C35   C     C_3   0.961920 0.087663 0.429920 -0.165703
C36   C     C_3   0.038080 0.912337 0.570080 -0.165703
C37   C     C_3   0.877200 0.998998 0.499806 0.023035
C38   C     C_3   0.122800 0.001002 0.500194 0.023034
C39   C     C_3   0.928825 0.921967 0.478168 -0.136898
C40   C     C_3   0.071175 0.078033 0.521831 -0.136898
C41   C     C_R   0.462671 0.187457 0.205030 -0.062104
C42   C     C_R   0.537328 0.812543 0.794970 -0.062104
C43   C     C_R   0.409573 0.216383 0.027759 -0.190147
C44   C     C_R   0.590427 0.783617 0.972241 -0.190147
C45   C     C_R   0.416953 0.149798 0.128943 -0.192932
C46   C     C_R   0.583047 0.850202 0.871057 -0.192932
Cu1   Cu    Cu3+1 0.465750 0.918270 0.475680 0.930351
Cu2   Cu    Cu3+1 0.534250 0.081730 0.524320 0.930351
H1    H     H_    0.927529 0.159293 0.372557 0.130910
H2    H     H_    0.072471 0.840707 0.627443 0.130910
H3    H     H_    0.571184 0.726995 0.538375 0.126001
H4    H     H_    0.428816 0.273005 0.461624 0.126001
H5    H     H_    0.248357 0.854058 0.337211 0.124507
H6    H     H_    0.751643 0.145942 0.662789 0.124507
H7    H     H_    0.831328 0.296417 0.699775 0.152070
H8    H     H_    0.168672 0.703583 0.300225 0.152070
H9    H     H_    0.691869 0.619247 0.581043 0.139048
H10   H     H_    0.308130 0.380753 0.418957 0.139048
H11   H     H_    0.032137 0.019553 0.333303 0.125204
H12   H     H_    0.967863 0.980447 0.666696 0.125204
H13   H     H_    0.867911 0.857974 0.460402 0.136056
H14   H     H_    0.132089 0.142026 0.539597 0.136056
H15   H     H_    0.446018 0.353739 0.847240 0.152790
H16   H     H_    0.553982 0.646261 0.152759 0.152790
H17   H     H_    0.458422 0.680854 0.762880 0.179217
H18   H     H_    0.541578 0.319146 0.237120 0.179217
H19   H     H_    0.607897 0.930916 0.852535 0.151461
H20   H     H_    0.392104 0.069084 0.147465 0.151461
H21   H     H_    0.382985 0.185763 0.969791 0.131334
H22   H     H_    0.617015 0.814237 0.030209 0.131334
N1    N     N_R   0.585750 0.204560 0.560800 -0.176329
N2    N     N_R   0.414250 0.795440 0.439200 -0.176328
O1    O     O_R   0.454850 0.022100 0.338110 -0.586544
O2    O     O_R   0.545150 0.977900 0.661890 -0.586544
O3    O     O_R   0.512700 0.160150 0.379180 -0.587346
O4    O     O_R   0.487300 0.839850 0.620820 -0.587345
O5    O     O_R   0.287930 0.931000 0.479440 -0.586033
O6    O     O_R   0.712070 0.069000 0.520560 -0.586033
O7    O     O_R   0.345780 0.069050 0.520520 -0.590337
O8    O     O_R   0.654220 0.930950 0.479480 -0.590337
C47   C     C_3   0.573193 0.539053 0.786908 -0.889922
H23   H     H_    0.499602 0.560173 0.717146 0.234568
H24   H     H_    0.645183 0.605820 0.788807 0.236690
H25   H     H_    0.630743 0.485948 0.784328 0.249871
C48   C     C_3   0.426806 0.460947 0.213091 -0.889920
H26   H     H_    0.354816 0.394180 0.211193 0.236690
H27   H     H_    0.500397 0.439827 0.282854 0.234568
H28   H     H_    0.369256 0.514052 0.215671 0.249870
C49   C     C_3   0.848092 0.481458 0.683142 -0.903627
H29   H     H_    0.871626 0.557475 0.686656 0.232837
H30   H     H_    0.844477 0.424268 0.761539 0.232324
H31   H     H_    0.928406 0.471635 0.652980 0.239237
C50   C     C_3   0.151907 0.518542 0.316858 -0.903627
H32   H     H_    0.128374 0.442525 0.313344 0.232837
H33   H     H_    0.071594 0.528365 0.347020 0.239237
H34   H     H_    0.155523 0.575731 0.238461 0.232324

loop_
_geom_bond_atom_site_label_1
_geom_bond_atom_site_label_2
_ccdc_geom_bond_type
C25   C31   A    
C38   C40   S    
C26   C32   A    
C50   H32   S    
C34   C37   S    
C19   N1    A    
C47   H23   S    
C36   H2    S    
C48   H26   S    
C11   C47   S    
C33   C39   S    
C12   C48   S    
C34   C40   S    
Cu2   O7    S    
C28   C29   A    
C19   C21   A    
Cu1   O4    S    
C20   H3    S    
C4    H17   S    
C15   C25   A    
C40   H14   S    
C42   C46   A    
Cu2   O6    S    
C18   H5    S    
C19   H4    S    
C24   O8    A    
C31   C49   S    
C18   N2    A    
C35   H1    S    
C44   H22   S    
C7    C43   A    
C49   H30   S    
C9    C10   A    
C2    O2    A    
C32   C50   S    
C21   C27   A    
C33   H11   S    
C22   C28   A    
C27   C30   A    
C34   H12   S    
Cu2   O3    S    
Cu1   O8    S    
C47   H24   S    
C44   C46   A    
C48   H27   S    
C16   C26   A    
C39   H13   S    
C1    O3    A    
Cu2   O2    S    
Cu1   O1    S    
C4    C6    A    
C5    C7    A    
C6    C8    A    
C15   H7    S    
C16   H8    S    
C5    C9    A    
Cu1   Cu2   S    
C13   H15   S    
C29   C31   A    
C14   H16   S    
C45   H20   S    
C24   C37   S    
C23   O5    A    
C49   H31   S    
C43   C45   A    
C24   O6    A    
C29   H9    S    
C17   N1    A    
C50   H34   S    
C3    H18   S    
Cu1   O5    S    
Cu2   N1    S    
C47   H25   S    
C2    O4    A    
C48   H28   S    
C1    C41   S    
C15   C17   A    
C21   C25   A    
C3    C41   A    
C8    C14   A    
C35   C37   S    
C36   C39   S    
C8    C44   A    
C20   C22   A    
C3    C5    A    
C6    C10   A    
C23   C38   S    
C33   C38   S    
C1    O1    A    
C36   C38   S    
C35   C40   S    
C12   C14   A    
C46   H19   S    
C37   C39   S    
C30   C32   A    
C11   C13   A    
C50   H33   S    
C4    C42   A    
C2    C42   S    
C30   H10   S    
C33   C35   S    
C34   C36   S    
C9    C12   A    
Cu1   N2    S    
C10   C11   A    
C7    C13   A    
C16   C18   A    
C22   C26   A    
C27   C28   A    
C41   C45   A    
C20   N2    A    
C23   O7    A    
C49   H29   S    
C43   H21   S    
C17   H6    S    
