data_mof_unit_36557.cif
_audit_creation_date              2012-12-10T19:28:32-0500
_audit_creation_method            fapswitch 2.2
_symmetry_space_group_name_H-M    P1
_symmetry_Int_Tables_number       1
_space_group_crystal_system       triclinic
_cell_length_a                    27.691532
_cell_length_b                    10.485465
_cell_length_c                    9.86135
_cell_angle_alpha                 92.040838
_cell_angle_beta                  90.275774
_cell_angle_gamma                 89.85875
_cell_volume                      2861.47078004

loop_
_atom_site_label
_atom_site_type_symbol
_atom_type_description
_atom_site_fract_x
_atom_site_fract_y
_atom_site_fract_z
_atom_type_partial_charge
C1    C     C_R   0.499568 0.257948 0.498585 0.919887
C2    C     C_R   0.500861 0.742026 0.501528 0.907855
C3    C     C_R   0.101949 0.507499 0.516575 -0.060749
C4    C     C_R   0.898207 0.500545 0.492702 -0.060654
C5    C     C_R   0.128288 0.392850 0.519568 -0.101545
C6    C     C_R   0.871837 0.615147 0.489397 -0.101317
C7    C     C_R   0.104082 0.278009 0.534388 -0.217588
C8    C     C_R   0.896054 0.730107 0.475542 -0.218079
C9    C     C_R   0.126936 0.624371 0.517830 0.002092
C10   C     C_R   0.873254 0.383586 0.490532 0.001776
C11   C     C_R   0.353803 0.505690 0.500631 -0.020258
C12   C     C_R   0.646291 0.497515 0.500462 -0.024150
C13   C     C_R   0.975196 0.385450 0.501171 0.069194
C14   C     C_R   0.024969 0.622726 0.509327 0.069059
C15   C     C_R   0.973963 0.621465 0.493536 -0.091555
C16   C     C_R   0.026186 0.386749 0.517092 -0.091650
C17   C     C_R   0.949364 0.502676 0.496873 0.019584
C18   C     C_R   0.050789 0.505481 0.513375 0.019617
C19   C     C_R   0.949005 0.270585 0.481511 -0.191501
C20   C     C_R   0.051224 0.737530 0.528705 -0.191438
C21   C     C_R   0.899022 0.269431 0.480871 -0.176532
C22   C     C_R   0.101216 0.738588 0.528180 -0.176267
C23   C     C_R   0.406356 0.501096 0.499851 0.861812
C24   C     C_R   0.593670 0.499522 0.500293 0.867126
C25   C     C_R   0.054005 0.274895 0.542758 0.427256
C26   C     C_R   0.946151 0.733347 0.467898 0.427626
C27   C     C_3   0.500221 0.047191 0.630108 -0.280028
C28   C     C_3   0.500681 0.952854 0.370918 -0.278834
C29   C     C_3   0.540826 0.962507 0.567356 -0.360893
C30   C     C_3   0.459943 0.037241 0.433753 -0.360886
C31   C     C_3   0.501541 0.877199 0.502298 -0.086629
C32   C     C_3   0.499306 0.122796 0.498379 -0.091077
C33   C     C_3   0.461726 0.960349 0.563501 0.560836
C34   C     C_3   0.539152 0.039514 0.437572 0.563671
C35   C     C_3   0.495194 0.386178 0.042129 0.167684
C36   C     C_3   0.504650 0.614106 0.957042 0.153584
C37   C     C_3   0.534857 0.431964 0.949975 0.124869
C38   C     C_3   0.464901 0.568335 0.049554 0.154330
C39   C     C_3   0.460510 0.454096 0.947328 -0.197738
C40   C     C_3   0.539949 0.545829 0.051982 -0.169007
C41   C     C_R   0.178731 0.396534 0.514744 0.530185
C42   C     C_R   0.821370 0.611277 0.492712 0.530019
C43   C     C_R   0.177400 0.623964 0.513334 0.500993
C44   C     C_R   0.822779 0.383823 0.493241 0.501143
C45   C     C_R   0.277238 0.469069 0.387593 -0.105886
C46   C     C_R   0.721208 0.457484 0.381464 -0.118703
C47   C     C_R   0.327393 0.465857 0.385109 -0.247117
C48   C     C_R   0.671112 0.458818 0.382245 -0.213570
C49   C     C_R   0.329631 0.549753 0.618084 -0.213261
C50   C     C_R   0.672136 0.534395 0.618134 -0.245761
C51   C     C_R   0.279552 0.553054 0.620197 -0.121547
C52   C     C_R   0.722310 0.533316 0.616975 -0.104241
C53   C     C_R   0.253375 0.512185 0.505289 0.321730
C54   C     C_R   0.746766 0.495125 0.498580 0.323035
H1    H     H_    0.349380 0.581884 0.708021 0.160625
H2    H     H_    0.653686 0.565857 0.709978 0.143273
H3    H     H_    0.498655 0.089918 0.734597 0.148072
H4    H     H_    0.503212 0.911557 0.266112 0.148347
H5    H     H_    0.427219 0.416204 0.897273 0.135557
H6    H     H_    0.573574 0.582692 0.100859 0.130497
H7    H     H_    0.260997 0.586063 0.711331 0.138706
H8    H     H_    0.742248 0.562678 0.707480 0.136192
H9    H     H_    0.123983 0.190075 0.547226 0.210795
H10   H     H_    0.876156 0.818026 0.462575 0.210687
H11   H     H_    0.651859 0.429068 0.290857 0.154167
H12   H     H_    0.345389 0.429998 0.294271 0.143126
H13   H     H_    0.740248 0.428097 0.289861 0.137583
H14   H     H_    0.256842 0.437032 0.298865 0.138244
H15   H     H_    0.880677 0.178425 0.470184 0.199241
H16   H     H_    0.119614 0.829550 0.538386 0.199270
H17   H     H_    0.966008 0.179705 0.461466 0.226597
H18   H     H_    0.034274 0.828422 0.549159 0.226550
H19   H     H_    0.574038 0.928514 0.617632 0.156472
H20   H     H_    0.426450 0.071412 0.384938 0.159911
N1    N     N_R   0.201988 0.510919 0.509722 -0.356752
N2    N     N_R   0.798151 0.496770 0.496285 -0.357237
N3    N     N_3   0.499960 0.500030 0.863290 -0.108300
N4    N     N_3   0.500040 0.499970 0.136710 -0.101188
O1    O     O_R   0.500000 0.313960 0.616610 -0.640263
O2    O     O_R   0.500000 0.686040 0.383390 -0.648989
O3    O     O_R   0.500020 0.313950 0.383350 -0.613850
O4    O     O_R   0.499980 0.686050 0.616650 -0.609307
O5    O     O_R   0.428750 0.500030 0.616610 -0.615119
O6    O     O_R   0.571250 0.499970 0.383390 -0.616898
O7    O     O_R   0.428770 0.500020 0.383360 -0.641664
O8    O     O_R   0.571230 0.499980 0.616640 -0.646142
O9    O     O_2   0.204451 0.287025 0.516329 -0.560486
O10   O     O_2   0.795596 0.720691 0.491053 -0.561518
O11   O     O_2   0.798425 0.272452 0.493712 -0.558779
O12   O     O_2   0.201767 0.735251 0.511524 -0.559855
Zn1   Zn    Zn3+2 0.499990 0.500010 0.655740 0.932251
Zn2   Zn    Zn3+2 0.500010 0.499990 0.344260 0.934503
O13   O     O_3   0.422424 0.904830 0.629770 -0.621574
C55   C     C_3   0.389689 0.001029 0.672272 0.085964
H21   H     H_    0.372562 0.045354 0.583086 0.153177
H22   H     H_    0.407838 0.076245 0.736601 0.130811
C56   C     C_3   0.350229 0.941549 0.755946 -0.794889
H23   H     H_    0.366406 0.895374 0.845105 0.242499
H24   H     H_    0.324446 0.016438 0.792067 0.219406
H25   H     H_    0.330385 0.868584 0.693278 0.271463
O14   O     O_3   0.578626 0.091945 0.369034 -0.623752
C57   C     C_3   0.614739 0.997879 0.350765 0.081725
H26   H     H_    0.599905 0.908401 0.302500 0.134308
H27   H     H_    0.631768 0.976434 0.449788 0.159056
C58   C     C_3   0.653835 0.047611 0.259172 -0.799118
H28   H     H_    0.668218 0.139629 0.301377 0.273296
H29   H     H_    0.683790 0.977247 0.250437 0.226217
H30   H     H_    0.638607 0.061931 0.156822 0.243784
C59   C     C_3   0.577027 0.357004 0.886986 -0.394273
C60   C     C_3   0.608979 0.295501 0.993504 -0.408931
C61   C     C_3   0.654452 0.238749 0.928054 -0.847988
H31   H     H_    0.644700 0.161498 0.852993 0.268821
H32   H     H_    0.674964 0.313625 0.876135 0.267111
H33   H     H_    0.678226 0.198821 0.006899 0.254104
H34   H     H_    0.619886 0.368266 0.072152 0.228743
H35   H     H_    0.588734 0.218852 0.042981 0.237708
H36   H     H_    0.562915 0.282319 0.814745 0.223325
H37   H     H_    0.599425 0.424827 0.831456 0.226996
C62   C     C_3   0.414877 0.621233 0.090367 -0.431112
C63   C     C_3   0.414872 0.742516 0.180324 -0.310963
C64   C     C_3   0.364325 0.800313 0.190591 -0.874066
H38   H     H_    0.352112 0.832877 0.090122 0.259612
H39   H     H_    0.338347 0.729042 0.227755 0.278300
H40   H     H_    0.364795 0.883343 0.263672 0.259526
H41   H     H_    0.425847 0.720348 0.284006 0.278664
H42   H     H_    0.439785 0.812919 0.138790 0.201281
H43   H     H_    0.395186 0.641545 0.994855 0.193721
H44   H     H_    0.394471 0.545663 0.141041 0.203146
C65   C     C_3   0.485160 0.248852 0.080677 -0.392502
C66   C     C_3   0.432820 0.231287 0.129430 -0.310741
C67   C     C_3   0.415551 0.095415 0.100405 -0.937647
H45   H     H_    0.413089 0.075344 0.989344 0.267600
H46   H     H_    0.441231 0.027453 0.144516 0.273538
H47   H     H_    0.379287 0.082794 0.145317 0.260350
H48   H     H_    0.430177 0.254478 0.239541 0.240814
H49   H     H_    0.407165 0.295348 0.078367 0.201506
H50   H     H_    0.491296 0.187895 0.987723 0.182218
H51   H     H_    0.511456 0.217463 0.157659 0.232998
C68   C     C_3   0.513796 0.752282 0.918720 -0.384282
C69   C     C_3   0.565967 0.773899 0.870440 -0.305950
C70   C     C_3   0.582670 0.910122 0.904343 -0.932312
H52   H     H_    0.585225 0.925923 0.016068 0.265833
H53   H     H_    0.618840 0.925613 0.859835 0.255237
H54   H     H_    0.556979 0.980512 0.863821 0.270716
H55   H     H_    0.591891 0.708905 0.919238 0.203427
H56   H     H_    0.568712 0.753736 0.759889 0.237404
H57   H     H_    0.486944 0.783061 0.842833 0.238296
H58   H     H_    0.507742 0.812450 0.011918 0.178111
O15   O     O_3   0.033852 0.162051 0.583130 -0.627927
C71   C     C_3   0.024843 0.172474 0.723951 0.093810
H59   H     H_    0.998779 0.251007 0.748297 0.150289
H60   H     H_    0.058985 0.189964 0.781924 0.144945
C72   C     C_3   0.003026 0.048306 0.769816 -0.793364
H61   H     H_    0.029298 0.969058 0.754286 0.246974
H62   H     H_    0.993948 0.057214 0.879313 0.200655
H63   H     H_    0.969601 0.026137 0.710913 0.273941
O16   O     O_3   0.966336 0.846277 0.427886 -0.627846
C73   C     C_3   0.975346 0.836187 0.287040 0.093608
H64   H     H_    0.941204 0.818902 0.229005 0.144885
H65   H     H_    0.001386 0.757649 0.262485 0.150395
C74   C     C_3   0.997204 0.960420 0.241498 -0.793476
H66   H     H_    0.030575 0.982545 0.300662 0.274135
H67   H     H_    0.006380 0.951638 0.132061 0.200741
H68   H     H_    0.970911 0.039632 0.256912 0.246703

loop_
_geom_bond_atom_site_label_1
_geom_bond_atom_site_label_2
_ccdc_geom_bond_type
O13   C55   S    
C40   H6    S    
C27   C29   S    
C8    C26   A    
C14   C18   A    
C19   H17   S    
C61   H31   S    
C51   H7    S    
C12   C48   A    
C67   H47   S    
C56   H25   S    
C56   H23   S    
C59   H36   S    
C27   C33   S    
C58   H29   S    
C68   H57   S    
O16   C73   S    
C23   O5    A    
C3    C18   A    
C11   C49   A    
C39   N3    S    
C35   C37   S    
C37   C40   S    
C36   N3    S    
C70   H53   S    
C38   C39   S    
C30   H20   S    
C63   H42   S    
C9    C22   A    
C29   H19   S    
C1    O3    A    
C57   C58   S    
C25   O15   S    
C11   C23   S    
C44   N2    A    
C60   C61   S    
C64   H40   S    
C73   C74   S    
C56   H24   S    
O3    Zn2   S    
C11   C47   A    
C65   H51   S    
C66   H48   S    
C49   C51   A    
C71   C72   S    
C50   C52   A    
C31   C33   S    
C48   H11   S    
C72   H62   S    
C35   C65   S    
C47   H12   S    
O1    Zn1   S    
C3    C5    A    
C62   H44   S    
C28   C34   S    
C73   H65   S    
C53   N1    S    
C74   H67   S    
O7    Zn2   S    
C52   C54   A    
C59   H37   S    
C74   H66   S    
C45   C47   A    
C10   C21   A    
C43   N1    A    
C41   O9    S    
C58   H30   S    
C46   C48   A    
C68   H58   S    
C9    C43   A    
C43   O12   S    
C13   C19   A    
C10   C44   A    
C57   H26   S    
C34   O14   S    
O14   C57   S    
C14   C20   A    
C36   C40   S    
C69   C70   S    
C4    C6    A    
C27   H3    S    
C70   H54   S    
C69   H56   S    
C5    C7    A    
C63   H41   S    
C15   C26   A    
C6    C8    A    
C38   N4    S    
C55   C56   S    
N4    Zn2   S    
C49   H1    S    
C37   N3    S    
C29   C34   S    
C1    C32   S    
C50   H2    S    
O4    Zn1   S    
C21   H15   S    
C2    C31   S    
C51   C53   A    
C32   C34   S    
O2    Zn2   S    
C57   H27   S    
C3    C9    A    
C41   N1    A    
C62   C63   S    
C39   H5    S    
C46   C54   A    
C45   H14   S    
C61   H32   S    
C72   H63   S    
C55   H22   S    
C7    H9    S    
C64   H38   S    
C8    H10   S    
C54   N2    S    
C4    C17   A    
C20   C22   A    
C70   H52   S    
C23   O7    A    
C73   H64   S    
C1    O1    A    
C40   N4    S    
C2    O4    A    
C42   O10   S    
C38   C62   S    
C4    C10   A    
C67   H45   S    
C60   H35   S    
C74   H68   S    
C63   C64   S    
C65   C66   S    
C16   C25   A    
C15   C17   A    
C5    C41   A    
N3    Zn1   S    
C30   C33   S    
C19   C21   A    
C27   C32   S    
C14   C15   A    
C37   C59   S    
C28   C31   S    
C66   H49   S    
C67   H46   S    
C33   O13   S    
C69   H55   S    
C12   C50   A    
C68   C69   S    
C28   H4    S    
O5    Zn1   S    
C58   H28   S    
C12   C24   S    
C35   N4    S    
C42   N2    A    
C7    C25   A    
C13   C17   A    
O8    Zn1   S    
C36   C38   S    
C66   C67   S    
C24   O6    A    
C46   H13   S    
C29   C31   S    
C52   H8    S    
O15   C71   S    
C30   C32   S    
C35   C39   S    
C28   C30   S    
C61   H33   S    
C71   H60   S    
C55   H21   S    
C36   C68   S    
C64   H39   S    
C2    O2    A    
C45   C53   A    
C65   H50   S    
C16   C18   A    
C6    C42   A    
C13   C16   A    
C71   H59   S    
C20   H18   S    
O6    Zn2   S    
C72   H61   S    
C59   C60   S    
C24   O8    A    
C60   H34   S    
C22   H16   S    
C44   O11   S    
C26   O16   S    
C62   H43   S    
