data_mof_unit_51372.cif
_audit_creation_date              2013-03-05T16:01:06-0500
_audit_creation_method            fapswitch 2.2
_symmetry_space_group_name_H-M    P1
_symmetry_Int_Tables_number       1
_space_group_crystal_system       triclinic
_cell_length_a                    8.323979
_cell_length_b                    13.172375
_cell_length_c                    18.900994
_cell_angle_alpha                 100.711523
_cell_angle_beta                  91.197963
_cell_angle_gamma                 98.77204
_cell_volume                      2009.90895712

loop_
_atom_site_label
_atom_site_type_symbol
_atom_site_description
_atom_site_fract_x
_atom_site_fract_y
_atom_site_fract_z
_atom_type_partial_charge
P1    P     P_3+3 0.041040 0.394770 0.336330 0.634585
O1    O     O_2   0.873090 0.425890 0.325140 -0.340122
O2    O     O_3   0.122420 0.434370 0.414380 -0.359225
O3    O     O_3   0.659500 0.627100 0.368810 -0.333396
O4    O     O_2   0.774560 0.531442 0.247155 -0.307696
O5    O     O_3   0.986012 0.258754 0.323572 -0.475457
O6    O     O_3   0.709062 0.711985 0.243245 -0.478609
H1    H     H_    0.479765 0.748887 0.275294 0.060669
C1    C     C_3   0.681548 0.859755 0.333505 -0.730790
H2    H     H_    0.719166 0.817669 0.374914 0.268699
H3    H     H_    0.789107 0.909738 0.318960 0.278460
P2    P     P_3+3 0.672880 0.754030 0.556100 0.502638
P3    P     P_3+3 0.122221 0.818477 0.406658 0.596621
O7    O     O_2   0.848200 0.768190 0.534530 -0.416657
O8    O     O_3   0.081160 0.685950 0.404810 -0.254166
O9    O     O_2   0.009805 0.869152 0.461469 -0.366187
O10   O     O_3   0.677397 0.800172 0.649663 -0.619701
O11   O     O_3   0.040172 0.840289 0.325331 -0.526362
C2    C     C_3   0.151977 0.834715 0.270587 0.636591
H4    H     H_    0.278003 0.857899 0.293318 0.007198
C3    C     C_3   0.118509 0.909709 0.220265 -0.064551
H5    H     H_    0.144706 0.991593 0.250368 0.172682
C4    C     C_3   0.229091 0.781165 0.619713 0.433361
H6    H     H_    0.355135 0.770438 0.607439 0.117384
H7    H     H_    0.143369 0.743443 0.573337 0.143690
C5    C     C_3   0.218267 0.897169 0.632771 -0.985843
H8    H     H_    0.253372 0.932933 0.689693 0.283315
H9    H     H_    0.298508 0.937106 0.596856 0.214561
H10   H     H_    0.091983 0.908504 0.621507 0.254231
Ba1   Ba    Ba6+2 0.852780 0.548340 0.465070 1.732020
C6    C     C_3   0.954599 0.228151 0.389610 0.472857
H11   H     H_    0.856168 0.266438 0.415823 0.016682
H12   H     H_    0.064760 0.248071 0.426304 0.165221
C7    C     C_3   0.905090 0.110277 0.375032 -0.880869
H13   H     H_    0.779844 0.088400 0.351201 0.254807
H14   H     H_    0.913410 0.078802 0.425050 0.243593
H15   H     H_    0.985798 0.073478 0.335857 0.308364
C8    C     C_3   0.778734 0.755069 0.690498 0.692830
H16   H     H_    0.867183 0.713795 0.658177 0.033300
C9    C     C_3   0.867332 0.843536 0.749059 0.039438
H17   H     H_    0.945876 0.901427 0.724116 0.114296
H18   H     H_    0.776543 0.884765 0.779945 0.206391
P4    P     P_3+3 0.148670 0.605320 0.663680 0.523245
O12   O     O_2   0.316610 0.574140 0.674900 -0.310086
O13   O     O_3   0.067290 0.565720 0.585630 -0.409364
O14   O     O_3   0.530210 0.372990 0.631200 -0.384277
O15   O     O_3   0.190209 0.742414 0.682416 -0.527386
P5    P     P_3+3 0.058955 0.179242 0.598071 0.444176
O16   O     O_3   0.611340 0.366290 0.463630 -0.395790
O17   O     O_3   0.108550 0.314140 0.595200 -0.410230
O18   O     O_2   0.182427 0.124187 0.551485 -0.355220
O19   O     O_3   0.110193 0.162035 0.684878 -0.515693
Ba2   Ba    Ba6+2 0.337060 0.451750 0.534940 1.673039
P6    P     P_3+3 0.642324 0.596616 0.273791 0.568256
C10   C     C_3   0.605410 0.784465 0.266289 0.432942
H19   H     H_    0.593410 0.828322 0.222356 0.187054
H20   H     H_    0.595209 0.910417 0.356768 0.204406
O20   O     O_3   0.578370 0.633800 0.536380 -0.307281
C11   C     C_3   0.520673 0.214456 0.304585 0.576874
H21   H     H_    0.607129 0.288798 0.317694 0.050779
C12   C     C_3   0.566444 0.147571 0.233565 0.012068
H22   H     H_    0.540968 0.184610 0.187245 0.147642
H23   H     H_    0.697044 0.141475 0.238687 0.189403
P7    P     P_3+3 0.526758 0.230004 0.449016 0.531064
O21   O     O_2   0.341510 0.231850 0.465510 -0.267454
O22   O     O_3   0.531099 0.159258 0.360128 -0.573061
H24   H     H_    0.201049 0.902785 0.175220 0.185901
C13   C     C_3   0.068039 0.245512 0.735080 0.396024
H25   H     H_    0.143247 0.320632 0.729605 0.136712
H26   H     H_    0.937320 0.251421 0.728078 0.048676
C14   C     C_3   0.099876 0.227380 0.810932 -0.705221
H27   H     H_    0.231017 0.226166 0.820664 0.300988
H28   H     H_    0.061850 0.290854 0.851162 0.204659
H29   H     H_    0.031683 0.151074 0.817945 0.281604
P8    P     P_3+3 0.551638 0.387898 0.722859 0.550591
C15   C     C_3   0.545291 0.188307 0.689729 0.309095
H30   H     H_    0.674471 0.215447 0.680197 0.020355
O23   O     O_2   0.421488 0.454578 0.751989 -0.325126
O24   O     O_3   0.478350 0.262752 0.738376 -0.480596
H31   H     H_    0.472318 0.171077 0.637856 0.084973
C16   C     C_3   0.535019 0.087462 0.719009 0.065679
H32   H     H_    0.542383 0.020889 0.674288 0.077814
H33   H     H_    0.418816 0.073404 0.745867 0.181205
C17   C     C_R   0.998512 0.457276 0.047422 0.010384
C18   C     C_R   0.898088 0.406711 0.093273 0.009178
C19   C     C_R   0.732449 0.374091 0.073079 -0.112333
C20   C     C_R   0.670167 0.387275 0.008445 -0.122934
C21   C     C_R   0.772394 0.425343 0.958016 -0.006484
C22   C     C_R   0.935977 0.464852 0.978298 0.009827
C23   C     C_R   0.712149 0.417971 0.887288 0.317805
C24   C     C_R   0.813607 0.457502 0.834891 -0.196685
C25   C     C_R   0.976529 0.507594 0.857639 -0.004206
C26   C     C_R   0.036648 0.509188 0.929498 -0.018100
C27   C     C_R   0.761761 0.447961 0.761078 0.249778
C28   C     C_R   0.870245 0.488413 0.712895 -0.436783
C29   C     C_R   0.025911 0.545200 0.734851 0.234570
C30   C     C_R   0.080981 0.554266 0.808947 0.015882
C31   C     C_R   0.161883 0.495088 0.069233 0.027128
C32   C     C_R   0.222833 0.486619 0.139091 0.068985
C33   C     C_R   0.118569 0.437082 0.186529 -0.192534
C34   C     C_R   0.963882 0.387820 0.157743 0.386011
H34   H     H_    0.645343 0.338296 0.105805 0.183436
H35   H     H_    0.540444 0.362946 0.997922 0.188860
H36   H     H_    0.828695 0.480194 0.657186 0.166950
C35   C     C_R   0.237689 0.607074 0.836308 -0.044544
C36   C     C_R   0.298224 0.603826 0.906325 0.124412
C37   C     C_R   0.198535 0.552982 0.952682 0.064891
C38   C     C_R   0.261560 0.544996 0.022180 0.080598
C39   C     C_R   0.460023 0.646880 0.929923 -0.083772
C40   C     C_R   0.522814 0.637068 0.997560 -0.148319
C41   C     C_R   0.424584 0.586075 0.044222 0.132877
C42   C     C_R   0.386119 0.529742 0.161512 0.014683
C43   C     C_R   0.486483 0.576411 0.112518 -0.223439
C44   C     C_R   0.441068 0.527654 0.232924 0.126166
C45   C     C_R   0.335544 0.481881 0.279411 -0.283148
C46   C     C_R   0.172298 0.440035 0.260403 0.332817
H37   H     H_    0.316497 0.648564 0.802877 0.192901
H38   H     H_    0.539737 0.685822 0.895207 0.181171
H39   H     H_    0.648808 0.669435 0.013351 0.178543
H40   H     H_    0.613640 0.605476 0.126562 0.193701
H41   H     H_    0.381477 0.482679 0.333428 0.200080
C47   C     C_R   0.749836 0.180419 0.539572 -0.568372
C48   C     C_R   0.431297 0.809068 0.468581 -0.050824
C49   C     C_R   0.390017 0.980562 0.450927 0.392176
C50   C     C_R   0.335195 0.874036 0.443045 -0.021859
C51   C     C_R   0.576330 0.849624 0.510621 0.105704
C52   C     C_R   0.633628 0.961883 0.521911 -0.139930
C53   C     C_R   0.539948 0.028818 0.491118 -0.185633
C54   C     C_R   0.602104 0.139764 0.501598 0.318400
C55   C     C_R   0.846459 0.116795 0.564968 0.213723
C56   C     C_R   0.786238 0.008724 0.558841 -0.104985
H42   H     H_    0.861841 0.961577 0.580778 0.161940
H43   H     H_    0.797316 0.262799 0.544308 0.152946
Cl1   Cl    Cl    0.650513 0.667181 0.733384 -0.627285
Cl2   Cl    Cl    0.988488 0.798387 0.811940 -0.567795
N1    N     N_R   0.358106 0.238280 0.298003 0.207761
O25   O     O_R   0.262259 0.202369 0.240583 -0.398636
O26   O     O_R   0.313429 0.303375 0.350518 -0.424686
N2    N     N_R   0.478097 0.042121 0.216826 0.257916
O27   O     O_R   0.458788 0.995658 0.149462 -0.341925
O28   O     O_R   0.475361 0.985306 0.265690 -0.464268
Cl3   Cl    Cl    0.697484 0.094032 0.782971 -0.612496
N3    N     N_R   0.138079 0.728834 0.228971 0.222022
O29   O     O_R   0.060843 0.650153 0.253161 -0.332239
O30   O     O_R   0.216554 0.711982 0.170301 -0.459991
N4    N     N_R   0.552822 0.359058 0.869891 0.247573
O31   O     O_R   0.428366 0.407349 0.881702 -0.445099
O32   O     O_R   0.532619 0.259849 0.872514 -0.335242
N5    N     N_R   0.878821 0.307976 0.188672 0.224165
O33   O     O_R   0.912902 0.213657 0.171257 -0.335657
O34   O     O_R   0.740203 0.323318 0.214157 -0.519658
Cl4   Cl    Cl    0.262887 0.038685 0.400469 -0.582196
N6    N     N_R   0.386714 0.699387 0.444551 0.256223
O35   O     O_R   0.371124 0.666169 0.375546 -0.465507
O36   O     O_R   0.303674 0.644053 0.485449 -0.364056
N7    N     N_R   0.951804 0.887149 0.189336 0.271829
O37   O     O_R   0.904509 0.801763 0.142141 -0.321694
O38   O     O_R   0.863190 0.961339 0.196625 -0.343986

loop_
_geom_bond_atom_site_label_1
_geom_bond_atom_site_label_2
_geom_bond_distance
_ccdc_geom_bond_type
C10   H19   1.107110 S    
C51   C52   1.457027 A    
C45   H41   1.080352 S    
Ba2   O20   2.879286 S    
C7    H15   1.105109 S    
N2    O28   1.290825 A    
Ba1   O13   2.818591 S    
C2    H4    1.101365 S    
C33   C46   1.448996 A    
C15   O24   1.403733 S    
O6    C10   1.399290 S    
C20   C21   1.401962 A    
P5    C55   1.874945 S    
C53   C54   1.449199 A    
C42   C44   1.422545 A    
C44   C45   1.405270 A    
P2    O20   1.629195 S    
C18   C19   1.402732 A    
C5    H8    1.105120 S    
P3    O11   1.758400 S    
C25   C26   1.432962 A    
N7    O37   1.301168 A    
C2    C3    1.542810 S    
C7    H13   1.101505 S    
N5    O34   1.289352 A    
C11   O22   1.391936 S    
C8    H16   1.108271 S    
C48   C50   1.396939 A    
P2    C51   1.911157 S    
C36   C37   1.408497 A    
N3    O29   1.296817 A    
Ba1   O20   2.941148 S    
C11   N1    1.442954 S    
C31   C38   1.411869 A    
P1    O1    1.536837 D    
C4    C5    1.518788 S    
C34   N5    1.402830 S    
C12   H23   1.105783 S    
C40   C41   1.407287 A    
C42   C43   1.421520 A    
C16   H33   1.108354 S    
O12   Ba2   2.853645 S    
P4    Ba2   3.430670 S    
P5    O18   1.544465 D    
C28   C29   1.406150 A    
C13   H25   1.110670 S    
P2    O10   1.757517 S    
C25   C30   1.435862 A    
C4    H6    1.103536 S    
C6    H12   1.105929 S    
C1    C10   1.518411 S    
P1    C46   1.947747 S    
N6    O36   1.297978 A    
Ba2   O21   2.955598 S    
C1    H2    1.105412 S    
C47   C54   1.390503 A    
C7    H14   1.105517 S    
O19   C13   1.405821 S    
C49   C53   1.441375 A    
P3    C50   1.875523 S    
C21   C22   1.399929 A    
C9    H18   1.110237 S    
O5    C6    1.399074 S    
C49   Cl4   1.758398 S    
O13   Ba2   2.966103 S    
C11   H21   1.107091 S    
O16   P7    1.793542 S    
C3    H5    1.108872 S    
C3    H24   1.104522 S    
C35   H37   1.079192 S    
C12   H22   1.110001 S    
O7    Ba1   2.955339 S    
H1    C10   1.109068 S    
O14   P8    1.709288 S    
Ba1   Ba2   4.645345 S    
C39   H38   1.083274 S    
C16   H32   1.109181 S    
N4    O32   1.302266 A    
C9    Cl2   1.782939 S    
C11   C12   1.551575 S    
O17   Ba2   2.829739 S    
C4    O15   1.400146 S    
P1    O5    1.749988 S    
O4    P6    1.533893 D    
C15   H30   1.109637 S    
N1    O26   1.286506 A    
C24   C25   1.434104 A    
C14   H28   1.109908 S    
C19   C20   1.367910 A    
O11   C2    1.405361 S    
C48   C51   1.407002 A    
P2    Ba1   3.486562 S    
P1    O2    1.572144 S    
P7    O22   1.767254 S    
C40   H39   1.083516 S    
O2    Ba1   2.965193 S    
P4    O12   1.537195 D    
C47   H43   1.083214 S    
C43   H40   1.078997 S    
P4    O13   1.572144 S    
C32   C33   1.435357 A    
C37   C38   1.432203 A    
C29   C30   1.442233 A    
P4    C29   1.920289 S    
C6    C7    1.515791 S    
C41   C43   1.414670 A    
C17   C18   1.403034 A    
C1    H3    1.099287 S    
C20   H35   1.081679 S    
C16   Cl3   1.776207 S    
Ba1   O16   2.879905 S    
P2    O7    1.516857 D    
P3    O8    1.720563 S    
C17   C22   1.422588 A    
C52   C53   1.451098 A    
C19   H34   1.074029 S    
C18   C34   1.404668 A    
C28   H36   1.082129 S    
O8    Ba1   2.829106 S    
N4    O31   1.298296 A    
C48   N6    1.420153 S    
N3    O30   1.299482 A    
C9    H17   1.107106 S    
C8    Cl1   1.773300 S    
C2    N3    1.454816 S    
O3    P6    1.763741 S    
C6    H11   1.105103 S    
C12   N2    1.444179 S    
C15   H31   1.110003 S    
C21   C23   1.398889 A    
N1    O25   1.302303 A    
C56   H42   1.075946 S    
C15   C16   1.522745 S    
C14   H29   1.108474 S    
N2    O27   1.301271 A    
C35   C36   1.416629 A    
C5    H9    1.108241 S    
C38   C41   1.405853 A    
O1    Ba1   2.853303 S    
C17   C31   1.400350 A    
P7    O21   1.582489 D    
N7    O38   1.300834 A    
C55   C56   1.417688 A    
C30   C35   1.419218 A    
C14   H27   1.106226 S    
C23   N4    1.429067 S    
N5    O33   1.300689 A    
C26   C37   1.408867 A    
C24   C27   1.428820 A    
C8    C9    1.533388 S    
O2    Ba2   2.819246 S    
C23   C24   1.434477 A    
P4    O15   1.752941 S    
C13   C14   1.521001 S    
O16   Ba2   2.940234 S    
C32   C42   1.414430 A    
P6    C44   1.857204 S    
O14   Ba2   2.838946 S    
P5    O17   1.773101 S    
P1    Ba1   3.430062 S    
C3    N7    1.459913 S    
C1    H20   1.098006 S    
O10   C8    1.398680 S    
C4    H7    1.108241 S    
C22   C26   1.406178 A    
C27   C28   1.413074 A    
P8    O23   1.543920 D    
C52   C56   1.430178 A    
P5    O19   1.750361 S    
P7    C54   1.853252 S    
C5    H10   1.105867 S    
C13   H26   1.109579 S    
C31   C32   1.434300 A    
P3    O9    1.538979 D    
C33   C34   1.399880 A    
O6    P6    1.741685 S    
N6    O35   1.293383 A    
C39   C40   1.406519 A    
P8    O24   1.748173 S    
C47   C55   1.385156 A    
O3    Ba1   2.839603 S    
C45   C46   1.398896 A    
P8    C27   1.876079 S    
C49   C50   1.386914 A    
C36   C39   1.407959 A    
