data_mof_unit_45184.cif
_audit_creation_date              2012-12-10T17:47:50-0500
_audit_creation_method            fapswitch 2.2
_symmetry_space_group_name_H-M    P1
_symmetry_Int_Tables_number       1
_space_group_crystal_system       triclinic
_cell_length_a                    14.986803
_cell_length_b                    15.643494
_cell_length_c                    14.520017
_cell_angle_alpha                 74.902186
_cell_angle_beta                  103.485675
_cell_angle_gamma                 118.748567
_cell_volume                      2858.02166918

loop_
_atom_site_label
_atom_site_type_symbol
_atom_type_description
_atom_site_fract_x
_atom_site_fract_y
_atom_site_fract_z
_atom_type_partial_charge
C1    C     C_R   0.880652 0.316493 0.497798 0.779156
C2    C     C_R   0.120272 0.685718 0.490842 0.767585
C3    C     C_R   0.642055 0.081681 0.460328 0.037292
C4    C     C_R   0.362713 0.923235 0.482052 0.042697
C5    C     C_R   0.680481 0.011046 0.496218 -0.050224
C6    C     C_R   0.325678 0.992733 0.436923 -0.109784
C7    C     C_R   0.536942 0.053988 0.463244 -0.175220
C8    C     C_R   0.468686 0.951228 0.486193 -0.114662
C9    C     C_R   0.506034 0.879205 0.506365 0.348553
C10   C     C_R   0.497364 0.124862 0.448940 0.404637
C11   C     C_R   0.613797 0.909666 0.524230 0.348205
C12   C     C_R   0.391383 0.093422 0.429498 0.403749
C13   C     C_R   0.701501 0.632966 0.321822 -0.310271
C14   C     C_R   0.289847 0.361842 0.681216 -0.307048
C15   C     C_R   0.779634 0.604224 0.351020 0.053111
C16   C     C_R   0.205894 0.379441 0.643874 0.098092
C17   C     C_R   0.722040 0.526800 0.503042 0.012348
C18   C     C_R   0.278412 0.474397 0.501034 -0.065094
C19   C     C_R   0.633005 0.543187 0.473638 0.001248
C20   C     C_R   0.368596 0.463610 0.536060 -0.020396
C21   C     C_R   0.628588 0.603349 0.382493 0.180472
C22   C     C_R   0.372094 0.406322 0.629126 0.153444
C23   C     C_R   0.000637 0.499407 0.668269 0.797235
C24   C     C_R   0.999535 0.500824 0.331702 0.759614
C25   C     C_R   0.545050 0.496100 0.526954 0.055673
C26   C     C_R   0.457023 0.512411 0.486746 0.057268
C27   C     C_R   0.460026 0.576557 0.397239 -0.281862
C28   C     C_R   0.537198 0.425532 0.613478 -0.201076
C29   C     C_R   0.546068 0.624664 0.349512 -0.203711
C30   C     C_R   0.457633 0.389100 0.669121 -0.357101
C31   C     C_1   0.001418 0.499367 0.770859 -0.193063
C32   C     C_1   0.998801 0.500753 0.229194 -0.202215
C33   C     C_1   0.000569 0.499752 0.855939 -0.003071
C34   C     C_1   0.999754 0.500268 0.144190 -0.011040
C35   C     C_1   0.000145 0.499947 0.957225 0.001359
C36   C     C_1   0.000256 0.500012 0.042954 -0.000660
C37   C     C_R   0.816796 0.213979 0.472208 -0.222375
C38   C     C_R   0.186708 0.793466 0.481872 -0.198278
C39   C     C_R   0.787508 0.043569 0.502001 -0.173709
C40   C     C_R   0.221184 0.961375 0.406489 -0.226003
C41   C     C_R   0.857058 0.145042 0.487669 0.452358
C42   C     C_R   0.150704 0.863241 0.426896 0.445272
C43   C     C_R   0.714007 0.180800 0.431338 -0.281380
C44   C     C_R   0.290487 0.827882 0.518490 -0.213271
Cu1   Cu    Cu3+1 0.081740 0.475690 0.523180 0.925541
Cu2   Cu    Cu3+1 0.918260 0.524310 0.476820 0.933402
H1    H     H_    0.395044 0.587620 0.358533 0.145161
H2    H     H_    0.476589 0.348119 0.609911 0.177704
H3    H     H_    0.312831 0.777922 0.572955 0.223580
H4    H     H_    0.690421 0.235667 0.389643 0.223297
H5    H     H_    0.818491 0.990692 0.520983 0.199596
H6    H     H_    0.192743 0.014358 0.368545 0.189430
H7    H     H_    0.544826 0.674064 0.281975 0.141062
H8    H     H_    0.461325 0.348374 0.744041 0.171366
H9    H     H_    0.266540 0.513592 0.431271 0.126342
H10   H     H_    0.731535 0.485540 0.573245 0.132731
H11   H     H_    0.143300 0.349434 0.685731 0.142810
H12   H     H_    0.833411 0.623130 0.302810 0.125292
H13   H     H_    0.695913 0.674719 0.250466 0.134641
H14   H     H_    0.290128 0.314349 0.750952 0.144706
N1    N     N_R   0.795420 0.560790 0.441960 -0.178211
N2    N     N_R   0.204580 0.439210 0.558040 -0.192811
O1    O     O_R   0.977910 0.338120 0.530560 -0.556739
O2    O     O_R   0.022090 0.661880 0.469440 -0.550142
O3    O     O_R   0.839850 0.379180 0.491410 -0.596552
O4    O     O_R   0.160150 0.620820 0.508590 -0.561791
O5    O     O_R   0.069040 0.479460 0.643530 -0.562443
O6    O     O_R   0.930960 0.520540 0.356470 -0.573915
O7    O     O_R   0.930990 0.520530 0.604380 -0.559523
O8    O     O_R   0.069010 0.479470 0.395620 -0.584899
O9    O     O_3   0.661430 0.848562 0.570820 -0.637205
C45   C     C_3   0.599324 0.746456 0.600678 0.153523
H15   H     H_    0.650127 0.709893 0.620767 0.143896
H16   H     H_    0.547109 0.709073 0.541502 0.163602
C46   C     C_3   0.547563 0.723627 0.690088 -0.339153
H17   H     H_    0.607068 0.734586 0.754010 0.198534
H18   H     H_    0.513933 0.774057 0.685023 0.238985
C47   C     C_3   0.462399 0.617230 0.704198 -0.846874
H19   H     H_    0.400437 0.605669 0.642530 0.284740
H20   H     H_    0.428021 0.600814 0.770071 0.245553
H21   H     H_    0.495094 0.565021 0.712388 0.262882
O10   O     O_3   0.351577 0.161337 0.394918 -0.593938
C48   C     C_3   0.338715 0.194623 0.470853 0.085245
H22   H     H_    0.343227 0.269183 0.441219 0.177981
H23   H     H_    0.400524 0.204218 0.530889 0.131533
C49   C     C_3   0.234837 0.126169 0.508631 -0.414532
H24   H     H_    0.172775 0.112143 0.447949 0.246121
H25   H     H_    0.232555 0.054383 0.547991 0.227634
C50   C     C_3   0.214996 0.172502 0.576657 -0.855963
H26   H     H_    0.272032 0.179945 0.642336 0.248278
H27   H     H_    0.136889 0.125135 0.597616 0.285696
H28   H     H_    0.220870 0.246262 0.540336 0.261263
O11   O     O_3   0.048936 0.845335 0.414615 -0.598072
C51   C     C_3   0.992154 0.801476 0.333174 0.092719
H29   H     H_    0.912004 0.769272 0.345121 0.196008
H30   H     H_    0.015605 0.748427 0.321078 0.153922
C52   C     C_3   0.998747 0.872157 0.238634 -0.434970
H31   H     H_    0.977856 0.929930 0.243199 0.233055
H32   H     H_    0.079054 0.908991 0.221187 0.216402
C53   C     C_3   0.924260 0.812858 0.159788 -0.902948
H33   H     H_    0.933424 0.745709 0.161653 0.247971
H34   H     H_    0.939650 0.860741 0.088486 0.267319
H35   H     H_    0.843004 0.788290 0.168307 0.244880
O12   O     O_3   0.962198 0.170943 0.500544 -0.615919
C54   C     C_3   0.016666 0.243414 0.424402 0.151903
H36   H     H_    0.091724 0.293778 0.459799 0.194558
H37   H     H_    0.979534 0.290910 0.381397 0.114264
C55   C     C_3   0.035273 0.197378 0.352901 -0.400785
H38   H     H_    0.028073 0.122042 0.384951 0.232948
H39   H     H_    0.973801 0.186419 0.290850 0.197547
C56   C     C_3   0.137602 0.267177 0.311038 -0.861341
H40   H     H_    0.128065 0.325885 0.252915 0.251842
H41   H     H_    0.163528 0.226365 0.279890 0.265235
H42   H     H_    0.199583 0.303717 0.366944 0.244950
O13   O     O_3   0.436297 0.780379 0.514251 -0.644821
C57   C     C_3   0.413764 0.745988 0.427048 0.036462
H43   H     H_    0.379978 0.666183 0.449523 0.186831
H44   H     H_    0.484229 0.771134 0.394351 0.134685
C58   C     C_3   0.333019 0.768377 0.352013 -0.352764
H45   H     H_    0.263081 0.745362 0.381924 0.244799
H46   H     H_    0.365598 0.848439 0.320809 0.216377
C59   C     C_3   0.295379 0.707402 0.272324 -0.949901
H47   H     H_    0.361229 0.718486 0.240437 0.259358
H48   H     H_    0.243967 0.731056 0.215787 0.262497
H49   H     H_    0.250579 0.627659 0.300350 0.258240
O14   O     O_3   0.556671 0.224959 0.448074 -0.606787
C60   C     C_3   0.626402 0.244839 0.533732 -0.018071
H50   H     H_    0.683096 0.321199 0.514443 0.239282
H51   H     H_    0.661745 0.194434 0.566448 0.186166
C61   C     C_3   0.582329 0.246689 0.613189 -0.473803
H52   H     H_    0.561190 0.303477 0.577207 0.246619
H53   H     H_    0.517986 0.173387 0.636871 0.218205
C62   C     C_3   0.665008 0.284343 0.697472 -0.872096
H54   H     H_    0.686694 0.224971 0.736691 0.257097
H55   H     H_    0.636555 0.304875 0.747809 0.263315
H56   H     H_    0.735555 0.350122 0.673866 0.251533

loop_
_geom_bond_atom_site_label_1
_geom_bond_atom_site_label_2
_ccdc_geom_bond_type
C44   H3    S    
C7    C10   A    
C39   H5    S    
O11   C51   S    
C27   C29   A    
C42   O11   S    
C23   O7    A    
C35   C36   T    
C4    C8    A    
C60   H51   S    
C52   H31   S    
C24   O8    A    
C7    C8    A    
C39   C41   A    
Cu1   Cu2   S    
C55   H38   S    
C25   C28   A    
C38   C44   A    
C30   H8    S    
C3    C43   A    
C26   C27   A    
O14   C60   S    
C11   O9    S    
C20   C26   A    
C41   O12   S    
C19   C21   A    
C5    C11   A    
C3    C7    A    
C6    C12   A    
C47   H20   S    
O13   C57   S    
Cu1   N2    S    
C57   H43   S    
C23   O5    A    
C46   H18   S    
Cu2   O7    S    
C17   N1    A    
C56   H40   S    
C57   H44   S    
C8    C9    A    
Cu1   O5    S    
C62   H56   S    
C1    O3    A    
C31   C33   T    
C50   H27   S    
C18   C20   A    
C1    C37   S    
C40   C42   A    
C16   N2    A    
C45   C46   S    
C1    O1    A    
O12   C54   S    
C52   H32   S    
C2    O2    A    
C58   H46   S    
C54   C55   S    
Cu2   N1    S    
C13   C21   A    
C9    O13   S    
C6    C40   A    
Cu2   O3    S    
C4    C6    A    
C47   H19   S    
C18   N2    A    
C4    C44   A    
C51   C52   S    
C3    C5    A    
C25   C26   A    
C40   H6    S    
C21   C29   A    
Cu1   O1    S    
C53   H35   S    
Cu2   O2    S    
C23   C31   S    
C37   C43   A    
C61   H53   S    
C46   H17   S    
C24   C32   S    
Cu2   O6    S    
C54   H37   S    
C2    C38   S    
C48   H22   S    
C53   H34   S    
C15   N1    A    
C12   O10   S    
C56   H41   S    
C50   H28   S    
C51   H30   S    
C9    C11   A    
C17   H10   S    
C10   C12   A    
C18   H9    S    
C45   H16   S    
C48   H23   S    
C20   C22   A    
C13   C15   A    
C62   H54   S    
C15   H12   S    
C14   C16   A    
C61   C62   S    
C59   H48   S    
C60   H50   S    
C52   C53   S    
C58   C59   S    
C27   H1    S    
C28   H2    S    
C22   C30   A    
Cu1   O8    S    
C49   H24   S    
C45   H15   S    
C2    O4    A    
C49   C50   S    
C58   H45   S    
C55   C56   S    
C43   H4    S    
C38   C42   A    
C13   H13   S    
C14   H14   S    
C54   H36   S    
C57   C58   S    
C14   C22   A    
C59   H49   S    
C5    C39   A    
C61   H52   S    
C59   H47   S    
C60   C61   S    
O9    C45   S    
C47   H21   S    
C29   H7    S    
C28   C30   A    
C53   H33   S    
C33   C35   S    
C34   C36   S    
C55   H39   S    
C56   H42   S    
C49   H25   S    
C16   H11   S    
C37   C41   A    
C51   H29   S    
C19   C25   A    
C46   C47   S    
C24   O6    A    
C17   C19   A    
C48   C49   S    
O10   C48   S    
Cu1   O4    S    
C62   H55   S    
C50   H26   S    
C10   O14   S    
C32   C34   T    
