data_mof_unit_63195.cif
_audit_creation_date              2012-10-26T18:36:29-0400
_audit_creation_method            fapswitch 2.2
_symmetry_space_group_name_H-M    P1
_symmetry_Int_Tables_number       1
_space_group_crystal_system       triclinic
_cell_length_a                    12.749411
_cell_length_b                    13.902323
_cell_length_c                    17.384572
_cell_angle_alpha                 90.159235
_cell_angle_beta                  97.969448
_cell_angle_gamma                 82.111381
_cell_volume                      3022.30129526

loop_
_atom_site_label
_atom_site_type_symbol
_atom_type_description
_atom_site_fract_x
_atom_site_fract_y
_atom_site_fract_z
_atom_type_partial_charge
C1    C     C_R   0.516478 0.315791 0.500854 0.547556
C2    C     C_2   0.025769 0.526367 0.477721 -0.160494
C3    C     C_1   0.143798 0.519112 0.484026 0.156815
C4    C     C_1   0.856202 0.480888 0.515974 0.156815
C5    C     C_R   0.514448 0.497799 0.650864 0.538960
C6    C     C_R   0.485552 0.502200 0.349136 0.538961
C7    C     C_R   0.523922 0.497982 0.735755 0.002531
C8    C     C_R   0.476078 0.502016 0.264245 0.002530
C9    C     C_R   0.437448 0.543830 0.770025 -0.138333
C10   C     C_R   0.562554 0.456171 0.229976 -0.138334
C11   C     C_R   0.443377 0.547263 0.850198 -0.108022
C12   C     C_R   0.483522 0.684209 0.499146 0.547556
C13   C     C_R   0.556626 0.452737 0.149802 -0.108022
C14   C     C_R   0.535628 0.503631 0.897495 0.028821
C15   C     C_R   0.464373 0.496364 0.102505 0.028821
C16   C     C_R   0.623013 0.459310 0.863967 -0.114044
C17   C     C_R   0.376987 0.540682 0.136032 -0.114044
C18   C     C_R   0.617869 0.455282 0.783444 -0.018193
C19   C     C_R   0.382130 0.544710 0.216555 -0.018193
C20   C     C_2   0.542852 0.502649 0.982224 -0.128766
C21   C     C_2   0.457150 0.497346 0.017776 -0.128766
C22   C     C_1   0.291543 0.596146 0.247935 0.217135
C23   C     C_1   0.474105 0.787524 0.498541 -0.004898
C24   C     C_1   0.708453 0.403843 0.752063 0.217133
C25   C     C_1   0.525895 0.212476 0.501459 -0.004898
C26   C     C_2   0.456178 0.978374 0.497363 -0.116596
C27   C     C_2   0.543822 0.021626 0.502637 -0.116596
C28   C     C_1   0.534543 0.125429 0.502023 -0.040715
C29   C     C_1   0.465457 0.874571 0.497977 -0.040716
C30   C     C_2   0.974231 0.473633 0.522279 -0.160495
Cu1   Cu    Cu3+1 0.605120 0.493930 0.505020 1.017196
Cu2   Cu    Cu3+1 0.394880 0.506070 0.494980 1.017196
H1    H     H_    0.365492 0.578421 0.734715 0.134666
H2    H     H_    0.377164 0.020605 0.492567 0.141100
H3    H     H_    0.978626 0.577059 0.434725 0.135892
H4    H     H_    0.021374 0.422941 0.565275 0.135892
H5    H     H_    0.634512 0.421585 0.265287 0.134668
H6    H     H_    0.378750 0.496828 0.984245 0.121922
H7    H     H_    0.621252 0.503166 0.015755 0.121921
H8    H     H_    0.694310 0.425715 0.900773 0.110354
H9    H     H_    0.305688 0.574272 0.099226 0.110354
H10   H     H_    0.623808 0.414904 0.125131 0.112587
H11   H     H_    0.376197 0.585099 0.874871 0.112587
H12   H     H_    0.622836 0.979395 0.507433 0.141101
N1    N     N_1   0.763100 0.484810 0.512560 -0.179711
N2    N     N_1   0.236900 0.515190 0.487440 -0.179711
N3    N     N_1   0.218949 0.637392 0.272979 -0.284752
N4    N     N_1   0.781045 0.362593 0.727017 -0.284751
O1    O     O_R   0.601320 0.356300 0.504850 -0.486683
O2    O     O_R   0.398680 0.643700 0.495150 -0.486684
O3    O     O_R   0.423780 0.366550 0.496380 -0.494009
O4    O     O_R   0.576220 0.633450 0.503620 -0.494009
O5    O     O_R   0.599070 0.494270 0.618330 -0.483815
O6    O     O_R   0.400930 0.505730 0.381670 -0.483814
O7    O     O_R   0.421520 0.504520 0.609850 -0.506506
O8    O     O_R   0.578480 0.495480 0.390150 -0.506506

loop_
_geom_bond_atom_site_label_1
_geom_bond_atom_site_label_2
_ccdc_geom_bond_type
C2    H3    S    
C12   O2    A    
C5    C7    S    
Cu2   O3    S    
C11   H11   S    
Cu1   O8    S    
C9    C11   A    
Cu2   O7    S    
Cu1   Cu2   S    
C30   H4    S    
Cu1   O4    S    
C2    C30   D    
C7    C18   A    
C5    O7    A    
C2    C3    S    
C9    H1    S    
Cu1   O5    S    
C25   C28   T    
C1    C25   S    
C1    O3    A    
C12   C23   S    
Cu2   O2    S    
C26   C27   D    
C1    O1    A    
C16   H8    S    
C10   H5    S    
C18   C24   S    
C23   C29   T    
Cu2   O6    S    
C13   H10   S    
C12   O4    A    
Cu1   O1    S    
C6    O6    A    
C14   C16   A    
C4    N1    T    
C13   C15   A    
C11   C14   A    
C22   N3    T    
C17   H9    S    
C8    C19   A    
C14   C20   S    
C15   C21   S    
C19   C22   S    
C20   C21   D    
C26   C29   S    
C16   C18   A    
Cu1   N1    S    
C5    O5    A    
C27   C28   S    
C7    C9    A    
C20   H7    S    
C6    C8    S    
C3    N2    T    
C17   C19   A    
C15   C17   A    
Cu2   N2    S    
C27   H12   S    
C26   H2    S    
C8    C10   A    
C4    C30   S    
C21   H6    S    
C6    O8    A    
C10   C13   A    
C24   N4    T    
