data_mof_unit_33709.cif
_audit_creation_date              2012-10-26T18:30:16-0400
_audit_creation_method            fapswitch 2.2
_symmetry_space_group_name_H-M    P1
_symmetry_Int_Tables_number       1
_space_group_crystal_system       triclinic
_cell_length_a                    10.649509
_cell_length_b                    12.974141
_cell_length_c                    11.773204
_cell_angle_alpha                 98.882075
_cell_angle_beta                  92.762951
_cell_angle_gamma                 92.015564
_cell_volume                      1603.81029879

loop_
_atom_site_label
_atom_site_type_symbol
_atom_type_description
_atom_site_fract_x
_atom_site_fract_y
_atom_site_fract_z
_atom_type_partial_charge
C1    C     C_R   0.497377 0.299579 0.479277 0.569389
C2    C     C_R   0.608572 0.588720 0.850781 0.056736
C3    C     C_R   0.550499 0.544963 0.155129 0.170034
C4    C     C_R   0.449491 0.455045 0.844871 0.170069
C5    C     C_R   0.543918 0.536949 0.032191 -0.026655
C6    C     C_R   0.456071 0.463059 0.967810 -0.026646
C7    C     C_R   0.260004 0.501726 0.501326 0.585948
C8    C     C_R   0.739996 0.498275 0.498674 0.585960
C9    C     C_3   0.044295 0.516991 0.609578 -0.012492
C10   C     C_3   0.955704 0.483010 0.390421 -0.012490
C11   C     C_3   0.959304 0.422867 0.553734 -0.024478
C12   C     C_R   0.502626 0.700420 0.520722 0.569359
C13   C     C_3   0.040696 0.577135 0.446265 -0.024480
C14   C     C_3   0.876190 0.496851 0.496629 0.027403
C15   C     C_3   0.123810 0.503151 0.503370 0.027388
C16   C     C_3   0.960283 0.592014 0.553113 -0.155187
C17   C     C_3   0.039717 0.407988 0.446886 -0.155201
C18   C     C_R   0.507345 0.813592 0.532503 -0.041230
C19   C     C_R   0.492672 0.186404 0.467492 -0.041111
C20   C     C_R   0.437518 0.017347 0.353242 0.276718
C21   C     C_R   0.562523 0.982638 0.646733 0.276572
C22   C     C_R   0.444232 0.126085 0.364708 -0.116969
C23   C     C_R   0.534246 0.138682 0.559874 -0.066129
C24   C     C_R   0.555783 0.873912 0.635284 -0.116805
C25   C     C_2   0.918790 0.334005 0.613109 0.233023
C26   C     C_2   0.081210 0.665995 0.386889 0.233017
C27   C     C_2   0.091344 0.538213 0.733218 0.235658
C28   C     C_2   0.908652 0.461783 0.266782 0.235630
C29   C     C_3   0.468429 0.960427 0.164230 -0.104586
C30   C     C_3   0.531084 0.040188 0.835440 -0.105134
C31   C     C_2   0.368041 0.373181 0.774078 0.372435
C32   C     C_2   0.631942 0.626834 0.225920 0.372411
C33   C     C_3   0.290004 0.232019 0.995453 -0.089980
C34   C     C_R   0.465787 0.861314 0.440116 -0.065888
C35   C     C_3   0.709845 0.768017 0.004638 -0.089722
C36   C     C_R   0.524803 0.030568 0.551978 0.005324
C37   C     C_R   0.475230 0.969429 0.448007 0.005558
C38   C     C_R   0.378448 0.399655 0.028286 0.244703
C39   C     C_R   0.621539 0.600352 0.971714 0.244634
C40   C     C_R   0.391425 0.411282 0.149220 0.056727
Cu1   Cu    Cu3+1 0.509400 0.507730 0.615930 1.012208
Cu2   Cu    Cu3+1 0.490600 0.492270 0.384070 1.012218
H1    H     H_    0.926216 0.667248 0.596440 0.129589
H2    H     H_    0.010579 0.709732 0.347856 0.104415
H3    H     H_    0.070888 0.482254 0.790095 0.110278
H4    H     H_    0.929140 0.517720 0.209890 0.110296
H5    H     H_    0.563727 0.935886 0.189429 0.146365
H6    H     H_    0.474712 0.038922 0.137470 0.090222
H7    H     H_    0.431622 0.904263 0.088185 0.151892
H8    H     H_    0.523252 0.961649 0.861880 0.090366
H9    H     H_    0.436447 0.065835 0.810011 0.147528
H10   H     H_    0.568326 0.095808 0.911747 0.151787
H11   H     H_    0.280331 0.392066 0.733799 0.100789
H12   H     H_    0.073784 0.332753 0.403560 0.129561
H13   H     H_    0.719655 0.607954 0.266200 0.100758
H14   H     H_    0.242873 0.223750 0.075856 0.114229
H15   H     H_    0.388975 0.207219 0.001017 0.104193
H16   H     H_    0.239476 0.177723 0.924590 0.166732
H17   H     H_    0.610855 0.792783 0.999273 0.104624
H18   H     H_    0.756783 0.776354 0.924168 0.114108
H19   H     H_    0.760476 0.822294 0.075455 0.166847
H20   H     H_    0.426629 0.813821 0.361778 0.240711
H21   H     H_    0.573406 0.186171 0.638215 0.240589
H22   H     H_    0.590643 0.836791 0.706221 0.127827
H23   H     H_    0.409322 0.163227 0.293809 0.127622
H24   H     H_    0.669168 0.633701 0.803959 0.128794
H25   H     H_    0.330835 0.366300 0.196045 0.128749
H26   H     H_    0.989421 0.290267 0.652140 0.104402
N1    N     N_R   0.523540 0.519360 0.790140 -0.286722
N2    N     N_R   0.476460 0.480640 0.209860 -0.286716
O1    O     O_R   0.506670 0.354460 0.582000 -0.468657
O2    O     O_2   0.192428 0.689950 0.382408 -0.471508
O3    O     O_2   0.153226 0.618289 0.770327 -0.474451
O4    O     O_2   0.846738 0.381719 0.229689 -0.474450
O5    O     O_3   0.384739 0.958170 0.253218 -0.551708
O6    O     O_3   0.615312 0.041752 0.746776 -0.551829
O7    O     O_2   0.396695 0.282098 0.764277 -0.530301
O8    O     O_2   0.603281 0.717917 0.235720 -0.529814
O9    O     O_3   0.281437 0.334869 0.970680 -0.565966
O10   O     O_3   0.718541 0.665150 0.029311 -0.566024
O11   O     O_R   0.493330 0.645540 0.418000 -0.468679
O12   O     O_R   0.490800 0.341410 0.386200 -0.519883
O13   O     O_R   0.509200 0.658590 0.613800 -0.519892
O14   O     O_R   0.324790 0.506500 0.597880 -0.515234
O15   O     O_R   0.675210 0.493500 0.402120 -0.515208
O16   O     O_R   0.308910 0.493440 0.402080 -0.484337
O17   O     O_R   0.691090 0.506560 0.597920 -0.484334
O18   O     O_2   0.807572 0.310051 0.617591 -0.471502

loop_
_geom_bond_atom_site_label_1
_geom_bond_atom_site_label_2
_ccdc_geom_bond_type
C30   H9    S    
C33   H16   S    
C34   C37   A    
C26   O2    D    
Cu1   Cu2   S    
Cu2   O12   S    
Cu2   N2    S    
C28   O4    D    
C26   H2    S    
C21   C36   A    
C29   H7    S    
C25   H26   S    
C21   O6    S    
C28   H4    S    
C1    O1    A    
C40   N2    A    
C29   H5    S    
C18   C24   A    
C36   C37   A    
C9    C16   S    
C5    C6    A    
C11   C14   S    
C7    O16   A    
C38   O9    S    
C11   C25   S    
C10   C17   S    
Cu1   O13   S    
C35   O10   S    
C34   H20   S    
C30   O6    S    
C35   H17   S    
C8    O15   A    
C2    C39   A    
C40   H25   S    
C33   H15   S    
C6    C38   A    
Cu2   O16   S    
C2    N1    A    
C32   H13   S    
Cu1   O1    S    
C27   H3    S    
C33   H14   S    
C23   H21   S    
C7    O14   A    
C30   H8    S    
C24   H22   S    
Cu2   O11   S    
C4    N1    A    
C31   O7    D    
Cu1   O17   S    
C1    C19   S    
C29   H6    S    
C3    N2    A    
C4    C6    A    
C10   C14   S    
C33   O9    S    
C2    H24   S    
C1    O12   A    
Cu1   O14   S    
C25   O18   D    
C12   O13   A    
C35   H18   S    
C19   C23   A    
C22   H23   S    
C18   C34   A    
C19   C22   A    
C35   H19   S    
Cu2   O15   S    
C31   H11   S    
C9    C11   S    
C16   H1    S    
C20   C22   A    
C13   C15   S    
C14   C16   S    
C13   C26   S    
C21   C24   A    
C9    C27   S    
Cu1   N1    S    
C10   C28   S    
C15   C17   S    
C30   H10   S    
C11   C17   S    
C8    C14   S    
C3    C5    A    
C10   C13   S    
C29   O5    S    
C8    O17   A    
C39   O10   S    
C5    C39   A    
C9    C15   S    
C38   C40   A    
C20   C37   A    
C7    C15   S    
C12   O11   A    
C3    C32   S    
C4    C31   S    
C32   O8    D    
C20   O5    S    
C23   C36   A    
C13   C16   S    
C12   C18   S    
C27   O3    D    
C17   H12   S    
