data_mof_unit_55495.cif
_audit_creation_date              2012-12-10T18:57:11-0500
_audit_creation_method            fapswitch 2.2
_symmetry_space_group_name_H-M    P1
_symmetry_Int_Tables_number       1
_space_group_crystal_system       triclinic
_cell_length_a                    8.747059
_cell_length_b                    10.838846
_cell_length_c                    9.549887
_cell_angle_alpha                 90.524698
_cell_angle_beta                  97.435759
_cell_angle_gamma                 90.309266
_cell_volume                      897.734566455

loop_
_atom_site_label
_atom_site_type_symbol
_atom_type_description
_atom_site_fract_x
_atom_site_fract_y
_atom_site_fract_z
_atom_type_partial_charge
C1    C     C_R   0.496196 0.262424 0.498897 0.787773
C2    C     C_R   0.471402 0.934535 0.368343 -0.216833
C3    C     C_R   0.481579 0.871121 0.497300 -0.097842
C4    C     C_R   0.467537 0.938363 0.620379 0.129477
C5    C     C_3   0.562638 0.936427 0.761996 -0.492432
C6    C     C_3   0.560110 0.076195 0.760645 -0.451961
C7    C     C_R   0.629675 0.532096 0.089399 0.251195
C8    C     C_R   0.377150 0.456160 0.059269 -0.084723
C9    C     C_R   0.376953 0.456501 0.910539 -0.087498
C10   C     C_R   0.630563 0.530220 0.942215 0.265631
C11   C     C_3   0.716949 0.649079 0.946808 -0.515858
C12   C     C_R   0.204803 0.491513 0.464399 0.861760
C13   C     C_3   0.712682 0.652940 0.105108 -0.500114
C14   C     C_R   0.497276 0.737832 0.499986 0.799396
C15   C     C_R   0.795865 0.497417 0.535163 0.884793
C16   C     C_2   0.041587 0.466720 0.446352 -0.004376
C17   C     C_2   0.961372 0.502329 0.550877 -0.383605
C18   C     C_R   0.466231 0.065404 0.619165 0.127173
C19   C     C_R   0.479183 0.129527 0.495369 -0.094464
C20   C     C_R   0.470300 0.063240 0.367379 -0.222934
Cu1   Cu    Cu3+1 0.499990 0.499980 0.640670 0.933588
Cu2   Cu    Cu3+1 0.500010 0.500020 0.359330 0.934522
H1    H     H_    0.276379 0.422774 0.843078 0.143076
H2    H     H_    0.834954 0.637391 0.917446 0.194088
H3    H     H_    0.648261 0.722337 0.889895 0.215696
H4    H     H_    0.828787 0.646467 0.167075 0.198433
H5    H     H_    0.639874 0.728517 0.139051 0.211296
H6    H     H_    0.018333 0.544989 0.647424 0.136809
H7    H     H_    0.470819 0.110101 0.267753 0.165558
H8    H     H_    0.472136 0.885571 0.269082 0.162047
H9    H     H_    0.497860 0.897225 0.844136 0.196951
H10   H     H_    0.679749 0.898354 0.757612 0.196563
H11   H     H_    0.493531 0.116834 0.841112 0.197164
H12   H     H_    0.675422 0.118612 0.756113 0.199313
H13   H     H_    0.276801 0.421955 0.102129 0.141621
N1    N     N_R   0.500980 0.500930 0.148050 -0.185047
N2    N     N_R   0.500990 0.500890 0.852140 -0.185138
O1    O     O_R   0.500000 0.319640 0.618810 -0.581851
O2    O     O_R   0.500020 0.319680 0.381230 -0.591734
O3    O     O_R   0.274830 0.499980 0.591380 -0.602238
O4    O     O_R   0.274850 0.500020 0.353800 -0.587600
O5    O     O_R   0.499980 0.680320 0.618770 -0.578447
O6    O     O_R   0.500000 0.680360 0.381190 -0.584765
O7    O     O_R   0.725150 0.499980 0.646200 -0.591284
O8    O     O_R   0.725170 0.500020 0.408620 -0.564709
C21   C     C_3   0.974658 0.389845 0.319200 -0.813108
H14   H     H_    0.066811 0.342114 0.270198 0.210012
H15   H     H_    0.896979 0.316760 0.351129 0.234710
H16   H     H_    0.911656 0.448993 0.237718 0.239916

loop_
_geom_bond_atom_site_label_1
_geom_bond_atom_site_label_2
_ccdc_geom_bond_type
C12   O3    A    
C7    C10   A    
C12   O4    A    
Cu1   O7    S    
Cu2   N1    S    
C7    N1    A    
C1    O2    A    
C19   C20   A    
C6    H11   S    
C2    H8    S    
C14   O5    A    
C5    H10   S    
C4    C18   A    
C9    N2    A    
C2    C3    A    
C8    C9    A    
Cu1   Cu2   S    
C4    C5    S    
C11   C13   S    
C21   H16   S    
C3    C14   S    
C1    O1    A    
C10   N2    A    
Cu2   O2    S    
C15   O7    A    
C20   H7    S    
C5    C6    S    
C6    C18   S    
C21   H15   S    
C13   H4    S    
C1    C19   S    
Cu2   O4    S    
C10   C11   S    
C15   O8    A    
C2    C20   A    
Cu1   O5    S    
C12   C16   S    
C11   H2    S    
C7    C13   S    
Cu2   O8    S    
Cu1   N2    S    
C3    C4    A    
C18   C19   A    
C8    N1    A    
C16   C21   S    
C15   C17   S    
C11   H3    S    
C21   H14   S    
C16   C17   D    
C9    H1    S    
C17   H6    S    
Cu2   O6    S    
C13   H5    S    
Cu1   O1    S    
C6    H12   S    
C14   O6    A    
C5    H9    S    
C8    H13   S    
Cu1   O3    S    
