data_mof_unit_42228.cif
_audit_creation_date              2012-12-11T20:48:44-0500
_audit_creation_method            fapswitch 2.2
_symmetry_space_group_name_H-M    P1
_symmetry_Int_Tables_number       1
_space_group_crystal_system       triclinic
_cell_length_a                    8.228627
_cell_length_b                    18.794923
_cell_length_c                    18.920782
_cell_angle_alpha                 101.174567
_cell_angle_beta                  94.147908
_cell_angle_gamma                 91.457773
_cell_volume                      2860.89433458

loop_
_atom_site_label
_atom_site_type_symbol
_atom_type_description
_atom_site_fract_x
_atom_site_fract_y
_atom_site_fract_z
_atom_type_partial_charge
Ba1   Ba    Ba6+2 0.153490 0.533960 0.468530 1.739742
Ba2   Ba    Ba6+2 0.656680 0.466030 0.531410 1.750086
C1    C     C_3   0.361965 0.697896 0.204658 -0.308772
C2    C     C_3   0.404533 0.685216 0.280608 0.271931
C3    C     C_3   0.385485 0.700329 0.692168 0.712929
C4    C     C_3   0.349434 0.767652 0.747655 -0.255005
C5    C     C_3   0.900509 0.266322 0.669555 0.345434
C6    C     C_3   0.845964 0.189124 0.674884 0.399439
C7    C     C_3   0.403107 0.315176 0.716249 0.379728
C8    C     C_3   0.364805 0.284479 0.782598 0.221236
C9    C     C_R   0.998803 0.954381 0.535622 0.009305
C10   C     C_R   0.087829 0.909753 0.575001 0.039990
C11   C     C_R   0.235495 0.937064 0.613699 -0.039610
C12   C     C_3   0.905107 0.717804 0.319065 0.365102
C13   C     C_R   0.299030 0.005842 0.610053 -0.036867
C14   C     C_R   0.212004 0.050494 0.570656 0.064000
C15   C     C_R   0.059654 0.025478 0.534485 0.026354
C16   C     C_R   0.272675 0.120626 0.569425 -0.062638
C17   C     C_R   0.179498 0.168657 0.535905 -0.050582
C18   C     C_R   0.025309 0.144039 0.499684 -0.010503
C19   C     C_R   0.967505 0.071736 0.498127 -0.000131
C20   C     C_R   0.233450 0.241352 0.539451 -0.002022
C21   C     C_R   0.130128 0.289375 0.512008 -0.297772
C22   C     C_R   0.980325 0.266087 0.473862 0.048101
C23   C     C_3   0.898935 0.790806 0.295930 -0.349296
C24   C     C_R   0.927812 0.191680 0.465974 -0.048417
C25   C     C_R   0.847960 0.928550 0.498611 0.004310
C26   C     C_R   0.791158 0.856089 0.496461 -0.012586
C27   C     C_R   0.886020 0.809195 0.532498 -0.065277
C28   C     C_R   0.029428 0.838541 0.574646 0.005516
C29   C     C_R   0.779648 0.163509 0.427064 -0.040454
C30   C     C_R   0.720778 0.092628 0.427087 0.029915
C31   C     C_R   0.814432 0.046561 0.462863 0.007325
C32   C     C_R   0.754684 0.975117 0.463090 0.018974
C33   C     C_R   0.567463 0.067404 0.392712 -0.079328
C34   C     C_3   0.778520 0.362996 0.306129 0.291615
C35   C     C_R   0.507770 0.997266 0.393501 -0.090298
C36   C     C_R   0.600918 0.950530 0.428019 0.032291
C37   C     C_R   0.638597 0.830994 0.458783 -0.058199
C38   C     C_R   0.543190 0.879437 0.426916 -0.106186
C39   C     C_R   0.588138 0.757559 0.452591 0.043379
C40   C     C_R   0.696398 0.709580 0.477157 -0.151196
C41   C     C_R   0.835954 0.734321 0.523123 0.088507
C42   C     C_2   0.606553 0.518739 0.297752 -0.280203
C43   C     C_3   0.742895 0.512494 0.247863 -0.015954
C44   C     C_2   0.677821 0.517259 0.172123 -0.110346
C45   C     C_3   0.724855 0.330091 0.227594 -0.351637
C46   C     C_2   0.518894 0.498687 0.150169 -0.082982
C47   C     C_2   0.409205 0.479692 0.204605 -0.129344
C48   C     C_1   0.466606 0.484093 0.272919 0.062362
C49   C     C_R   0.346157 0.488058 0.932795 0.476820
C50   C     C_R   0.455864 0.496128 0.073797 0.478778
C51   C     C_R   0.389799 0.510813 0.808817 -0.136572
C52   C     C_R   0.340976 0.504091 0.735334 -0.005621
C53   C     C_R   0.090285 0.441217 0.752360 -0.004911
C54   C     C_R   0.137810 0.448217 0.826249 -0.113672
C55   C     C_R   0.290440 0.481799 0.855043 -0.088929
C56   C     C_3   0.989184 0.619747 0.688504 0.466885
C57   C     C_R   0.194577 0.467184 0.707208 -0.268383
C58   C     C_3   0.032903 0.632579 0.770297 0.336852
C59   C     C_3   0.298868 0.313613 0.366313 0.308036
C60   C     C_3   0.286432 0.231515 0.341910 -0.388149
H1    H     H_    0.366658 0.628471 0.281945 0.070148
H2    H     H_    0.639635 0.282685 0.224983 0.143417
H3    H     H_    0.661320 0.369955 0.200743 0.072209
H4    H     H_    0.832738 0.312005 0.197863 0.135527
H5    H     H_    0.082685 0.585882 0.660744 -0.311038
H6    H     H_    0.873606 0.588861 0.676675 0.077685
H7    H     H_    0.003038 0.582268 0.789793 -0.040953
H8    H     H_    0.165521 0.643523 0.782310 -0.063678
H9    H     H_    0.178419 0.333214 0.381511 0.010759
H10   H     H_    0.389615 0.327279 0.413696 0.062911
H11   H     H_    0.228608 0.688951 0.190607 0.150742
H12   H     H_    0.188682 0.216050 0.297493 0.138292
H13   H     H_    0.257774 0.205202 0.387352 0.052315
H14   H     H_    0.404249 0.211692 0.322300 0.117279
H15   H     H_    0.271921 0.676845 0.662192 -0.028565
H16   H     H_    0.280850 0.752891 0.791192 0.131540
H17   H     H_    0.464519 0.796582 0.773450 0.157806
H18   H     H_    0.275749 0.805198 0.721155 0.094323
H19   H     H_    0.398504 0.754347 0.201236 0.124087
H20   H     H_    0.909685 0.835204 0.344404 0.069284
H21   H     H_    0.854400 0.274842 0.615365 -0.007567
H22   H     H_    0.035545 0.271223 0.674293 -0.067265
H23   H     H_    0.864898 0.151374 0.623822 -0.084054
H24   H     H_    0.480461 0.365661 0.732529 0.074954
H25   H     H_    0.312124 0.228624 0.765047 0.128421
H26   H     H_    0.272566 0.317711 0.811981 0.006183
H27   H     H_    0.021272 0.716301 0.352204 0.102060
H28   H     H_    0.302168 0.905424 0.647110 0.108417
H29   H     H_    0.414703 0.024845 0.639609 0.098753
H30   H     H_    0.390700 0.137846 0.597141 0.097492
H31   H     H_    0.706263 0.196468 0.397522 0.097499
H32   H     H_    0.492976 0.102073 0.365451 0.066099
H33   H     H_    0.388897 0.979373 0.366563 0.075987
H34   H     H_    0.425464 0.861893 0.399001 0.101297
H35   H     H_    0.801378 0.712762 0.351735 -0.078870
H36   H     H_    0.664242 0.652132 0.465040 0.076808
H37   H     H_    0.762897 0.529579 0.134471 0.120615
H38   H     H_    0.283663 0.461536 0.187805 0.123575
H39   H     H_    0.502556 0.540833 0.830056 0.143777
H40   H     H_    0.056192 0.427718 0.860707 0.145266
H41   H     H_    0.624436 0.548670 0.353061 0.053525
H42   H     H_    0.156722 0.463018 0.650545 0.072078
H43   H     H_    0.001277 0.797188 0.262182 0.141752
H44   H     H_    0.781377 0.794735 0.264418 0.121855
H45   H     H_    0.670672 0.383584 0.333927 0.018655
H46   H     H_    0.870383 0.407807 0.308603 0.031855
N1    N     N_R   0.495530 0.518456 0.958709 -0.227772
N2    N     N_R   0.549230 0.522298 0.027500 -0.220224
N3    N     N_R   0.305657 0.466271 0.048229 -0.219723
N4    N     N_R   0.252062 0.462180 0.979172 -0.206392
O1    O     O_2   0.117290 0.676350 0.548250 -0.454574
O2    O     O_3   0.346735 0.344059 0.308887 -0.632249
O3    O     O_3   0.892782 0.661970 0.257692 -0.598690
O4    O     O_2   0.693010 0.323600 0.451730 -0.478414
O5    O     O_3   0.941240 0.413050 0.457220 -0.494869
O6    O     O_3   0.453310 0.371360 0.582690 -0.480134
O7    O     O_3   0.848815 0.308729 0.337261 -0.641029
O8    O     O_3   0.371310 0.539060 0.587050 -0.430609
O9    O     O_3   0.867330 0.408540 0.621000 -0.499929
O10   O     O_2   0.753648 0.453015 0.748715 -0.473418
O11   O     O_3   0.835117 0.316940 0.723957 -0.509814
O12   O     O_3   0.869060 0.586940 0.542720 -0.477277
O13   O     O_3   0.438990 0.460930 0.412890 -0.487260
O14   O     O_2   0.623700 0.539890 0.674570 -0.431360
O15   O     O_3   0.464464 0.650754 0.727517 -0.608795
O16   O     O_2   0.575405 0.243456 0.535479 -0.509502
O17   O     O_3   0.483021 0.263970 0.667725 -0.607313
O18   O     O_3   0.356990 0.628630 0.417250 -0.455174
O19   O     O_2   0.247803 0.758179 0.464017 -0.451116
O20   O     O_3   0.976300 0.685099 0.663323 -0.574420
O21   O     O_3   0.321224 0.733994 0.329817 -0.627111
O22   O     O_2   0.186600 0.460070 0.325400 -0.470219
O23   O     O_3   0.942970 0.591450 0.378940 -0.511983
O24   O     O_2   0.077298 0.552198 0.254678 -0.484334
P1    P     P_3+3 0.945300 0.665790 0.568510 1.111006
P2    P     P_3+3 0.360080 0.438780 0.334620 0.984028
P3    P     P_3+3 0.914691 0.578347 0.284730 0.957797
P4    P     P_3+3 0.865000 0.334200 0.431430 0.971078
P5    P     P_3+3 0.886777 0.405079 0.712843 1.020597
P6    P     P_3+3 0.379595 0.720908 0.416985 1.010161
P7    P     P_3+3 0.440741 0.560016 0.680138 1.062525
P8    P     P_3+3 0.437248 0.278409 0.579745 0.945917
S1    S     S_3+6 0.925633 0.704076 0.821246 -0.019582
O25   O     O_2   0.747201 0.683135 0.814805 -0.253353
O26   O     O_2   0.989339 0.715075 0.899202 -0.265067
O27   O     O_3   0.953652 0.781869 0.791495 -0.482740
H47   H     H_    0.880637 0.816382 0.818658 0.378543
H48   H     H_    0.538594 0.693285 0.292620 -0.029219
H49   H     H_    0.427487 0.659566 0.165340 0.087601
S2    S     S_3+6 0.516927 0.726343 0.631961 -0.103739
O28   O     O_2   0.678450 0.752706 0.671766 -0.313116
O29   O     O_2   0.537543 0.659774 0.576198 -0.340296
O30   O     O_3   0.435906 0.791945 0.593620 -0.585999
H50   H     H_    0.522245 0.830897 0.600557 0.331980
S3    S     S_3+6 0.955518 0.157557 0.746985 -0.024860
O31   O     O_2   0.853845 0.099272 0.769153 -0.221653
O32   O     O_2   0.111831 0.126208 0.721462 -0.341524
O33   O     O_3   0.996165 0.226261 0.818093 -0.458048
H51   H     H_    0.064740 0.205336 0.853516 0.376730
H52   H     H_    0.714099 0.186341 0.682461 0.098943
H53   H     H_    0.284355 0.328938 0.691798 -0.182095
S4    S     S_3+6 0.538321 0.282700 0.844497 0.006526
O34   O     O_2   0.481648 0.281464 0.918008 -0.258354
O35   O     O_2   0.628057 0.214994 0.819944 -0.166504
O36   O     O_3   0.664774 0.355503 0.850061 -0.448539
H54   H     H_    0.598500 0.397716 0.866896 0.318241
H55   H     H_    0.170541 0.345511 0.517392 0.064729
H56   H     H_    0.099730 0.805877 0.605724 0.115639

loop_
_geom_bond_atom_site_label_1
_geom_bond_atom_site_label_2
_ccdc_geom_bond_type
C5    H21   S    
C44   H37   S    
C49   N4    A    
C53   P5    S    
C53   C57   A    
C11   H28   S    
C34   H46   S    
C39   C40   A    
C17   C18   A    
C53   C54   A    
C9    C25   A    
S1    O25   D    
Ba2   O6    S    
C23   H43   S    
C5    C6    S    
C37   C39   A    
O17   P8    S    
C43   C44   S    
C22   P4    S    
O23   P3    S    
C2    H1    S    
C8    H26   S    
O21   P6    S    
S3    O31   D    
C3    S2    S    
O11   P5    S    
O7    P4    S    
S4    O34   D    
C33   C35   A    
C35   C36   A    
C22   C24   A    
C6    H23   S    
O6    P8    S    
C40   H36   S    
C3    C4    S    
Ba2   O9    S    
C19   C31   A    
C56   C58   S    
C12   O3    S    
O14   P7    D    
C43   P3    S    
C54   C55   A    
C35   H33   S    
C34   C45   S    
Ba1   Ba2   S    
C7    H53   S    
C34   O7    S    
C28   H56   S    
O4    P4    D    
Ba2   O4    S    
Ba2   O5    S    
N3    N4    A    
C51   H39   S    
C14   C15   A    
C1    H19   S    
C21   C22   A    
C41   P1    S    
C49   C55   S    
C50   N2    A    
C7    C8    S    
C45   H4    S    
C59   H9    S    
C5    H22   S    
C24   C29   A    
C49   N1    A    
C27   C41   A    
C34   H45   S    
C60   H14   S    
O8    P7    S    
Ba1   O1    S    
C38   H34   S    
O24   P3    D    
C1    H11   S    
C6    S3    S    
S1    O26   D    
C42   H41   S    
C23   H44   S    
C52   C57   A    
C25   C32   A    
C44   C46   D    
C8    H25   S    
C59   O2    S    
C13   C14   A    
C16   H30   S    
C30   C33   A    
O9    P5    S    
O12   P1    S    
C17   C20   A    
O27   H47   S    
Ba1   O18   S    
C56   O20   S    
O36   H54   S    
C51   C55   A    
C16   C17   A    
O15   P7    S    
C26   C37   A    
O20   P1    S    
C29   H31   S    
C15   C19   A    
Ba1   O8    S    
C12   H27   S    
C27   C28   A    
C7    H24   S    
C4    H18   S    
C29   C30   A    
C21   H55   S    
S2    O30   S    
C58   H8    S    
C3    O15   S    
C31   C32   A    
C14   C16   A    
Ba1   O5    S    
C18   C19   A    
O16   P8    D    
O19   P6    D    
Ba2   O14   S    
C59   H10   S    
C56   H6    S    
C46   C47   S    
O3    P3    S    
S3    O33   S    
Ba2   O12   S    
C11   C13   A    
C23   H20   S    
O1    P1    D    
C60   H13   S    
O5    P4    S    
C40   C41   A    
C57   H42   S    
C3    H15   S    
C1    C2    S    
C26   C27   A    
C45   H2    S    
S1    O27   S    
Ba1   P1    S    
C42   C43   S    
C12   H35   S    
C33   H32   S    
C42   C48   D    
C9    C15   A    
C8    S4    S    
C10   C28   A    
C32   C36   A    
S4    O36   S    
S2    O29   D    
O22   P2    D    
C9    C10   A    
C48   P2    S    
C51   C52   A    
C7    O17   S    
O13   P2    S    
C2    H48   S    
C1    H49   S    
C50   N3    A    
Ba1   O13   S    
Ba2   P4    S    
C30   C31   A    
S4    O35   D    
Ba1   O12   S    
C54   H40   S    
C39   P6    S    
C6    H52   S    
N1    N2    A    
O33   H51   S    
C47   H38   S    
C36   C38   A    
C4    H17   S    
C18   C24   A    
C58   H7    S    
C52   P7    S    
O2    P2    S    
C12   C23   S    
C59   C60   S    
O18   P6    S    
C4    H16   S    
C13   H29   S    
C37   C38   A    
Ba2   O13   S    
C56   H5    S    
C46   C50   S    
C10   C11   A    
S3    O32   D    
C47   C48   D    
C58   S1    S    
C20   P8    S    
O30   H50   S    
C20   C21   A    
C60   H12   S    
S2    O28   D    
O10   P5    D    
Ba2   O8    S    
Ba1   O23   S    
C45   H3    S    
Ba1   P2    S    
Ba1   O22   S    
C5    O11   S    
C2    O21   S    
C25   C26   A    
