data_mof_unit_13695.cif
_audit_creation_date              2012-12-10T17:33:01-0500
_audit_creation_method            fapswitch 2.2
_symmetry_space_group_name_H-M    P1
_symmetry_Int_Tables_number       1
_space_group_crystal_system       triclinic
_cell_length_a                    12.322834
_cell_length_b                    13.724599
_cell_length_c                    14.684712
_cell_angle_alpha                 92.974569
_cell_angle_beta                  108.051046
_cell_angle_gamma                 116.819407
_cell_volume                      2052.84177431

loop_
_atom_site_label
_atom_site_type_symbol
_atom_type_description
_atom_site_fract_x
_atom_site_fract_y
_atom_site_fract_z
_atom_type_partial_charge
C1    C     C_R   0.650664 0.711811 0.506689 0.855590
C2    C     C_R   0.857456 0.513415 0.918038 -0.126102
C3    C     C_R   0.811570 0.538007 0.988135 -0.142912
C4    C     C_R   0.974885 0.507455 0.950710 0.118114
C5    C     C_R   0.031061 0.506742 0.050348 0.011841
C6    C     C_R   0.958385 0.497012 0.110487 -0.077777
C7    C     C_R   0.843268 0.504580 0.076914 0.484812
C8    C     C_R   0.038814 0.504303 0.887060 -0.135573
C9    C     C_R   0.136254 0.474286 0.914105 -0.132719
C10   C     C_R   0.187083 0.466223 0.010847 0.083274
C11   C     C_R   0.147452 0.498407 0.082284 -0.019239
C12   C     C_R   0.617450 0.514258 0.684986 0.913260
C13   C     C_R   0.280566 0.431046 0.038306 -0.087316
C14   C     C_R   0.338867 0.432562 0.136725 -0.159707
C15   C     C_R   0.229367 0.525649 0.182157 0.308026
C16   C     C_R   0.180447 0.980568 0.400307 -0.127995
C17   C     C_R   0.261203 0.169639 0.480556 -0.091629
C18   C     C_R   0.709532 0.909736 0.543021 -0.220944
C19   C     C_R   0.793610 0.022846 0.557376 0.352857
C20   C     C_R   0.909240 0.058863 0.540821 -0.123385
C21   C     C_R   0.943376 0.982917 0.507224 0.059808
C22   C     C_R   0.849239 0.866898 0.480795 -0.004205
C23   C     C_R   0.348956 0.288298 0.490838 0.877689
C24   C     C_R   0.062897 0.020107 0.490750 -0.025317
C25   C     C_R   0.076304 0.942145 0.433633 -0.015077
C26   C     C_R   0.983967 0.827899 0.408402 0.389778
C27   C     C_R   0.869683 0.792662 0.427157 -0.216684
C28   C     C_R   0.170124 0.132031 0.527548 0.400770
C29   C     C_R   0.266438 0.092940 0.418703 -0.232172
C30   C     C_R   0.736578 0.830103 0.507540 -0.118693
C31   C     C_R   0.239950 0.658403 0.667273 -0.276471
C32   C     C_R   0.649118 0.343894 0.367485 0.104450
C33   C     C_R   0.719256 0.299354 0.342447 -0.184116
C34   C     C_R   0.382661 0.486323 0.314702 0.842081
C35   C     C_R   0.854913 0.347406 0.392353 0.425844
C36   C     C_R   0.922268 0.447032 0.469827 -0.055251
C37   C     C_R   0.841176 0.485193 0.494755 0.330424
C38   C     C_R   0.062222 0.511741 0.525297 0.028394
C39   C     C_R   0.108377 0.595747 0.609709 0.090037
C40   C     C_R   0.025535 0.625474 0.633224 -0.230402
C41   C     C_R   0.896483 0.575628 0.573571 -0.077550
C42   C     C_R   0.160661 0.504476 0.499495 0.161190
C43   C     C_R   0.332027 0.645861 0.641131 0.570352
C44   C     C_R   0.685382 0.522644 0.789316 -0.208095
C45   C     C_R   0.316207 0.481635 0.210126 -0.148301
C46   C     C_R   0.721229 0.578174 0.960353 0.468592
C47   C     C_R   0.663865 0.574584 0.861287 -0.230141
C48   C     C_R   0.773937 0.481313 0.818330 0.302670
Cu1   Cu    Cu3+1 0.416420 0.526630 0.522910 1.119619
Cu2   Cu    Cu3+1 0.583580 0.473370 0.477090 1.018816
H1    H     H_    0.969487 0.147288 0.552426 0.243437
H2    H     H_    0.795283 0.707095 0.393497 0.226842
H3    H     H_    0.271992 0.723072 0.730626 0.198372
H4    H     H_    0.544169 0.303594 0.328419 0.135861
H5    H     H_    0.665009 0.224200 0.284481 0.189574
N1    N     N_R   0.290690 0.566960 0.557640 -0.265902
N2    N     N_R   0.709100 0.433710 0.442970 -0.211537
O1    O     O_R   0.545970 0.684450 0.528810 -0.507661
O2    O     O_R   0.687130 0.639470 0.490120 -0.648133
O3    O     O_R   0.519670 0.535100 0.660030 -0.532544
O4    O     O_R   0.660830 0.490120 0.621340 -0.570717
O5    O     O_R   0.312870 0.360530 0.509880 -0.535479
O6    O     O_R   0.454030 0.315550 0.471190 -0.592949
O7    O     O_R   0.339170 0.509880 0.378660 -0.539086
O8    O     O_R   0.480330 0.464900 0.339970 -0.605400
S1    S     S_3+6 0.713132 0.414874 0.111797 0.056778
O9    O     O_2   0.705897 0.475777 0.195494 -0.198960
O10   O     O_2   0.584805 0.367268 0.025903 -0.286572
O11   O     O_3   0.737764 0.308977 0.145387 -0.518366
H6    H     H_    0.654671 0.239385 0.107205 0.383846
H7    H     H_    0.306801 0.400647 0.983493 0.194310
H8    H     H_    0.338069 0.119593 0.384185 0.178502
S2    S     S_3+6 0.018409 0.725507 0.366894 0.053543
O12   O     O_2   0.909357 0.610073 0.352976 -0.256846
O13   O     O_2   0.036680 0.737877 0.270871 -0.210700
O14   O     O_3   0.156437 0.742339 0.453295 -0.510432
H9    H     H_    0.229656 0.795636 0.436000 0.378268
H10   H     H_    0.192731 0.926439 0.353681 0.207870
S3    S     S_3+6 0.219167 0.208882 0.648782 0.024815
O15   O     O_2   0.364445 0.258216 0.701245 -0.241173
O16   O     O_2   0.187958 0.302972 0.644289 -0.292848
O17   O     O_3   0.143436 0.123864 0.713853 -0.520337
H11   H     H_    0.164205 0.174607 0.774684 0.388335
H12   H     H_    0.623223 0.884065 0.560793 0.236478
S4    S     S_3+6 0.761003 0.122028 0.603936 0.065411
O18   O     O_2   0.865077 0.183140 0.704455 -0.211013
O19   O     O_2   0.768961 0.203221 0.538256 -0.329463
O20   O     O_3   0.612425 0.062437 0.612003 -0.400394
H13   H     H_    0.549130 0.038370 0.543244 0.346325
S5    S     S_3+6 0.496082 0.752559 0.714926 0.041502
O21   O     O_2   0.509941 0.860467 0.687803 -0.245530
O22   O     O_2   0.507008 0.762034 0.820227 -0.272883
O23   O     O_3   0.624740 0.742025 0.710657 -0.547774
H14   H     H_    0.702963 0.812360 0.753867 0.378818
S6    S     S_3+6 0.258293 0.645408 0.260354 0.021133
O24   O     O_2   0.179525 0.607332 0.323997 -0.232803
O25   O     O_2   0.401110 0.714356 0.324834 -0.311460
O26   O     O_3   0.214144 0.726520 0.193454 -0.484847
H15   H     H_    0.272130 0.751137 0.155616 0.349257
H16   H     H_    0.062157 0.692535 0.695926 0.158312
H17   H     H_    0.138248 0.455576 0.430916 0.216089
S7    S     S_3+6 0.921676 0.267141 0.357358 0.008396
O27   O     O_2   0.978630 0.314022 0.282524 -0.254143
O28   O     O_2   0.026074 0.267648 0.443727 -0.345986
O29   O     O_3   0.803589 0.133133 0.305519 -0.486205
H18   H     H_    0.773817 0.103901 0.358627 0.346485
H19   H     H_    0.841754 0.608623 0.593515 0.187108
H20   H     H_    0.406534 0.400197 0.155697 0.213991
H21   H     H_    0.174642 0.460931 0.860357 0.168378
S8    S     S_3+6 0.690870 0.648300 0.045817 0.066324
O30   O     O_2   0.561379 0.570111 0.051434 -0.269757
O31   O     O_2   0.796885 0.688368 0.145894 -0.217941
O32   O     O_3   0.684412 0.759467 0.007248 -0.484855
H22   H     H_    0.657941 0.789839 0.053913 0.392287
H23   H     H_    0.597481 0.607935 0.840272 0.251770
S9    S     S_3+6 0.739535 0.355404 0.745199 0.108635
O33   O     O_2   0.782557 0.288233 0.810226 -0.195049
O34   O     O_2   0.594969 0.284851 0.687203 -0.176424
O35   O     O_3   0.816477 0.386019 0.665724 -0.510757
H24   H     H_    0.891777 0.372925 0.691455 0.382434
H25   H     H_    0.982150 0.470239 0.178286 0.228498
H26   H     H_    0.010936 0.521974 0.815412 0.144422

loop_
_geom_bond_atom_site_label_1
_geom_bond_atom_site_label_2
_ccdc_geom_bond_type
C33   H5    S    
S1    O10   D    
O23   H14   S    
C17   C29   A    
S2    O12   D    
S6    O24   D    
C4    C8    A    
C35   S7    S    
S6    O26   S    
S4    O18   D    
C47   H23   S    
C26   C27   A    
C17   C23   S    
Cu1   O3    S    
C31   C43   A    
Cu2   O2    S    
C36   C37   A    
C38   C42   A    
C20   H1    S    
C3    C7    A    
C1    O2    A    
C15   S6    S    
C5    C6    A    
S1    O11   S    
O26   H15   S    
C26   S2    S    
S9    O33   D    
S7    O29   S    
C18   C19   A    
C28   S3    S    
S8    O30   D    
C42   N1    A    
C11   C15   A    
C23   O5    A    
C19   C20   A    
S9    O34   D    
C8    C9    A    
C18   H12   S    
C18   C30   A    
C41   H19   S    
C9    C10   A    
C44   C47   A    
C48   S9    S    
C29   H8    S    
C14   H20   S    
S1    O9    D    
Cu1   O7    S    
C21   C22   A    
Cu2   O6    S    
S2    O13   D    
S7    O27   D    
C32   N2    A    
C34   O8    A    
C32   H4    S    
C14   C45   A    
S4    O19   D    
C9    H21   S    
C43   S5    S    
O14   H9    S    
C39   C40   A    
S3    O16   D    
C13   H7    S    
C2    C48   A    
C16   C29   A    
C31   H3    S    
Cu1   O1    S    
C35   C36   A    
C2    C4    A    
S5    O22   D    
C20   C21   A    
C34   O7    A    
C34   C45   S    
C24   C25   A    
S7    O28   D    
S8    O32   S    
C40   C41   A    
O17   H11   S    
C22   C27   A    
C46   S8    S    
S2    O14   S    
C15   C45   A    
C42   H17   S    
C27   H2    S    
S5    O23   S    
O32   H22   S    
S4    O20   S    
C16   C25   A    
C46   C47   A    
Cu1   O5    S    
C22   C30   A    
C17   C28   A    
C24   C28   A    
C4    C5    A    
C19   S4    S    
C10   C13   A    
C40   H16   S    
S3    O17   S    
O35   H24   S    
S6    O25   D    
C5    C11   A    
C6    C7    A    
Cu1   N1    S    
O29   H18   S    
C3    C46   A    
S9    O35   S    
C32   C33   A    
C36   C38   A    
C2    C3    A    
C25   C26   A    
C12   C44   S    
C1    O1    A    
C7    S1    S    
C12   O4    A    
Cu2   N2    S    
C8    H26   S    
S5    O21   D    
C38   C39   A    
C23   O6    A    
C1    C30   S    
C33   C35   A    
C31   C39   A    
C16   H10   S    
C37   C41   A    
O11   H6    S    
Cu2   O8    S    
S8    O31   D    
C10   C11   A    
S3    O15   D    
C12   O3    A    
C43   N1    A    
O20   H13   S    
Cu1   Cu2   S    
C21   C24   A    
Cu2   O4    S    
C6    H25   S    
C13   C14   A    
C37   N2    A    
C44   C48   A    
