data_mof_unit_50146.cif
_audit_creation_date              2012-12-10T19:07:23-0500
_audit_creation_method            fapswitch 2.2
_symmetry_space_group_name_H-M    P1
_symmetry_Int_Tables_number       1
_space_group_crystal_system       triclinic
_cell_length_a                    13.04095
_cell_length_b                    13.641106
_cell_length_c                    19.17856
_cell_angle_alpha                 89.971321
_cell_angle_beta                  92.687572
_cell_angle_gamma                 85.423015
_cell_volume                      3397.07971529

loop_
_atom_site_label
_atom_site_type_symbol
_atom_type_description
_atom_site_fract_x
_atom_site_fract_y
_atom_site_fract_z
_atom_type_partial_charge
C1    C     C_R   0.480915 0.685019 0.499508 0.909930
C2    C     C_2   0.967134 0.523063 0.522703 -0.104076
C3    C     C_1   0.854659 0.518275 0.515656 0.103559
C4    C     C_1   0.145358 0.481633 0.484213 0.105805
C5    C     C_R   0.499460 0.497975 0.634681 0.930578
C6    C     C_R   0.500788 0.500389 0.365322 0.934932
C7    C     C_R   0.428840 0.437081 0.744045 0.383098
C8    C     C_R   0.576997 0.536412 0.252145 0.381456
C9    C     C_R   0.434176 0.430851 0.816309 -0.246389
C10   C     C_R   0.580571 0.520507 0.180831 -0.250490
C11   C     C_R   0.509059 0.477719 0.855523 -0.078639
C12   C     C_R   0.519072 0.314962 0.500448 0.910179
C13   C     C_R   0.511593 0.460788 0.146736 -0.078384
C14   C     C_R   0.578802 0.533313 0.821898 0.430726
C15   C     C_R   0.439261 0.414603 0.184754 0.429254
C16   C     C_R   0.573552 0.539560 0.749578 -0.287483
C17   C     C_R   0.435820 0.430262 0.256099 -0.288227
C18   C     C_R   0.499224 0.491940 0.710319 -0.190408
C19   C     C_R   0.504011 0.490879 0.290081 -0.185234
C20   C     C_R   0.511675 0.455075 0.071155 0.354067
C21   C     C_R   0.510756 0.468517 0.931072 0.347191
C22   C     C_R   0.355053 0.035218 0.514986 0.131108
C23   C     C_1   0.534676 0.212164 0.498613 -0.160263
C24   C     C_R   0.268488 0.022764 0.470372 -0.128465
C25   C     C_R   0.173456 0.072888 0.483076 -0.149973
C26   C     C_R   0.163872 0.135078 0.540670 -0.146264
C27   C     C_R   0.249274 0.147326 0.585625 -0.085076
C28   C     C_R   0.344453 0.097356 0.573153 -0.121549
C29   C     C_R   0.644261 0.964592 0.481713 0.132157
C30   C     C_R   0.731517 0.977517 0.525570 -0.131327
C31   C     C_R   0.826010 0.926300 0.512907 -0.149912
C32   C     C_R   0.834363 0.862457 0.456135 -0.143182
C33   C     C_R   0.748314 0.849780 0.411874 -0.088526
C34   C     C_1   0.465217 0.787812 0.500451 -0.161930
C35   C     C_R   0.653748 0.900995 0.424231 -0.121599
C36   C     C_R   0.006366 0.579916 0.583060 0.116939
C37   C     C_R   0.966057 0.677128 0.593664 -0.151516
C38   C     C_R   0.002351 0.731310 0.650204 -0.120988
C39   C     C_R   0.078393 0.688642 0.697036 -0.102859
C40   C     C_R   0.117736 0.591479 0.687693 -0.093247
C41   C     C_R   0.081548 0.536993 0.631264 -0.108447
C42   C     C_R   0.993853 0.419499 0.416781 0.116724
C43   C     C_R   0.035243 0.322659 0.406052 -0.152001
C44   C     C_R   0.999351 0.268063 0.349610 -0.118408
C45   C     C_2   0.544446 0.020977 0.494708 -0.025294
C46   C     C_R   0.922630 0.309945 0.302960 -0.102622
C47   C     C_R   0.882224 0.406744 0.312379 -0.095013
C48   C     C_R   0.917978 0.461654 0.368733 -0.108612
C49   C     C_2   0.455013 0.979030 0.502339 -0.026344
C50   C     C_1   0.456316 0.875037 0.501379 -0.038164
C51   C     C_1   0.543364 0.124955 0.496719 -0.036923
C52   C     C_2   0.032887 0.476745 0.477031 -0.104495
Cl1   Cl    Cl    0.336972 0.369788 0.698741 -0.675794
Cl2   Cl    Cl    0.660931 0.618444 0.290500 -0.666993
Cl3   Cl    Cl    0.670073 0.600756 0.867587 -0.563311
Cl4   Cl    Cl    0.354859 0.333383 0.146083 -0.565864
H1    H     H_    0.380783 0.387438 0.841964 0.206540
H2    H     H_    0.726173 0.026806 0.569742 0.137485
H3    H     H_    0.892814 0.936161 0.547076 0.135247
H4    H     H_    0.907575 0.822971 0.446352 0.136304
H5    H     H_    0.755046 0.800697 0.367724 0.187476
H6    H     H_    0.588197 0.891606 0.388763 0.149991
H7    H     H_    0.907051 0.711101 0.557892 0.139038
H8    H     H_    0.971464 0.806393 0.657703 0.139121
H9    H     H_    0.106439 0.730694 0.740765 0.147843
H10   H     H_    0.176021 0.558249 0.724339 0.175922
H11   H     H_    0.111682 0.461285 0.625451 0.164267
H12   H     H_    0.635078 0.557794 0.151514 0.208622
H13   H     H_    0.094855 0.289306 0.441638 0.140578
H14   H     H_    0.031109 0.193284 0.342023 0.140266
H15   H     H_    0.894910 0.267591 0.259289 0.148962
H16   H     H_    0.823497 0.439349 0.275805 0.178023
H17   H     H_    0.887034 0.537111 0.374546 0.161758
H18   H     H_    0.627123 0.582770 0.723919 0.203133
H19   H     H_    0.381035 0.393241 0.285358 0.202691
H20   H     H_    0.274743 0.974488 0.425689 0.138831
H21   H     H_    0.107150 0.063310 0.448382 0.135711
H22   H     H_    0.090196 0.173583 0.550569 0.136860
H23   H     H_    0.241468 0.194950 0.630464 0.190842
H24   H     H_    0.409497 0.106300 0.609159 0.149933
N1    N     N_R   0.601065 0.459921 0.969258 -0.090584
N2    N     N_R   0.421481 0.462127 0.032871 -0.092033
N3    N     N_R   0.601523 0.454034 0.038331 -0.153484
N4    N     N_R   0.421031 0.468105 0.963855 -0.154001
N5    N     N_1   0.234540 0.484780 0.488910 -0.078267
N6    N     N_1   0.765460 0.515220 0.511090 -0.080405
O1    O     O_R   0.402510 0.634760 0.495940 -0.613845
O2    O     O_R   0.597490 0.365240 0.504060 -0.614943
O3    O     O_R   0.572960 0.644530 0.503060 -0.594378
O4    O     O_R   0.427040 0.355470 0.496940 -0.591503
O5    O     O_R   0.414750 0.495120 0.598300 -0.564499
O6    O     O_R   0.585250 0.504880 0.401700 -0.568695
O7    O     O_R   0.585190 0.504900 0.605420 -0.622567
O8    O     O_R   0.414810 0.495100 0.394580 -0.623362
Zn1   Zn    Zn3+2 0.386190 0.493480 0.495250 1.013388
Zn2   Zn    Zn3+2 0.613810 0.506520 0.504750 1.010322

loop_
_geom_bond_atom_site_label_1
_geom_bond_atom_site_label_2
_ccdc_geom_bond_type
C1    O1    A    
O2    Zn2   S    
C20   N2    A    
O4    Zn1   S    
C41   H11   S    
C6    C19   S    
C12   C23   S    
C26   C27   A    
C26   H22   S    
C4    C52   S    
C16   H18   S    
C12   O4    A    
C36   C37   A    
C37   C38   A    
C27   H23   S    
C30   C31   A    
C11   C14   A    
C45   C51   S    
O6    Zn2   S    
C15   C17   A    
C31   H3    S    
C25   H21   S    
C37   H7    S    
C47   C48   A    
C6    O8    A    
O1    Zn1   S    
C44   H14   S    
C9    H1    S    
C14   Cl3   S    
C43   H13   S    
C22   C28   A    
C3    N6    T    
C39   H9    S    
C36   C41   A    
N1    N3    A    
C44   C46   A    
C1    C34   S    
C38   H8    S    
C34   C50   T    
C8    C19   A    
C12   O2    A    
C24   C25   A    
C8    Cl2   S    
C39   C40   A    
C24   H20   S    
C5    C18   S    
C25   C26   A    
C11   C21   S    
C29   C45   S    
C43   C44   A    
C29   C30   A    
C2    C52   D    
C23   C51   T    
C31   C32   A    
C21   N4    A    
C45   C49   D    
C7    C18   A    
C42   C48   A    
C9    C11   A    
C46   H15   S    
C5    O5    A    
N6    Zn2   S    
C22   C49   S    
C8    C10   A    
C40   C41   A    
C21   N1    A    
O7    Zn2   S    
N2    N4    A    
C13   C15   A    
C14   C16   A    
C42   C43   A    
C7    Cl1   S    
C17   C19   A    
C2    C36   S    
C7    C9    A    
C46   C47   A    
C1    O3    A    
C13   C20   S    
C48   H17   S    
C10   C13   A    
C5    O7    A    
C4    N5    T    
C10   H12   S    
C29   C35   A    
C32   C33   A    
O3    Zn2   S    
C2    C3    S    
C15   Cl4   S    
N5    Zn1   S    
C38   C39   A    
C33   H5    S    
C6    O6    A    
C30   H2    S    
C33   C35   A    
C35   H6    S    
C22   C24   A    
O8    Zn1   S    
C28   H24   S    
C47   H16   S    
O5    Zn1   S    
C16   C18   A    
C49   C50   S    
C20   N3    A    
C27   C28   A    
C17   H19   S    
C32   H4    S    
C40   H10   S    
C42   C52   S    
