data_mof_unit_53989.cif
_audit_creation_date              2012-12-10T17:11:32-0500
_audit_creation_method            fapswitch 2.2
_symmetry_space_group_name_H-M    P1
_symmetry_Int_Tables_number       1
_space_group_crystal_system       triclinic
_cell_length_a                    15.05349
_cell_length_b                    12.874898
_cell_length_c                    11.804037
_cell_angle_alpha                 98.032676
_cell_angle_beta                  93.730302
_cell_angle_gamma                 93.153448
_cell_volume                      2255.75811769

loop_
_atom_site_label
_atom_site_type_symbol
_atom_type_description
_atom_site_fract_x
_atom_site_fract_y
_atom_site_fract_z
_atom_type_partial_charge
C1    C     C_R   0.501835 0.300316 0.480059 0.876950
C2    C     C_R   0.498165 0.699684 0.519941 0.876949
C3    C     C_R   0.053099 0.427235 0.679391 -0.269607
C4    C     C_R   0.946905 0.572836 0.320664 -0.269258
C5    C     C_R   0.486754 0.810806 0.528477 -0.180602
C6    C     C_R   0.513246 0.189194 0.471523 -0.180598
C7    C     C_R   0.609901 0.044752 0.450350 0.119311
C8    C     C_R   0.390100 0.955249 0.549651 0.119317
C9    C     C_R   0.594182 0.149229 0.439247 0.419392
C10   C     C_R   0.405819 0.850771 0.560755 0.419391
C11   C     C_R   0.445982 0.125628 0.506507 -0.264183
C12   C     C_R   0.554017 0.874372 0.493491 -0.264180
C13   C     C_R   0.458407 0.020349 0.513820 0.015814
C14   C     C_R   0.541593 0.979650 0.486179 0.015814
C15   C     C_R   0.393421 0.434222 0.032434 0.041350
C16   C     C_R   0.606583 0.565768 0.967563 0.041333
C17   C     C_R   0.412310 0.424193 0.148956 0.601919
C18   C     C_R   0.587692 0.575804 0.851044 0.601881
C19   C     C_R   0.543334 0.536747 0.153249 0.292490
C20   C     C_R   0.456668 0.463248 0.846749 0.292546
C21   C     C_R   0.538772 0.525115 0.030818 -0.152049
C22   C     C_R   0.461231 0.474876 0.969180 -0.151976
C23   C     C_R   0.328946 0.500722 0.500261 0.846802
C24   C     C_R   0.671053 0.499281 0.499740 0.846808
C25   C     C_R   0.811127 0.531815 0.408604 -0.184595
C26   C     C_R   0.188876 0.468217 0.591418 -0.184570
C27   C     C_R   0.767772 0.497606 0.499204 -0.083772
C28   C     C_R   0.232228 0.502409 0.500806 -0.083703
C29   C     C_R   0.816903 0.462557 0.589700 -0.121242
C30   C     C_R   0.183096 0.537468 0.410318 -0.121448
C31   C     C_R   0.909857 0.461856 0.590676 0.018983
C32   C     C_R   0.090144 0.538183 0.409359 0.018834
C33   C     C_R   0.953407 0.498920 0.499928 -0.004538
C34   C     C_R   0.046595 0.501121 0.500109 -0.004459
C35   C     C_R   0.903668 0.534184 0.409060 0.063776
C36   C     C_R   0.096334 0.465863 0.590978 0.063925
C37   C     C_R   0.959838 0.426256 0.681153 0.489596
C38   C     C_R   0.040158 0.573806 0.318903 0.489405
Cu1   Cu    Cu3+1 0.506660 0.507730 0.615930 1.022731
Cu2   Cu    Cu3+1 0.493340 0.492270 0.384070 1.022719
H1    H     H_    0.773053 0.558277 0.338453 0.191569
H2    H     H_    0.226952 0.441754 0.661567 0.191582
H3    H     H_    0.782320 0.435517 0.658930 0.211102
H4    H     H_    0.217673 0.564506 0.341083 0.211046
H5    H     H_    0.091930 0.396131 0.745924 0.185457
H6    H     H_    0.908089 0.603963 0.254131 0.185583
H7    H     H_    0.615061 0.839413 0.470007 0.201064
H8    H     H_    0.384938 0.160586 0.529989 0.201062
N1    N     N_R   0.516670 0.519360 0.790130 -0.258789
N2    N     N_R   0.483330 0.480640 0.209870 -0.258772
O1    O     O_R   0.504720 0.354460 0.582000 -0.555126
O2    O     O_R   0.495280 0.645540 0.418000 -0.555128
O3    O     O_R   0.493480 0.341410 0.386200 -0.580008
O4    O     O_R   0.506520 0.658590 0.613800 -0.580007
O5    O     O_R   0.375880 0.506510 0.597910 -0.577531
O6    O     O_R   0.624120 0.493490 0.402090 -0.577533
O7    O     O_R   0.364640 0.493450 0.402110 -0.535309
O8    O     O_R   0.635360 0.506550 0.597890 -0.535307
I1    I     I_    0.254126 0.429043 0.979463 -0.395087
I2    I     I_    0.745881 0.570924 0.020522 -0.394355
O9    O     O_3   0.915962 0.382012 0.764417 -0.560831
C39   C     C_3   0.944742 0.435326 0.874395 -0.277557
H9    H     H_    0.897477 0.412498 0.936204 0.217205
H10   H     H_    0.945156 0.522298 0.877837 0.167164
H11   H     H_    0.011344 0.411566 0.903142 0.169630
O10   O     O_3   0.083993 0.618089 0.235646 -0.560735
C40   C     C_3   0.055614 0.564276 0.125762 -0.277774
H12   H     H_    0.056047 0.477389 0.122595 0.167673
H13   H     H_    0.102630 0.587596 0.063901 0.217312
H14   H     H_    0.988710 0.587058 0.096881 0.169162
O11   O     O_3   0.338116 0.783944 0.588798 -0.571195
C41   C     C_3   0.342148 0.788375 0.709174 -0.239424
H15   H     H_    0.290293 0.731331 0.730982 0.199938
H16   H     H_    0.328168 0.867647 0.752094 0.177760
H17   H     H_    0.407672 0.766220 0.744088 0.150772
O12   O     O_3   0.661887 0.216058 0.411209 -0.571206
C42   C     C_3   0.657859 0.211629 0.290834 -0.239457
H18   H     H_    0.671837 0.132356 0.247914 0.177764
H19   H     H_    0.709717 0.268671 0.269029 0.199927
H20   H     H_    0.592336 0.233789 0.255917 0.150783
I3    I     I_    0.740006 0.992551 0.420066 -0.276917
I4    I     I_    0.259996 0.007450 0.579941 -0.276911
I5    I     I_    0.378162 0.330238 0.755700 -0.322531
I6    I     I_    0.621844 0.669755 0.244292 -0.322540
O13   O     O_3   0.648387 0.629042 0.793648 -0.537393
C43   C     C_3   0.643772 0.737981 0.827801 -0.252012
H21   H     H_    0.685835 0.780678 0.773297 0.196035
H22   H     H_    0.670169 0.761732 0.918434 0.185415
H23   H     H_    0.574526 0.762943 0.815819 0.137614
O14   O     O_3   0.351615 0.370955 0.206353 -0.537436
C44   C     C_3   0.356234 0.262016 0.172207 -0.252111
H24   H     H_    0.329837 0.238258 0.081575 0.185431
H25   H     H_    0.314174 0.219320 0.226715 0.196028
H26   H     H_    0.425481 0.237058 0.184189 0.137651

loop_
_geom_bond_atom_site_label_1
_geom_bond_atom_site_label_2
_ccdc_geom_bond_type
Cu1   O1    S    
C8    C13   A    
C27   C29   A    
C24   C27   S    
C6    C9    A    
C15   C22   A    
C4    H6    S    
C42   H18   S    
C16   C21   A    
C8    I4    S    
C19   C21   A    
C41   H17   S    
C43   H22   S    
Cu1   O4    S    
C15   C17   A    
C16   I2    S    
C1    O3    A    
C39   H10   S    
C13   C14   A    
C7    C14   A    
Cu1   O5    S    
C38   O10   S    
Cu2   O6    S    
C31   C33   A    
C9    O12   S    
C32   C38   A    
C44   H24   S    
C10   O11   S    
O10   C40   S    
C4    C35   A    
C21   C22   A    
C29   H3    S    
C30   H4    S    
C11   H8    S    
C12   H7    S    
C42   H19   S    
C18   O13   S    
C40   H12   S    
O12   C42   S    
C5    C12   A    
C41   H16   S    
C2    O4    A    
C25   H1    S    
C6    C11   A    
C43   H21   S    
O13   C43   S    
Cu1   O8    S    
C3    H5    S    
C1    C6    S    
C40   H13   S    
C32   C34   A    
C20   N1    A    
C44   H25   S    
C39   H9    S    
C33   C34   A    
C16   C18   A    
C23   C28   S    
C1    O1    A    
C2    O2    A    
C25   C35   A    
C23   O7    A    
C8    C10   A    
Cu1   N1    S    
C12   C14   A    
C2    C5    S    
C25   C27   A    
C19   I6    S    
Cu1   Cu2   S    
C26   H2    S    
C42   H20   S    
C26   C36   A    
C7    C9    A    
Cu2   O7    S    
C39   H11   S    
C7    I3    S    
C15   I1    S    
C17   O14   S    
C20   C22   A    
C41   H15   S    
C43   H23   S    
C17   N2    A    
C37   O9    S    
C23   O5    A    
C24   O6    A    
C26   C28   A    
C40   H14   S    
C28   C30   A    
C5    C10   A    
C29   C31   A    
Cu2   O2    S    
C44   H26   S    
C30   C32   A    
C11   C13   A    
C19   N2    A    
O14   C44   S    
C3    C36   A    
Cu2   N2    S    
C33   C35   A    
C34   C36   A    
O9    C39   S    
C31   C37   A    
O11   C41   S    
C3    C37   A    
C24   O8    A    
Cu2   O3    S    
C20   I5    S    
C4    C38   A    
C18   N1    A    
