data_mof_unit_23592.cif
_audit_creation_date              2012-12-10T17:12:30-0500
_audit_creation_method            fapswitch 2.2
_symmetry_space_group_name_H-M    P1
_symmetry_Int_Tables_number       1
_space_group_crystal_system       triclinic
_cell_length_a                    11.689588
_cell_length_b                    12.933273
_cell_length_c                    11.806621
_cell_angle_alpha                 99.612817
_cell_angle_beta                  93.458657
_cell_angle_gamma                 91.966611
_cell_volume                      1754.92276888

loop_
_atom_site_label
_atom_site_type_symbol
_atom_type_description
_atom_site_fract_x
_atom_site_fract_y
_atom_site_fract_z
_atom_type_partial_charge
C1    C     C_R   0.502517 0.299887 0.478806 0.814128
C2    C     C_R   0.498149 0.700256 0.521243 0.839476
C3    C     C_R   0.373235 0.414685 0.027355 0.016986
C4    C     C_R   0.603701 0.604751 0.975030 0.028872
C5    C     C_R   0.391589 0.419305 0.147843 0.425186
C6    C     C_R   0.596944 0.591357 0.854104 0.395407
C7    C     C_R   0.552631 0.537339 0.153480 0.263202
C8    C     C_R   0.448402 0.458777 0.841818 0.293173
C9    C     C_R   0.536397 0.537602 0.032273 -0.062780
C10   C     C_R   0.451046 0.468871 0.965867 -0.142780
C11   C     C_R   0.284216 0.499769 0.500361 0.835300
C12   C     C_R   0.715776 0.500232 0.499640 0.800836
C13   C     C_1   0.162511 0.499850 0.500951 -0.191462
C14   C     C_1   0.837461 0.500050 0.499034 -0.199669
C15   C     C_1   0.059935 0.499903 0.500503 -0.006703
C16   C     C_1   0.940029 0.499965 0.499529 -0.007034
C17   C     C_R   0.488031 0.813008 0.532716 -0.147413
C18   C     C_R   0.513857 0.187387 0.467471 -0.133180
C19   C     C_R   0.607039 0.027035 0.394891 0.139718
C20   C     C_R   0.393526 0.972578 0.604901 0.110763
C21   C     C_R   0.594767 0.135177 0.397264 0.196339
C22   C     C_R   0.409234 0.865502 0.604866 0.243399
C23   C     C_R   0.447018 0.133641 0.534308 -0.303606
C24   C     C_R   0.551913 0.866275 0.463078 -0.287515
C25   C     C_R   0.459195 0.026827 0.534469 0.035479
C26   C     C_R   0.539534 0.973127 0.463490 0.092277
Cu1   Cu    Cu3+1 0.508350 0.507730 0.615930 0.976162
Cu2   Cu    Cu3+1 0.491650 0.492270 0.384070 0.941591
H1    H     H_    0.611536 0.823148 0.408329 0.183407
H2    H     H_    0.386264 0.177022 0.587133 0.161416
N1    N     N_R   0.520920 0.519350 0.790130 -0.205105
N2    N     N_R   0.479080 0.480650 0.209870 -0.228854
O1    O     O_R   0.505930 0.354460 0.582000 -0.557949
O2    O     O_R   0.494070 0.645540 0.418000 -0.603584
O3    O     O_R   0.491820 0.341410 0.386200 -0.553416
O4    O     O_R   0.508180 0.658590 0.613800 -0.545032
O5    O     O_R   0.344250 0.506540 0.597900 -0.555296
O6    O     O_R   0.655750 0.493460 0.402100 -0.602712
O7    O     O_R   0.330140 0.493480 0.402100 -0.558998
O8    O     O_R   0.669860 0.506520 0.597900 -0.547912
N3    N     N_2   0.339765 0.808515 0.670576 -0.416970
H3    H     H_    0.253471 0.821500 0.660355 0.262431
C27   C     C_3   0.379268 0.817967 0.790519 -0.623106
H4    H     H_    0.328036 0.762385 0.831607 0.216104
H5    H     H_    0.369139 0.899026 0.836505 0.224337
H6    H     H_    0.470718 0.798624 0.798862 0.226971
N4    N     N_2   0.672831 0.192292 0.339673 -0.431248
H7    H     H_    0.700982 0.265817 0.382110 0.250297
C28   C     C_3   0.651075 0.185019 0.216469 -0.680981
H8    H     H_    0.624042 0.261812 0.196251 0.232652
H9    H     H_    0.583254 0.123875 0.180843 0.213149
H10   H     H_    0.731232 0.164895 0.173667 0.229011
N5    N     N_3   0.692071 0.972635 0.327967 -0.611935
H11   H     H_    0.772092 0.011074 0.352462 0.243256
H12   H     H_    0.672129 0.974985 0.241036 0.231657
N6    N     N_3   0.310538 0.024161 0.676847 -0.614294
H13   H     H_    0.352179 0.085362 0.735521 0.211582
H14   H     H_    0.249099 0.054819 0.625162 0.216479
N7    N     N_3   0.378200 0.380311 0.766871 -0.530225
H15   H     H_    0.396596 0.305943 0.784509 0.190023
H16   H     H_    0.291615 0.396324 0.770177 0.204851
N8    N     N_3   0.654585 0.588074 0.213297 -0.616230
H17   H     H_    0.637004 0.637921 0.288090 0.261182
H18   H     H_    0.713026 0.531724 0.227783 0.241426
N9    N     N_2   0.668972 0.654457 0.797499 -0.367107
H19   H     H_    0.657329 0.733742 0.819586 0.240234
C29   C     C_3   0.789363 0.630925 0.802471 -0.635422
H20   H     H_    0.832483 0.665943 0.735694 0.219064
H21   H     H_    0.800188 0.544772 0.786107 0.232297
H22   H     H_    0.832070 0.664797 0.887679 0.212884
N10   N     N_2   0.314705 0.362551 0.206396 -0.358974
H23   H     H_    0.230956 0.384347 0.198061 0.253597
C30   C     C_3   0.323541 0.249665 0.186085 -0.654584
H24   H     H_    0.277485 0.215897 0.251937 0.219184
H25   H     H_    0.414352 0.228424 0.192647 0.235758
H26   H     H_    0.284340 0.214530 0.099690 0.218444
N11   N     N_3   0.267645 0.363696 0.975020 -0.625938
H27   H     H_    0.282114 0.294884 0.918995 0.218752
H28   H     H_    0.219067 0.416243 0.936432 0.223907
N12   N     N_3   0.672901 0.692888 0.036001 -0.612320
H29   H     H_    0.748118 0.667180 0.072398 0.252193
H30   H     H_    0.625846 0.736445 0.098350 0.245495

loop_
_geom_bond_atom_site_label_1
_geom_bond_atom_site_label_2
_ccdc_geom_bond_type
C18   C21   A    
C30   H25   S    
N3    H3    S    
C20   N6    S    
C1    O1    A    
N4    C28   S    
N5    H11   S    
Cu1   O1    S    
C1    C18   S    
C19   C21   A    
C24   C26   A    
C4    N12   S    
C8    N7    S    
C22   N3    S    
C20   C25   A    
C15   C16   S    
N6    H13   S    
C30   H24   S    
C11   O5    A    
C19   C26   A    
C24   H1    S    
N8    H18   S    
C6    N9    S    
Cu2   O3    S    
C28   H9    S    
C9    C10   A    
C5    N2    A    
C19   N5    S    
N11   H28   S    
C6    N1    A    
Cu2   O2    S    
N7    H15   S    
C2    C17   S    
N3    C27   S    
N5    H12   S    
N7    H16   S    
C17   C24   A    
Cu1   N1    S    
C29   H20   S    
C23   H2    S    
Cu2   N2    S    
N12   H30   S    
N10   C30   S    
Cu2   O7    S    
N9    C29   S    
C25   C26   A    
N11   H27   S    
C18   C23   A    
C29   H21   S    
C12   O8    A    
C27   H4    S    
C7    N8    S    
N8    H17   S    
N4    H7    S    
Cu2   O6    S    
Cu1   O8    S    
C28   H10   S    
C11   O7    A    
C27   H5    S    
C4    C6    A    
C12   C14   S    
C28   H8    S    
C13   C15   T    
C30   H26   S    
C14   C16   T    
C3    N11   S    
C1    O3    A    
C2    O4    A    
C7    C9    A    
C7    N2    A    
C8    N1    A    
C20   C22   A    
N12   H29   S    
C3    C5    A    
Cu1   O4    S    
C17   C22   A    
C29   H22   S    
N10   H23   S    
C5    N10   S    
C3    C10   A    
C11   C13   S    
C2    O2    A    
Cu1   O5    S    
N6    H14   S    
C23   C25   A    
C12   O6    A    
C27   H6    S    
C8    C10   A    
N9    H19   S    
Cu1   Cu2   S    
C4    C9    A    
C21   N4    S    
