data_mof_unit_53274.cif
_audit_creation_date              2013-03-05T16:06:01-0500
_audit_creation_method            fapswitch 2.2
_symmetry_space_group_name_H-M    P1
_symmetry_Int_Tables_number       1
_space_group_crystal_system       triclinic
_cell_length_a                    10.828953
_cell_length_b                    9.504451
_cell_length_c                    23.541645
_cell_angle_alpha                 90.041321
_cell_angle_beta                  90.104294
_cell_angle_gamma                 90.055583
_cell_volume                      2422.97690088

loop_
_atom_site_label
_atom_site_type_symbol
_atom_site_description
_atom_site_fract_x
_atom_site_fract_y
_atom_site_fract_z
_atom_type_partial_charge
O1    O     O_R   0.319640 0.618740 0.500000 -0.588601
O2    O     O_R   0.680360 0.381260 0.500000 -0.588692
O3    O     O_R   0.680360 0.618740 0.500000 -0.588172
O4    O     O_R   0.319640 0.381260 0.500000 -0.588295
C1    C     C_R   0.262019 0.499960 0.499963 0.793426
C2    C     C_R   0.737982 0.500039 0.500037 0.793597
O5    O     O_R   0.499960 0.618810 0.417880 -0.585603
O6    O     O_R   0.500040 0.381190 0.582120 -0.583294
O7    O     O_R   0.500040 0.618810 0.582120 -0.585737
O8    O     O_R   0.499960 0.381190 0.417880 -0.583500
C3    C     C_R   0.499686 0.499983 0.390869 0.843261
C4    C     C_R   0.500273 0.500074 0.609131 0.843029
Cu1   Cu    Cu3+1 0.500000 0.640660 0.500000 0.945980
Cu2   Cu    Cu3+1 0.500000 0.359340 0.500000 0.946425
C5    C     C_R   0.612936 0.514978 0.880312 0.541764
C6    C     C_R   0.387697 0.485135 0.119679 0.558382
N1    N     N_R   0.503445 0.500351 0.851929 -0.440163
N2    N     N_R   0.497087 0.500381 0.148081 -0.438080
C7    C     C_R   0.394244 0.483660 0.879820 0.594216
C8    C     C_R   0.606609 0.514275 0.120205 0.581045
C9    C     C_R   0.391453 0.481814 0.939243 -0.059890
C10   C     C_R   0.609550 0.515175 0.060777 -0.056954
C11   C     C_R   0.502206 0.498843 0.969944 -0.051669
C12   C     C_R   0.498776 0.498484 0.030068 -0.051542
C13   C     C_R   0.615882 0.516464 0.940556 -0.020331
C14   C     C_R   0.385041 0.481390 0.059452 -0.021663
C15   C     C_R   0.279760 0.462909 0.968069 -0.152054
C16   C     C_R   0.721371 0.533062 0.031957 -0.152390
C17   C     C_R   0.274465 0.461384 0.027448 0.145722
C18   C     C_R   0.726639 0.535051 0.972578 0.146548
O9    O     O_2   0.717475 0.527501 0.849768 -0.562195
O10   O     O_2   0.282881 0.475114 0.150159 -0.564201
O11   O     O_2   0.288542 0.469051 0.849877 -0.529557
O12   O     O_2   0.712400 0.527762 0.150167 -0.534081
H1    H     H_    0.195185 0.448729 0.944026 0.187131
H2    H     H_    0.806020 0.546535 0.056012 0.187286
C19   C     C_R   0.500032 0.372755 0.238469 0.509946
C20   C     C_R   0.505052 0.372977 0.761379 0.512122
C21   C     C_R   0.503298 0.373079 0.298022 -0.313950
C22   C     C_R   0.501754 0.373176 0.701894 -0.309873
H3    H     H_    0.510771 0.274057 0.320468 0.175630
H4    H     H_    0.498781 0.273675 0.679484 0.175783
C23   C     C_R   0.498359 0.500194 0.328287 -0.143687
C24   C     C_R   0.501451 0.500442 0.671715 -0.144877
C25   C     C_R   0.492139 0.627822 0.298448 -0.208532
C26   C     C_R   0.501963 0.628276 0.701652 -0.209605
H5    H     H_    0.487887 0.726499 0.321443 0.167595
H6    H     H_    0.501433 0.727099 0.678734 0.168949
C27   C     C_R   0.491793 0.629420 0.238999 0.145484
C28   C     C_R   0.502210 0.629845 0.761115 0.141559
C29   C     C_R   0.496926 0.501185 0.209050 0.280023
C30   C     C_R   0.503296 0.501344 0.790963 0.275653
C31   C     C_R   0.063742 0.372100 0.499989 -0.177773
C32   C     C_R   0.936258 0.627899 0.500011 -0.177211
C33   C     C_R   0.936021 0.372146 0.500052 -0.177626
C34   C     C_R   0.063979 0.627853 0.499949 -0.177156
H7    H     H_    0.111706 0.272130 0.499976 0.150143
H8    H     H_    0.888295 0.727869 0.500024 0.150151
H9    H     H_    0.887870 0.272186 0.500099 0.150159
H10   H     H_    0.112129 0.727813 0.499902 0.150171
C35   C     C_R   0.871796 0.500047 0.500047 -0.018169
C36   C     C_R   0.128204 0.499952 0.499954 -0.018166
C37   C     C_R   0.423824 0.074324 0.464399 -0.024302
C38   C     C_R   0.576182 0.925677 0.535598 -0.024433
C39   C     C_R   0.576180 0.074614 0.535600 -0.023251
C40   C     C_R   0.423822 0.925386 0.464400 -0.024395
H11   H     H_    0.362843 0.130445 0.435900 0.116771
H12   H     H_    0.637170 0.869555 0.564092 0.117649
H13   H     H_    0.637165 0.130966 0.564098 0.116467
H14   H     H_    0.362836 0.869034 0.435902 0.117011
N3    N     N_R   0.500000 0.852070 0.500000 -0.156363
N4    N     N_R   0.500000 0.147930 0.500000 -0.156217
C41   C     C_3   0.149566 0.436062 0.054174 -0.742388
H15   H     H_    0.120717 0.529859 0.078924 0.260237
H16   H     H_    0.076648 0.416136 0.021935 0.195976
H17   H     H_    0.153037 0.341427 0.081745 0.259975
C42   C     C_3   0.851773 0.559020 0.945881 -0.744321
H18   H     H_    0.849595 0.654777 0.918925 0.259784
H19   H     H_    0.925137 0.576260 0.978156 0.195033
H20   H     H_    0.879105 0.465647 0.920508 0.260676
O13   O     O_3   0.509442 0.248531 0.208036 -0.563672
C43   C     C_3   0.402814 0.166211 0.217125 -0.302681
H21   H     H_    0.316404 0.228008 0.211136 0.192474
H22   H     H_    0.404388 0.117160 0.259946 0.146672
H23   H     H_    0.401540 0.079992 0.185349 0.197187
O14   O     O_3   0.500223 0.247959 0.791359 -0.561964
C44   C     C_3   0.614436 0.178076 0.786061 -0.310275
H24   H     H_    0.692950 0.246838 0.799045 0.190271
H25   H     H_    0.628333 0.138261 0.742120 0.149884
H26   H     H_    0.614230 0.085698 0.814834 0.197370
C45   C     C_3   0.485562 0.767345 0.207787 -0.815079
H27   H     H_    0.568654 0.780279 0.180749 0.254605
H28   H     H_    0.401771 0.769984 0.180562 0.235134
H29   H     H_    0.481528 0.857783 0.237595 0.220752
C46   C     C_3   0.500039 0.767999 0.792433 -0.806509
H30   H     H_    0.417552 0.772673 0.820310 0.245620
H31   H     H_    0.584520 0.778810 0.818842 0.240802
H32   H     H_    0.496284 0.858772 0.762783 0.227607

loop_
_geom_bond_atom_site_label_1
_geom_bond_atom_site_label_2
_geom_bond_distance
_ccdc_geom_bond_type
O5    Cu1   1.944213 S    
C44   H24   1.114053 S    
C33   H9    1.083304 S    
C15   C17   1.399247 A    
C41   H15   1.110084 S    
C46   H30   1.110276 S    
O3    C2    1.289775 A    
O13   C43   1.410886 S    
C46   H32   1.110864 S    
C21   H3    1.082693 S    
C42   H18   1.110128 S    
O5    C3    1.295696 A    
C20   O14   1.383467 S    
O1    C1    1.289370 A    
C38   H12   1.081792 S    
C2    C35   1.449069 S    
C7    C9    1.399419 A    
C12   C14   1.422924 A    
C19   C29   1.404278 A    
C28   C46   1.505667 S    
C5    C13   1.418589 A    
C17   C41   1.511883 S    
C38   N3    1.366685 A    
O7    Cu1   1.944510 S    
C18   C42   1.511891 S    
C27   C29   1.408798 A    
C28   C30   1.409537 A    
C11   C12   1.415975 A    
C3    C23   1.473309 S    
O3    Cu1   1.964390 S    
C34   C36   1.401107 A    
C8    O12   1.350183 S    
C31   C33   1.383087 A    
C9    C15   1.399454 A    
C37   C40   1.415572 A    
C10   C16   1.399382 A    
Cu1   Cu2   2.673792 S    
C41   H16   1.110281 S    
C19   O13   1.384536 S    
O2    C2    1.289369 A    
C27   C45   1.504759 S    
N1    C30   1.435271 S    
C24   C26   1.404169 A    
N2    C29   1.435325 S    
C32   C34   1.383084 A    
C25   H5    1.083604 S    
C6    C14   1.418505 A    
C37   H11   1.081800 S    
O8    Cu2   1.944510 S    
C45   H27   1.109909 S    
C31   H7    1.083303 S    
O14   C44   1.410115 S    
C21   C23   1.403279 A    
Cu1   N3    2.009336 S    
C15   H1    1.084018 S    
C34   H10   1.083303 S    
C45   H28   1.110262 S    
C31   C36   1.400807 A    
C40   N3    1.366718 A    
C25   C27   1.399619 A    
O6    C4    1.296170 A    
C42   H19   1.110252 S    
C23   C25   1.403805 A    
C6    N2    1.366717 A    
C8    C10   1.399490 A    
C43   H22   1.111076 S    
C9    C11   1.408284 A    
C7    O11   1.350186 S    
C41   H17   1.110199 S    
C10   C12   1.408221 A    
O1    Cu1   1.963989 S    
C43   H23   1.109225 S    
C32   H8    1.083303 S    
C42   H20   1.110129 S    
C13   C18   1.426228 A    
C5    N1    1.366853 A    
O6    Cu2   1.944212 S    
Cu2   N4    2.009337 S    
O4    C1    1.289772 A    
C46   H31   1.109810 S    
C5    O9    1.347440 S    
C32   C35   1.400806 A    
C6    O10   1.347276 S    
C39   N4    1.366713 A    
C26   C28   1.399911 A    
C38   C39   1.415571 A    
C16   C18   1.399306 A    
C19   C21   1.402368 A    
C45   H29   1.110189 S    
C20   C22   1.400761 A    
C40   H14   1.081794 S    
C39   H13   1.081800 S    
C33   C35   1.401108 A    
C22   H4    1.082998 S    
N1    C7    1.362821 A    
C1    C36   1.449068 S    
N2    C8    1.362860 A    
C11   C13   1.422994 A    
O4    Cu2   1.964391 S    
O2    Cu2   1.963988 S    
O7    C4    1.295745 A    
O8    C3    1.296222 A    
C26   H6    1.083548 S    
C22   C24   1.403252 A    
C20   C30   1.404575 A    
C37   N4    1.366691 A    
C16   H2    1.084030 S    
C14   C17   1.426086 A    
C4    C24   1.473347 S    
C43   H21   1.114073 S    
C44   H26   1.109315 S    
C44   H25   1.111779 S    
