data_mof_unit_9225.cif
_audit_creation_date              2012-12-10T18:24:01-0500
_audit_creation_method            fapswitch 2.2
_symmetry_space_group_name_H-M    P1
_symmetry_Int_Tables_number       1
_space_group_crystal_system       triclinic
_cell_length_a                    22.501351
_cell_length_b                    22.424739
_cell_length_c                    14.638599
_cell_angle_alpha                 89.957901
_cell_angle_beta                  89.463441
_cell_angle_gamma                 90.002719
_cell_volume                      7386.11974054

loop_
_atom_site_label
_atom_site_type_symbol
_atom_type_description
_atom_site_fract_x
_atom_site_fract_y
_atom_site_fract_z
_atom_type_partial_charge
C1    C     C_R   0.419837 0.919685 0.500283 0.814553
C2    C     C_R   0.580166 0.080313 0.499715 0.814874
C3    C     C_R   0.580156 0.919678 0.499758 0.814414
C4    C     C_R   0.419841 0.080319 0.500241 0.814898
C5    C     C_R   0.919839 0.419683 0.500283 0.814671
C6    C     C_R   0.080166 0.580312 0.499715 0.814728
C7    C     C_R   0.080163 0.419685 0.499757 0.814536
C8    C     C_R   0.919847 0.580324 0.500240 0.814778
C9    C     C_1   0.337749 0.163018 0.501081 0.187201
C10   C     C_1   0.662194 0.836921 0.498927 0.189081
C11   C     C_1   0.662297 0.162977 0.498713 0.187883
C12   C     C_1   0.337795 0.836936 0.501175 0.190127
C13   C     C_1   0.837775 0.663043 0.501055 0.187570
C14   C     C_1   0.162224 0.336952 0.498914 0.188766
C15   C     C_1   0.162296 0.662978 0.498707 0.187755
C16   C     C_1   0.837802 0.336927 0.501184 0.190194
C17   C     C_1   0.500117 0.000008 0.194351 0.385415
C18   C     C_1   0.499826 0.999996 0.805652 0.383123
C19   C     C_1   0.000109 0.500004 0.194351 0.385220
C20   C     C_1   0.999818 0.499989 0.805651 0.383282
C21   C     C_3   0.529826 0.047600 0.968796 0.362148
C22   C     C_3   0.469987 0.952450 0.031192 0.354168
C23   C     C_3   0.473908 0.049867 0.030977 0.345539
C24   C     C_3   0.525916 0.950165 0.969012 0.299733
C25   C     C_3   0.029483 0.547792 0.968799 0.362162
C26   C     C_3   0.970293 0.452235 0.031186 0.354285
C27   C     C_3   0.973550 0.549676 0.030979 0.345555
C28   C     C_3   0.026237 0.450332 0.969004 0.299543
C29   C     C_3   0.701214 0.728308 0.457270 -0.331282
C30   C     C_3   0.297965 0.270848 0.545525 -0.328521
C31   C     C_3   0.298259 0.728784 0.544696 -0.331385
C32   C     C_3   0.701830 0.271128 0.455320 -0.327862
C33   C     C_3   0.201957 0.229060 0.454551 -0.331388
C34   C     C_3   0.798705 0.771593 0.542786 -0.328223
C35   C     C_3   0.798346 0.228695 0.544415 -0.331287
C36   C     C_3   0.201905 0.771051 0.455013 -0.328041
C37   C     C_3   0.265467 0.236630 0.414533 0.364590
C38   C     C_3   0.735856 0.764705 0.585576 0.356445
C39   C     C_3   0.735048 0.235944 0.585352 0.363767
C40   C     C_3   0.265283 0.763738 0.414335 0.359588
C41   C     C_3   0.764057 0.735204 0.414515 0.364501
C42   C     C_3   0.234448 0.263286 0.585579 0.356187
C43   C     C_3   0.234891 0.736107 0.585338 0.363880
C44   C     C_3   0.765137 0.263887 0.414346 0.359581
C45   C     C_1   0.375313 0.125230 0.500829 -0.060211
C46   C     C_1   0.624659 0.874740 0.499165 -0.059458
C47   C     C_1   0.624715 0.125204 0.499022 -0.059443
C48   C     C_1   0.375328 0.874755 0.500950 -0.058206
C49   C     C_1   0.875332 0.625248 0.500819 -0.060013
C50   C     C_1   0.124681 0.374762 0.499160 -0.059501
C51   C     C_1   0.124715 0.625205 0.499020 -0.059611
C52   C     C_1   0.875333 0.374750 0.500953 -0.058199
C53   C     C_3   0.229204 0.201310 0.541568 0.328386
C54   C     C_3   0.770005 0.797873 0.455855 0.360583
C55   C     C_3   0.770636 0.201585 0.457335 0.328478
C56   C     C_3   0.229468 0.798306 0.542064 0.358756
C57   C     C_3   0.729904 0.702017 0.544232 0.328935
C58   C     C_3   0.270708 0.298586 0.458539 0.360099
C59   C     C_3   0.270705 0.701515 0.457616 0.328589
C60   C     C_3   0.729548 0.298222 0.542370 0.358834
C61   C     C_3   0.291912 0.208629 0.500806 -0.175988
C62   C     C_3   0.707991 0.791270 0.499264 -0.181106
C63   C     C_3   0.708144 0.208580 0.499003 -0.176447
C64   C     C_3   0.292016 0.791269 0.500739 -0.181020
C65   C     C_3   0.791933 0.708648 0.500776 -0.176289
C66   C     C_3   0.208015 0.291296 0.499255 -0.180935
C67   C     C_3   0.208141 0.708583 0.498993 -0.176400
C68   C     C_3   0.792025 0.291259 0.500753 -0.181043
C69   C     C_3   0.556541 0.997759 0.029469 -0.098322
C70   C     C_3   0.443288 0.002306 0.970509 -0.097591
C71   C     C_3   0.056536 0.498135 0.029466 -0.098217
C72   C     C_3   0.943256 0.501906 0.970505 -0.097755
C73   C     C_3   0.500256 0.000010 0.091858 -0.310193
C74   C     C_3   0.499588 0.000001 0.908158 -0.306505
C75   C     C_3   0.000238 0.500001 0.091857 -0.310112
C76   C     C_3   0.999571 0.499987 0.908156 -0.306559
Cu1   Cu    Cu3+1 0.500000 0.000000 0.590220 1.094768
Cu2   Cu    Cu3+1 0.500000 1.000000 0.409780 1.094910
Cu3   Cu    Cu3+1 0.000000 0.500000 0.590220 1.095104
Cu4   Cu    Cu3+1 0.000000 0.500000 0.409780 1.094566
H1    H     H_    0.661232 0.710871 0.422365 0.238142
H2    H     H_    0.337350 0.287684 0.582629 0.235500
H3    H     H_    0.337778 0.711770 0.581307 0.238046
H4    H     H_    0.662237 0.288221 0.418981 0.235980
H5    H     H_    0.162579 0.212235 0.417418 0.238105
H6    H     H_    0.838694 0.789041 0.577663 0.235667
H7    H     H_    0.837931 0.211612 0.580784 0.238088
H8    H     H_    0.162378 0.788076 0.418434 0.235900
N1    N     N_1   0.499980 1.000000 0.274190 -0.134611
N2    N     N_1   0.500020 1.000000 0.725810 -0.134735
N3    N     N_1   0.999980 0.500000 0.274190 -0.134684
N4    N     N_1   0.000020 0.500000 0.725810 -0.134663
O1    O     O_R   0.439540 0.939530 0.576170 -0.572445
O2    O     O_R   0.560460 0.060470 0.423830 -0.571878
O3    O     O_R   0.560460 0.939530 0.423830 -0.573910
O4    O     O_R   0.439540 0.060470 0.576170 -0.573250
O5    O     O_R   0.939540 0.439530 0.576170 -0.572442
O6    O     O_R   0.060460 0.560470 0.423830 -0.572133
O7    O     O_R   0.060460 0.439530 0.423830 -0.574156
O8    O     O_R   0.939540 0.560470 0.576170 -0.572747
O9    O     O_R   0.439530 0.939530 0.423800 -0.542284
O10   O     O_R   0.560470 0.060470 0.576200 -0.543151
O11   O     O_R   0.560470 0.939530 0.576200 -0.542022
O12   O     O_R   0.439530 0.060470 0.423800 -0.542487
O13   O     O_R   0.939530 0.439530 0.423800 -0.542223
O14   O     O_R   0.060470 0.560470 0.576200 -0.543106
O15   O     O_R   0.060470 0.439530 0.576200 -0.541930
O16   O     O_R   0.939530 0.560470 0.423800 -0.542681
C77   C     C_3   0.381399 0.004745 0.927562 -0.326187
C78   C     C_3   0.330770 0.007102 0.997382 -0.570543
H9    H     H_    0.330878 0.967135 0.041672 0.288377
H10   H     H_    0.333712 0.047702 0.039932 0.288029
H11   H     H_    0.287755 0.008327 0.960891 0.242147
H12   H     H_    0.378879 0.044793 0.883062 0.240383
H13   H     H_    0.375569 0.964735 0.883860 0.241433
C79   C     C_3   0.618592 0.994529 0.071653 -0.349526
C80   C     C_3   0.668931 0.998290 0.001404 -0.612947
H14   H     H_    0.661702 0.967155 0.944019 0.275377
H15   H     H_    0.673240 0.044268 0.974599 0.297473
H16   H     H_    0.711491 0.986457 0.034628 0.243983
H17   H     H_    0.623521 0.031624 0.121264 0.246139
H18   H     H_    0.622317 0.951925 0.109890 0.225867
C81   C     C_3   0.881354 0.503919 0.927549 -0.325873
C82   C     C_3   0.830705 0.505928 0.997359 -0.570339
H19   H     H_    0.831085 0.465966 0.041651 0.288343
H20   H     H_    0.833363 0.546550 0.039908 0.287908
H21   H     H_    0.787685 0.506851 0.960862 0.242277
H22   H     H_    0.878564 0.543948 0.883051 0.240767
H23   H     H_    0.875801 0.463869 0.883842 0.241424
C83   C     C_3   0.118610 0.495332 0.071643 -0.349808
C84   C     C_3   0.168917 0.499439 0.001386 -0.612983
H24   H     H_    0.161888 0.468262 0.943990 0.275390
H25   H     H_    0.172915 0.545447 0.974596 0.297443
H26   H     H_    0.211558 0.487888 0.034595 0.244010
H27   H     H_    0.123288 0.532460 0.121256 0.246086
H28   H     H_    0.122627 0.452754 0.109875 0.225571
S1    S     S_3+6 0.286386 0.217298 0.300566 0.103839
O17   O     O_2   0.351491 0.229483 0.286381 -0.202738
O18   O     O_2   0.274261 0.152181 0.285332 -0.226916
O19   O     O_3   0.246545 0.258111 0.226779 -0.465317
H29   H     H_    0.261440 0.246286 0.165533 0.384909
S2    S     S_3+6 0.716862 0.786390 0.699323 0.083973
O20   O     O_2   0.733765 0.850564 0.713074 -0.219877
O21   O     O_2   0.651091 0.779205 0.714264 -0.233276
O22   O     O_3   0.753897 0.743402 0.773695 -0.472712
H30   H     H_    0.739922 0.756619 0.834769 0.389121
S3    S     S_3+6 0.714749 0.215729 0.699266 0.104154
O23   O     O_2   0.649689 0.227666 0.714425 -0.201861
O24   O     O_2   0.727087 0.150528 0.713358 -0.226225
O25   O     O_3   0.754885 0.256074 0.773186 -0.462518
H31   H     H_    0.740403 0.243682 0.834425 0.383799
S4    S     S_3+6 0.285745 0.784243 0.300596 0.078383
O26   O     O_2   0.268749 0.848164 0.284461 -0.215088
O27   O     O_2   0.351728 0.777240 0.287996 -0.245886
O28   O     O_3   0.249950 0.740240 0.226258 -0.473413
H32   H     H_    0.264817 0.752740 0.165285 0.383433
S5    S     S_3+6 0.783114 0.713992 0.300585 0.103837
O29   O     O_2   0.847969 0.725967 0.283399 -0.202481
O30   O     O_2   0.770794 0.648636 0.288378 -0.227126
O31   O     O_3   0.742031 0.753541 0.226812 -0.464740
H33   H     H_    0.755936 0.740706 0.165508 0.385117
S6    S     S_3+6 0.213598 0.283104 0.699383 0.084548
O32   O     O_2   0.230314 0.346999 0.716297 -0.219008
O33   O     O_2   0.147611 0.275784 0.711472 -0.234164
O34   O     O_3   0.249356 0.238828 0.773480 -0.473396
H34   H     H_    0.234406 0.251051 0.834508 0.389892
S7    S     S_3+6 0.214396 0.716099 0.699257 0.104119
O35   O     O_2   0.149316 0.728078 0.714112 -0.201816
O36   O     O_2   0.226693 0.650920 0.713667 -0.226517
O37   O     O_3   0.254418 0.756566 0.773169 -0.462449
H35   H     H_    0.239966 0.744144 0.834410 0.383820
S8    S     S_3+6 0.785401 0.284594 0.300612 0.078388
O38   O     O_2   0.768386 0.348547 0.284819 -0.215223
O39   O     O_2   0.851362 0.277603 0.287708 -0.245947
O40   O     O_3   0.749466 0.240731 0.226242 -0.473193
H36   H     H_    0.764258 0.253309 0.165264 0.383460
S9    S     S_3+6 0.796194 0.862904 0.398159 0.103270
O41   O     O_2   0.757029 0.875744 0.317924 -0.231221
O42   O     O_2   0.794613 0.914833 0.462959 -0.216586
O43   O     O_3   0.866340 0.851465 0.361821 -0.454360
H37   H     H_    0.877345 0.888375 0.328530 0.398109
S10   S     S_3+6 0.202408 0.134957 0.594994 0.112629
O44   O     O_2   0.204374 0.084623 0.527361 -0.183758
O45   O     O_2   0.241103 0.119560 0.674786 -0.241760
O46   O     O_3   0.131839 0.145075 0.630584 -0.447098
H38   H     H_    0.134497 0.154402 0.696532 0.398436
S11   S     S_3+6 0.202523 0.863948 0.597093 0.105615
O47   O     O_2   0.240623 0.877725 0.678151 -0.223988
O48   O     O_2   0.204933 0.915142 0.530864 -0.216938
O49   O     O_3   0.131935 0.852846 0.631591 -0.454282
H39   H     H_    0.120383 0.890232 0.663068 0.398805
S12   S     S_3+6 0.797156 0.135643 0.402564 0.112454
O50   O     O_2   0.795635 0.084827 0.469481 -0.184023
O51   O     O_2   0.757988 0.120785 0.323116 -0.240674
O52   O     O_3   0.867504 0.146071 0.366115 -0.447399
H40   H     H_    0.864417 0.156120 0.300445 0.396945
S13   S     S_3+6 0.297823 0.364547 0.404462 0.104205
O53   O     O_2   0.260034 0.378745 0.323197 -0.229315
O54   O     O_2   0.295118 0.415374 0.471214 -0.216945
O55   O     O_3   0.368549 0.353686 0.370499 -0.454424
H41   H     H_    0.380178 0.391231 0.339452 0.398642
S14   S     S_3+6 0.704023 0.636584 0.601280 0.111986
O56   O     O_2   0.704836 0.585137 0.535599 -0.184141
O57   O     O_2   0.744078 0.622510 0.680039 -0.242514
O58   O     O_3   0.634068 0.647320 0.639286 -0.447072
H42   H     H_    0.637839 0.657600 0.704756 0.398610
S15   S     S_3+6 0.702700 0.363761 0.597797 0.105433
O59   O     O_2   0.740951 0.377393 0.678743 -0.224136
O60   O     O_2   0.704982 0.415075 0.531779 -0.217530
O61   O     O_3   0.632175 0.352590 0.632559 -0.454212
H43   H     H_    0.620675 0.389921 0.664231 0.398818
S16   S     S_3+6 0.297323 0.635471 0.403242 0.112224
O62   O     O_2   0.295680 0.584778 0.470372 -0.184019
O63   O     O_2   0.258300 0.620466 0.323689 -0.240701
O64   O     O_3   0.367735 0.645833 0.367049 -0.447868
H44   H     H_    0.364765 0.655782 0.301328 0.397030
S17   S     S_3+6 0.441397 0.116536 0.075960 0.081972
O65   O     O_2   0.400314 0.101150 0.154020 -0.257572
O66   O     O_2   0.489616 0.156985 0.109876 -0.186742
O67   O     O_3   0.403135 0.151219 0.993388 -0.487056
H45   H     H_    0.384239 0.185837 0.023992 0.395054
S18   S     S_3+6 0.557959 0.883231 0.923872 0.101108
O68   O     O_2   0.509429 0.843813 0.888287 -0.158036
O69   O     O_2   0.599778 0.897948 0.846402 -0.262458
O70   O     O_3   0.594689 0.846703 0.006352 -0.446907
H46   H     H_    0.636057 0.861642 0.002739 0.357304
S19   S     S_3+6 0.567360 0.111389 0.923124 0.082763
O71   O     O_2   0.608922 0.092206 0.847734 -0.256895
O72   O     O_2   0.522447 0.154189 0.885385 -0.190222
O73   O     O_3   0.606044 0.144923 0.006266 -0.484277
H47   H     H_    0.627476 0.177962 0.975392 0.393394
S20   S     S_3+6 0.432175 0.888699 0.076627 0.083586
O74   O     O_2   0.476977 0.844372 0.110381 -0.182257
O75   O     O_2   0.392729 0.907430 0.154901 -0.256949
O76   O     O_3   0.390919 0.857321 0.994470 -0.486605
H48   H     H_    0.369510 0.824234 0.025260 0.393157
S21   S     S_3+6 0.940576 0.616117 0.075964 0.082088
O77   O     O_2   0.899591 0.600442 0.154010 -0.257684
O78   O     O_2   0.988511 0.656898 0.109901 -0.186904
O79   O     O_3   0.902085 0.650535 0.993386 -0.486633
H49   H     H_    0.882924 0.685004 0.023997 0.395286
S22   S     S_3+6 0.058725 0.383611 0.923856 0.101329
O80   O     O_2   0.010457 0.343864 0.888286 -0.157547
O81   O     O_2   0.100437 0.398601 0.846374 -0.262327
O82   O     O_3   0.095707 0.347337 0.006328 -0.447348
H50   H     H_    0.136966 0.362575 0.002733 0.357345
S23   S     S_3+6 0.066580 0.611839 0.923137 0.082718
O83   O     O_2   0.108274 0.592945 0.847746 -0.256993
O84   O     O_2   0.021375 0.654329 0.885403 -0.190031
O85   O     O_3   0.105031 0.645636 0.006288 -0.484435
H51   H     H_    0.126267 0.678800 0.975412 0.393441
S24   S     S_3+6 0.932910 0.388231 0.076617 0.083417
O86   O     O_2   0.978007 0.344208 0.110370 -0.182668
O87   O     O_2   0.893338 0.406698 0.154892 -0.256876
O88   O     O_3   0.891866 0.356575 0.994457 -0.486637
H52   H     H_    0.870651 0.323366 0.025255 0.393199

loop_
_geom_bond_atom_site_label_1
_geom_bond_atom_site_label_2
_ccdc_geom_bond_type
C23   S17   S    
C58   S13   S    
C9    C45   T    
O34   H34   S    
C26   C72   S    
C31   C43   S    
C11   C47   T    
C83   H27   S    
C23   C70   S    
C72   C76   S    
C84   H26   S    
O22   H30   S    
C81   H22   S    
C36   C67   S    
C81   C82   S    
S7    O36   D    
C5    O13   A    
O58   H42   S    
C36   H8    S    
S17   O67   S    
S1    O18   D    
C20   C76   S    
C10   C62   S    
S5    O29   D    
S14   O57   D    
C9    C61   S    
C6    O6    A    
C22   C24   S    
C82   H20   S    
S3    O24   D    
C11   C63   S    
C80   H15   S    
C42   C53   S    
C12   C64   S    
S16   O63   D    
O37   H35   S    
C2    O10   A    
C38   C57   S    
C4    O12   A    
S21   O77   D    
C31   H3    S    
C79   C80   S    
C40   S4    S    
O85   H51   S    
C34   H6    S    
C31   C59   S    
S13   O54   D    
C33   H5    S    
S10   O44   D    
C69   C79   S    
S11   O49   S    
C59   C67   S    
C4    O4    A    
C53   C61   S    
C58   C66   S    
S3    O23   D    
O55   H41   S    
S9    O42   D    
S14   O58   S    
C55   C63   S    
C57   S14   S    
C70   C74   S    
S15   O61   S    
S22   O81   D    
O76   H48   S    
C56   C64   S    
C5    C52   S    
C69   C73   S    
C16   C68   S    
C15   C51   T    
C6    C51   S    
Cu1   O11   S    
C77   C78   S    
C37   C58   S    
Cu4   O13   S    
S8    O40   S    
C12   C48   T    
Cu4   O6    S    
S5    O30   D    
C40   C59   S    
C37   S1    S    
O82   H50   S    
C81   H23   S    
Cu2   O9    S    
C17   C73   S    
C38   S2    S    
S2    O22   S    
Cu1   O10   S    
S13   O53   D    
C35   H7    S    
C23   C73   S    
C27   C75   S    
C8    O16   A    
C34   C65   S    
O67   H45   S    
S8    O39   D    
C24   C69   S    
O70   H46   S    
S7    O37   S    
S6    O33   D    
C4    C45   S    
S23   O84   D    
Cu2   N1    S    
C33   C53   S    
C21   S19   S    
S1    O19   S    
Cu1   N2    S    
C82   H19   S    
S22   O82   S    
S14   O56   D    
C29   C57   S    
C35   C55   S    
S15   O59   D    
C18   N2    T    
S12   O52   S    
Cu3   O8    S    
C2    O2    A    
S3    O25   S    
C17   N1    T    
O19   H29   S    
C7    C50   S    
S21   O79   S    
C80   H16   S    
S7    O35   D    
C43   C67   S    
C41   C65   S    
O52   H40   S    
C54   C62   S    
S18   O70   S    
S17   O65   D    
Cu1   Cu2   S    
C56   S11   S    
Cu2   O12   S    
C21   C74   S    
S20   O76   S    
C33   C37   S    
C78   H9    S    
Cu3   O14   S    
C21   C69   S    
S10   O46   S    
S12   O51   D    
C7    O7    A    
S13   O55   S    
C35   C39   S    
O64   H44   S    
C44   S8    S    
O49   H39   S    
C29   H1    S    
C59   S16   S    
C36   C56   S    
C70   C77   S    
S6    O34   S    
C20   N4    T    
S19   O71   D    
S4    O28   S    
C36   C40   S    
Cu2   O3    S    
S9    O43   S    
C15   C67   S    
C33   C66   S    
C26   S24   S    
S20   O75   D    
C26   C75   S    
C14   C66   S    
Cu3   O15   S    
C28   S22   S    
C60   S15   S    
C25   C71   S    
S4    O26   D    
S18   O69   D    
C6    O14   A    
C78   H11   S    
C60   C68   S    
Cu3   N4    S    
C13   C49   T    
C79   H18   S    
C77   H12   S    
S24   O88   S    
C41   S5    S    
C25   S23   S    
C1    O1    A    
S19   O72   D    
S4    O27   D    
C34   C54   S    
S5    O31   S    
C43   S7    S    
S21   O78   D    
C72   C81   S    
C7    O15   A    
C44   C68   S    
C28   C71   S    
S17   O66   D    
C32   C60   S    
C39   S3    S    
C84   H24   S    
C28   C76   S    
C1    O9    A    
C10   C46   T    
C32   C63   S    
S8    O38   D    
C27   S21   S    
S24   O87   D    
S6    O32   D    
S23   O85   S    
C3    O11   A    
C29   C62   S    
C30   H2    S    
C3    C46   S    
S10   O45   D    
C29   C41   S    
O43   H37   S    
C34   C38   S    
S16   O64   S    
C31   C64   S    
Cu3   O5    S    
C83   H28   S    
C16   C52   T    
C32   H4    S    
C57   C65   S    
C84   H25   S    
C37   C61   S    
S23   O83   D    
C42   S6    S    
C1    C48   S    
S15   O60   D    
C24   S18   S    
C2    C47   S    
C25   C27   S    
C39   C63   S    
S1    O17   D    
Cu4   O16   S    
Cu1   O4    S    
C26   C28   S    
C40   C64   S    
C54   S9    S    
C25   C76   S    
C55   S12   S    
S24   O86   D    
Cu4   N3    S    
C21   C23   S    
C83   C84   S    
C8    O8    A    
S22   O80   D    
S11   O47   D    
Cu4   O7    S    
O40   H36   S    
C80   H14   S    
S12   O50   D    
C71   C83   S    
C71   C75   S    
Cu1   O1    S    
C44   C55   S    
C24   C74   S    
O46   H38   S    
C14   C50   T    
C35   C68   S    
Cu2   O2    S    
C39   C60   S    
C30   C58   S    
S18   O68   D    
C19   C75   S    
S20   O74   D    
C42   C66   S    
C5    O5    A    
S2    O21   D    
O61   H43   S    
O73   H47   S    
C13   C65   S    
O31   H33   S    
C78   H10   S    
C41   C54   S    
S11   O48   D    
C19   N3    T    
C77   H13   S    
Cu3   Cu4   S    
C43   C56   S    
S19   O73   S    
C22   S20   S    
S16   O62   D    
C32   C44   S    
C18   C74   S    
S9    O41   D    
C30   C61   S    
C82   H21   S    
O28   H32   S    
O79   H49   S    
S2    O20   D    
C30   C42   S    
C3    O3    A    
C79   H17   S    
C22   C73   S    
C53   S10   S    
C8    C49   S    
C22   C70   S    
C27   C72   S    
O88   H52   S    
O25   H31   S    
C38   C62   S    
