data_mof_unit_51752.cif
_audit_creation_date              2012-12-10T16:54:34-0500
_audit_creation_method            fapswitch 2.2
_symmetry_space_group_name_H-M    P1
_symmetry_Int_Tables_number       1
_space_group_crystal_system       triclinic
_cell_length_a                    14.99708
_cell_length_b                    10.925636
_cell_length_c                    9.719271
_cell_angle_alpha                 90.03321
_cell_angle_beta                  89.736586
_cell_angle_gamma                 89.963946
_cell_volume                      1592.51076879

loop_
_atom_site_label
_atom_site_type_symbol
_atom_type_description
_atom_site_fract_x
_atom_site_fract_y
_atom_site_fract_z
_atom_type_partial_charge
C1    C     C_R   0.501027 0.265435 0.500022 0.844887
C2    C     C_R   0.906541 0.600301 0.443045 -0.056255
C3    C     C_R   0.952250 0.317039 0.647878 0.454229
C4    C     C_R   0.045347 0.315033 0.643233 -0.272600
C5    C     C_R   0.093056 0.407993 0.576045 -0.009146
C6    C     C_R   0.046639 0.506249 0.513774 -0.067845
C7    C     C_R   0.093829 0.602577 0.449362 -0.071921
C8    C     C_R   0.047135 0.704570 0.395710 0.417986
C9    C     C_R   0.953704 0.700870 0.386924 0.412477
C10   C     C_R   0.186492 0.403690 0.568472 0.471559
C11   C     C_R   0.232475 0.498509 0.501581 -0.155254
C12   C     C_R   0.329026 0.499997 0.500322 0.835517
C13   C     C_R   0.186766 0.594809 0.439637 -0.290740
C14   C     C_2   0.500237 0.933001 0.387006 -0.169298
C15   C     C_2   0.493616 0.866600 0.502441 -0.320269
C16   C     C_2   0.496027 0.066990 0.387199 -0.166032
C17   C     C_2   0.505145 0.133391 0.502193 -0.319521
C18   C     C_2   0.459723 0.417188 0.922749 -0.021909
C19   C     C_2   0.448989 0.429484 0.077112 0.080293
C20   C     C_R   0.498718 0.734575 0.500122 0.826425
C21   C     C_R   0.671014 0.499291 0.499763 0.786003
C22   C     C_R   0.813735 0.591566 0.431424 -0.178781
C23   C     C_R   0.767484 0.499328 0.500296 -0.080856
C24   C     C_R   0.812724 0.410422 0.575429 -0.198002
C25   C     C_R   0.905769 0.410646 0.579276 0.059851
C26   C     C_R   0.953025 0.506522 0.513300 -0.047467
Cu1   Cu    Cu3+1 0.500020 0.500020 0.638630 0.965364
Cu2   Cu    Cu3+1 0.499980 0.499980 0.361370 0.974132
H1    H     H_    0.776237 0.658194 0.373138 0.155434
H2    H     H_    0.482237 0.907657 0.602297 0.147560
H3    H     H_    0.486802 0.111714 0.288469 0.167346
H4    H     H_    0.517780 0.092341 0.601461 0.150402
H5    H     H_    0.429894 0.338311 0.873291 0.146333
H6    H     H_    0.512820 0.581744 0.891112 0.233759
H7    H     H_    0.396086 0.377575 0.126230 0.077669
H8    H     H_    0.774907 0.339764 0.627897 0.179858
H9    H     H_    0.079869 0.239524 0.691719 0.196784
H10   H     H_    0.224624 0.665046 0.386635 0.179539
H11   H     H_    0.507824 0.888352 0.287769 0.155943
N1    N     N_2   0.499020 0.498660 0.846910 -0.264696
N2    N     N_2   0.499000 0.498630 0.153040 0.013636
O1    O     O_R   0.500020 0.321960 0.617040 -0.575253
O2    O     O_R   0.499980 0.321920 0.382900 -0.582087
O3    O     O_R   0.370270 0.499990 0.617090 -0.548948
O4    O     O_R   0.370240 0.499950 0.382940 -0.606268
O5    O     O_R   0.500020 0.678080 0.617100 -0.591982
O6    O     O_R   0.499980 0.678040 0.382960 -0.599823
O7    O     O_R   0.629760 0.500050 0.617060 -0.567437
O8    O     O_R   0.629730 0.500010 0.382910 -0.550536
O9    O     O_3   0.578933 0.526107 0.096502 -0.484674
C27   C     C_3   0.594944 0.651739 0.118264 -0.127842
H12   H     H_    0.629526 0.667325 0.217012 0.179742
H13   H     H_    0.533085 0.708053 0.112192 0.114113
H14   H     H_    0.640387 0.684715 0.035910 0.125803
O10   O     O_3   0.906680 0.221312 0.709136 -0.592045
C28   C     C_3   0.907332 0.238947 0.852827 -0.311688
H15   H     H_    0.867029 0.165559 0.901503 0.199896
H16   H     H_    0.876534 0.328190 0.881764 0.169390
H17   H     H_    0.976084 0.232278 0.894716 0.168799
O11   O     O_3   0.232928 0.308256 0.628883 -0.586442
C29   C     C_3   0.252032 0.219735 0.527026 -0.362341
H18   H     H_    0.302562 0.253944 0.452497 0.163588
H19   H     H_    0.191020 0.190728 0.470962 0.162058
H20   H     H_    0.280297 0.137543 0.577703 0.193444
O12   O     O_3   0.091546 0.805343 0.341788 -0.550969
C30   C     C_3   0.132290 0.874265 0.448434 0.041507
H21   H     H_    0.191309 0.921450 0.403944 0.164334
H22   H     H_    0.157344 0.818077 0.535667 0.132296
C31   C     C_3   0.069283 0.971444 0.505328 -0.789048
H23   H     H_    0.012720 0.927410 0.559767 0.239281
H24   H     H_    0.105173 0.029095 0.580975 0.207298
H25   H     H_    0.044381 0.030526 0.420911 0.259173
O13   O     O_3   0.910530 0.791959 0.313304 -0.546461
C32   C     C_3   0.862442 0.870764 0.402512 -0.292600
H26   H     H_    0.863999 0.844961 0.513588 0.136699
H27   H     H_    0.791724 0.873652 0.369602 0.164787
H28   H     H_    0.888985 0.964958 0.391807 0.201846

loop_
_geom_bond_atom_site_label_1
_geom_bond_atom_site_label_2
_ccdc_geom_bond_type
Cu1   O7    S    
C8    C9    A    
C30   H22   S    
O10   C28   S    
Cu2   O6    S    
C22   H1    S    
C31   H25   S    
O13   C32   S    
C21   O8    A    
C7    C8    A    
C16   H3    S    
C24   H8    S    
C32   H27   S    
H6    N1    S    
C5    C6    A    
C30   C31   S    
Cu2   N2    S    
C28   H15   S    
C29   H19   S    
C18   C19   S    
C31   H24   S    
C18   N1    D    
C14   H11   S    
C3    O10   S    
Cu1   O3    S    
C1    O2    A    
C16   C17   D    
C32   H28   S    
C2    C22   A    
C23   C24   A    
C21   O7    A    
C30   H21   S    
C8    O12   S    
C31   H23   S    
C9    O13   S    
C15   C20   S    
Cu2   O4    S    
C32   H26   S    
C27   H12   S    
C3    C25   A    
C24   C25   A    
C4    C5    A    
C25   C26   A    
O11   C29   S    
C27   H13   S    
C29   H20   S    
C10   O11   S    
Cu2   O8    S    
Cu1   N1    S    
O9    C27   S    
C2    C26   A    
C13   H10   S    
Cu1   O5    S    
C21   C23   S    
C14   C16   S    
C3    C4    A    
N2    O9    S    
C15   H2    S    
C22   C23   A    
C12   O4    A    
C11   C12   S    
C6    C7    A    
Cu2   O2    S    
C1    C17   S    
C28   H17   S    
C27   H14   S    
C5    C10   A    
C12   O3    A    
C19   H7    S    
C11   C13   A    
Cu1   O1    S    
C6    C26   A    
C28   H16   S    
C29   H18   S    
C18   H5    S    
C20   O6    A    
C10   C11   A    
C1    O1    A    
C7    C13   A    
C4    H9    S    
O12   C30   S    
Cu1   Cu2   S    
C17   H4    S    
C14   C15   D    
C2    C9    A    
C20   O5    A    
C19   N2    D    
