data_mof_unit_40465.cif
_audit_creation_date              2012-12-10T16:54:52-0500
_audit_creation_method            fapswitch 2.2
_symmetry_space_group_name_H-M    P1
_symmetry_Int_Tables_number       1
_space_group_crystal_system       triclinic
_cell_length_a                    7.820667
_cell_length_b                    8.582973
_cell_length_c                    15.707607
_cell_angle_alpha                 91.901931
_cell_angle_beta                  85.754268
_cell_angle_gamma                 92.244841
_cell_volume                      1050.18052969

loop_
_atom_site_label
_atom_site_type_symbol
_atom_type_description
_atom_site_fract_x
_atom_site_fract_y
_atom_site_fract_z
_atom_type_partial_charge
C1    C     C_R   0.542910 0.794185 0.497140 0.925291
C2    C     C_2   0.441219 0.046581 0.519996 -0.081105
C3    C     C_R   0.501666 0.500394 0.661530 0.901779
C4    C     C_R   0.456456 0.205785 0.502835 0.941946
C5    C     C_R   0.498379 0.499662 0.338558 0.907752
C6    C     C_3   0.363210 0.610244 0.958272 0.359913
C7    C     C_3   0.681494 0.551860 0.946208 -0.423652
C8    C     C_3   0.685152 0.534265 0.043586 -0.012886
C9    C     C_1   0.495284 0.498625 0.249902 -0.056568
C10   C     C_3   0.502074 0.500195 0.917421 0.174521
C11   C     C_3   0.230274 0.803484 0.888939 0.106068
C12   C     C_3   0.380082 0.623831 0.055656 -0.404241
C13   C     C_3   0.239216 0.977278 0.874604 -0.733816
C14   C     C_3   0.499363 0.496590 0.082957 0.073979
C15   C     C_3   0.437006 0.332641 0.047298 0.276057
C16   C     C_3   0.456068 0.333209 0.948155 -0.561535
C17   C     C_1   0.496108 0.497446 0.174542 0.048288
C18   C     C_1   0.504545 0.500454 0.825749 -0.022806
C19   C     C_1   0.504778 0.500381 0.750350 -0.153611
C20   C     C_2   0.554392 0.952639 0.478359 -0.069833
H1    H     H_    0.433198 0.741548 0.073549 0.258582
H2    H     H_    0.114978 0.779119 0.933307 0.158451
H3    H     H_    0.215626 0.739858 0.826888 0.157741
H4    H     H_    0.357038 0.009983 0.834320 0.266803
H5    H     H_    0.124624 0.011343 0.842894 0.222746
H6    H     H_    0.241363 0.039336 0.937457 0.274721
H7    H     H_    0.235386 0.551783 0.948002 0.064820
H8    H     H_    0.250575 0.613769 0.089777 0.191206
H9    H     H_    0.986289 0.615601 0.566262 0.180285
H10   H     H_    0.782483 0.479712 0.912634 0.166314
H11   H     H_    0.710945 0.675013 0.928708 0.235787
H12   H     H_    0.768859 0.436620 0.055010 0.188896
H13   H     H_    0.334624 0.291306 0.921386 0.191015
H14   H     H_    0.557126 0.253095 0.922457 0.223569
I1    I     I_    0.579577 0.143295 0.090932 -0.253065
I2    I     I_    0.688244 0.001457 0.358101 -0.180955
I3    I     I_    0.278827 0.991112 0.631874 -0.380163
I4    I     I_    0.043882 0.305126 0.381741 -0.067646
I5    I     I_    0.814159 0.734726 0.100447 -0.299851
I6    I     I_    0.172983 0.275027 0.091106 -0.327662
N1    N     N_2   0.950340 0.457950 0.477370 0.010720
N2    N     N_2   0.049660 0.542050 0.522630 -0.128662
O1    O     O_R   0.389240 0.738570 0.505550 -0.595863
O2    O     O_R   0.678400 0.711630 0.491050 -0.618009
O3    O     O_R   0.355360 0.513470 0.630110 -0.610644
O4    O     O_R   0.644510 0.486530 0.615610 -0.634964
O5    O     O_R   0.321600 0.288370 0.508950 -0.586778
O6    O     O_R   0.610760 0.261430 0.494450 -0.602070
O7    O     O_R   0.355490 0.513470 0.384390 -0.600176
O8    O     O_R   0.644640 0.486530 0.369890 -0.585716
O9    O     O_3   0.383132 0.760959 0.923386 -0.587158
Zn1   Zn    Zn3+2 0.306930 0.517990 0.509680 1.033880
Zn2   Zn    Zn3+2 0.693070 0.482010 0.490320 1.038307

loop_
_geom_bond_atom_site_label_1
_geom_bond_atom_site_label_2
_ccdc_geom_bond_type
C6    C10   S    
C7    C10   S    
C2    C4    S    
C5    C9    S    
O5    Zn1   S    
C8    I5    S    
C16   H13   S    
N1    N2    D    
C11   H2    S    
C6    H7    S    
C2    I3    S    
O7    Zn1   S    
N1    Zn2   S    
C3    O3    A    
C7    C8    S    
C7    H10   S    
C10   C16   S    
C9    C17   T    
C3    C19   S    
C11   C13   S    
C14   C17   S    
C5    O7    A    
C10   C18   S    
C1    O2    A    
O2    Zn2   S    
O4    Zn2   S    
C15   I1    S    
C12   C14   S    
O1    Zn1   S    
H9    N2    S    
C6    C12   S    
O6    Zn2   S    
C6    O9    S    
C15   I6    S    
O8    Zn2   S    
C11   O9    S    
C13   H6    S    
C2    C20   D    
C15   C16   S    
C8    H12   S    
C5    O8    A    
C7    H11   S    
C12   H8    S    
I4    N1    S    
C18   C19   T    
C4    O6    A    
C11   H3    S    
C14   C15   S    
C1    C20   S    
C8    C14   S    
C3    O4    A    
O3    Zn1   S    
C16   H14   S    
C12   H1    S    
C1    O1    A    
C13   H4    S    
N2    Zn1   S    
C13   H5    S    
C4    O5    A    
C20   I2    S    
