data_mof_unit_26467.cif
_audit_creation_date              2013-03-05T15:52:20-0500
_audit_creation_method            fapswitch 2.2
_symmetry_space_group_name_H-M    P1
_symmetry_Int_Tables_number       1
_space_group_crystal_system       triclinic
_cell_length_a                    10.635124
_cell_length_b                    10.672375
_cell_length_c                    16.988175
_cell_angle_alpha                 80.636318
_cell_angle_beta                  99.288361
_cell_angle_gamma                 118.476254
_cell_volume                      1664.49595388

loop_
_atom_site_label
_atom_site_type_symbol
_atom_site_description
_atom_site_fract_x
_atom_site_fract_y
_atom_site_fract_z
_atom_type_partial_charge
O1    O     O_R   0.754020 0.497590 0.609930 -0.458529
O2    O     O_R   0.481420 0.271390 0.600630 -0.502389
C1    C     C_R   0.360737 0.227965 0.627256 0.544070
O3    O     O_R   0.263810 0.254550 0.589590 -0.517239
O4    O     O_R   0.300820 0.531200 0.560890 -0.498892
C2    C     C_R   0.369433 0.654770 0.585952 0.540035
O5    O     O_R   0.491480 0.744020 0.564270 -0.524186
O6    O     O_R   0.726290 0.693800 0.583010 -0.492951
C3    C     C_R   0.720341 0.587411 0.633333 0.566281
O7    O     O_R   0.747830 0.500190 0.434090 -0.513358
O8    O     O_R   0.475680 0.273800 0.437630 -0.521023
C4    C     C_R   0.349749 0.222125 0.401589 0.543111
O9    O     O_R   0.257620 0.257160 0.413750 -0.517980
O10   O     O_R   0.295080 0.533620 0.397890 -0.498742
C5    C     C_R   0.362573 0.657021 0.361704 0.544872
O11   O     O_R   0.485280 0.746620 0.388440 -0.528498
O12   O     O_R   0.720550 0.696220 0.420010 -0.511826
C6    C     C_R   0.700916 0.583201 0.389657 0.574836
Cr1   Cr    Cr6+3 0.608440 0.389080 0.519680 1.029636
Cr2   Cr    Cr6+3 0.288640 0.400090 0.490760 0.997445
Cr3   Cr    Cr6+3 0.602940 0.710800 0.489510 1.000155
O13   O     O_3   0.500010 0.499990 0.499980 -0.287466
C7    C     C_R   0.280716 0.735529 0.798997 -0.025405
C8    C     C_R   0.186162 0.607383 0.765451 0.050808
C9    C     C_R   0.203731 0.584891 0.690896 -0.004585
C10   C     C_R   0.388233 0.829562 0.673181 -0.141736
C11   C     C_R   0.372281 0.851356 0.749187 -0.157262
C12   C     C_3   0.148603 0.455793 0.797930 0.099011
C13   C     C_3   0.167687 0.431415 0.715932 -0.226461
C14   C     C_R   0.314279 0.691018 0.647284 0.006057
H1    H     H_    0.469557 0.917084 0.638979 0.152048
H2    H     H_    0.439812 0.955118 0.771278 0.156079
H3    H     H_    0.228169 0.445884 0.846518 0.123867
H4    H     H_    0.260968 0.410817 0.716914 0.112605
H5    H     H_    0.067241 0.356748 0.682643 0.183955
C15   C     C_1   0.772684 0.630232 0.712291 0.001060
C16   C     C_1   0.819029 0.669189 0.778064 -0.011388
C17   C     C_1   0.345108 0.186848 0.709657 -0.044809
C18   C     C_1   0.320968 0.159900 0.778210 -0.049398
C19   C     C_1   0.318801 0.682673 0.280275 -0.057543
C20   C     C_1   0.297368 0.706414 0.209647 -0.059732
C21   C     C_R   0.794157 0.647343 0.148610 0.012558
C22   C     C_R   0.768182 0.518376 0.196053 0.037812
C23   C     C_R   0.731038 0.495567 0.272612 0.025787
C24   C     C_R   0.710720 0.714267 0.251944 -0.158198
C25   C     C_R   0.750975 0.738894 0.173782 -0.156979
C26   C     C_3   0.861539 0.445625 0.219389 -0.265049
C27   C     C_3   0.822747 0.423329 0.303816 -0.269562
C28   C     C_R   0.715292 0.599008 0.304437 0.004123
H6    H     H_    0.688115 0.791255 0.272956 0.145798
H7    H     H_    0.760911 0.835151 0.136615 0.139530
H8    H     H_    0.977652 0.518740 0.214083 0.151525
H9    H     H_    0.817645 0.344056 0.191238 0.135830
H10   H     H_    0.760040 0.308853 0.325056 0.127507
H11   H     H_    0.916415 0.486138 0.345700 0.160204
C29   C     C_R   0.318603 0.159985 0.162442 0.015172
C30   C     C_R   0.211929 0.173423 0.193442 0.019602
C31   C     C_R   0.214778 0.174556 0.273847 0.047067
C32   C     C_R   0.437511 0.159402 0.296350 -0.159314
C33   C     C_R   0.435158 0.158268 0.214226 -0.158079
C34   C     C_3   0.051915 0.080866 0.185816 -0.243609
C35   C     C_3   0.055665 0.081277 0.275219 -0.129753
C36   C     C_R   0.325467 0.165402 0.326582 0.004240
H12   H     H_    0.526347 0.156446 0.336219 0.129991
H13   H     H_    0.518755 0.146556 0.192263 0.136221
H14   H     H_    0.020856 0.972740 0.169399 0.148507
H15   H     H_    0.995581 0.137250 0.147373 0.149913
H16   H     H_    0.027911 0.973516 0.308086 0.147420
O14   O     O_R   0.163320 0.092900 0.874450 -0.479084
O15   O     O_R   0.934650 0.822080 0.882840 -0.490395
C37   C     C_R   0.885161 0.698973 0.857186 0.542985
O16   O     O_R   0.915520 0.604140 0.893670 -0.468466
O17   O     O_R   0.191760 0.638110 0.923230 -0.468052
C38   C     C_R   0.281989 0.750648 0.882823 0.556065
O18   O     O_R   0.406180 0.826930 0.920660 -0.496260
O19   O     O_R   0.358620 0.062870 0.901950 -0.510878
C39   C     C_R   0.284923 0.115260 0.857881 0.541352
O20   O     O_R   0.163910 0.085460 0.050210 -0.503955
O21   O     O_R   0.935200 0.815170 0.045770 -0.510909
C40   C     C_R   0.882332 0.688741 0.082391 0.525193
O22   O     O_R   0.916120 0.596690 0.069430 -0.523302
O23   O     O_R   0.192310 0.631200 0.086170 -0.486483
C41   C     C_R   0.284701 0.738488 0.125536 0.557693
O24   O     O_R   0.406770 0.819480 0.096420 -0.500268
O25   O     O_R   0.359170 0.055960 0.064880 -0.522967
C42   C     C_R   0.285086 0.107677 0.085161 0.542292
Cr4   Cr    Cr6+3 0.052530 0.947560 0.964210 1.060523
Cr5   Cr    Cr6+3 0.059970 0.626800 0.992920 1.077783
Cr6   Cr    Cr6+3 0.373320 0.938440 0.995370 1.029729
O26   O     O_3   0.161940 0.837600 0.984160 -0.310133
C43   C     C_3   0.974404 0.156281 0.297324 -0.265785
C44   C     C_3   0.912268 0.091464 0.377833 -0.409458
H17   H     H_    0.826784 0.979540 0.373159 0.165621
H18   H     H_    0.996397 0.091419 0.425784 0.188428
H19   H     H_    0.864300 0.154300 0.394925 0.118732
H20   H     H_    0.045817 0.273266 0.299247 0.184402
H21   H     H_    0.882576 0.142857 0.251587 0.130530
N1    N     N_R   0.000010 0.374582 0.818347 0.101666
O27   O     O_R   0.972585 0.297069 0.886888 -0.324222
O28   O     O_R   0.894724 0.380183 0.769414 -0.325173

loop_
_geom_bond_atom_site_label_1
_geom_bond_atom_site_label_2
_geom_bond_distance
_ccdc_geom_bond_type
C23   C28   1.392409 A    
C31   C35   1.501285 S    
C27   H11   1.112481 S    
C21   C40   1.457323 S    
O11   Cr3   2.051597 S    
O17   C38   1.296101 A    
O14   C39   1.268885 A    
O21   Cr4   1.926912 S    
O4    Cr2   1.927143 S    
O25   C42   1.268201 A    
C27   H10   1.106735 S    
O8    Cr1   1.927780 S    
C10   C11   1.398623 A    
C18   C39   1.410421 S    
C15   C16   1.200939 T    
C17   C18   1.192482 T    
N1    O27   1.300504 A    
C5    O11   1.258464 A    
C20   C41   1.414110 S    
C31   C36   1.392356 A    
C29   C30   1.399137 A    
C21   C25   1.405596 A    
C43   H20   1.112528 S    
C34   H14   1.109071 S    
C41   O24   1.294320 A    
C1    C17   1.409056 S    
O6    C3    1.287303 A    
C3    C15   1.426112 S    
C7    C8    1.401273 A    
O15   C37   1.282965 A    
C7    C11   1.403609 A    
O14   Cr4   2.046218 S    
O19   Cr6   1.933572 S    
C26   H9    1.111636 S    
O20   C42   1.255782 A    
C11   H2    1.082940 S    
C32   C33   1.393235 A    
Cr3   O13   1.968715 S    
O15   Cr4   1.928185 S    
O16   Cr5   2.050280 S    
O6    Cr3   1.933234 S    
C9    C13   1.495969 S    
O1    Cr1   2.047094 S    
C38   O18   1.300496 A    
O10   Cr2   1.932576 S    
Cr1   O13   1.972567 S    
O1    C3    1.304870 A    
C8    C9    1.383748 A    
C43   C44   1.527683 S    
C4    C36   1.432664 S    
O25   Cr6   1.925977 S    
O5    Cr3   2.043795 S    
C25   H7    1.082644 S    
C44   H19   1.109812 S    
C43   H21   1.111681 S    
C29   C33   1.405410 A    
C22   C23   1.370391 A    
O17   Cr5   1.925752 S    
C34   H15   1.112278 S    
C29   C42   1.435254 S    
C26   C27   1.506729 S    
C24   C28   1.413078 A    
O7    Cr1   2.043615 S    
C35   C43   1.546254 S    
C44   H18   1.108648 S    
O12   C6    1.300700 A    
C32   H12   1.080401 S    
O19   C39   1.256848 A    
C2    O5    1.260528 A    
C19   C20   1.193173 T    
C2    C14   1.457429 S    
Cr2   O13   1.967164 S    
C33   H13   1.083282 S    
C10   C14   1.410465 A    
N1    O28   1.302142 A    
C16   C37   1.422359 S    
C21   C22   1.403093 A    
C7    C38   1.456219 S    
C1    O3    1.248780 A    
O20   Cr4   2.045036 S    
C12   N1    1.463511 S    
C9    C14   1.397260 A    
C12   C13   1.519490 S    
O9    Cr2   2.043870 S    
O2    Cr1   1.926983 S    
C8    C12   1.498597 S    
Cr5   O26   1.968794 S    
C40   O22   1.255100 A    
C12   H3    1.113562 S    
O8    C4    1.270265 A    
C30   C34   1.502008 S    
C26   H8    1.111802 S    
C13   H5    1.111697 S    
C32   C36   1.403143 A    
C35   H16   1.114480 S    
O2    C1    1.272266 A    
C37   O16   1.247239 A    
C30   C31   1.363274 A    
O4    C2    1.271890 A    
C24   H6    1.082509 S    
O7    C6    1.298414 A    
O23   Cr5   1.932383 S    
C13   H4    1.110949 S    
C44   H17   1.109793 S    
C34   C35   1.513536 S    
O12   Cr3   1.924784 S    
C5    C19   1.412678 S    
O22   Cr5   2.042135 S    
O18   Cr6   2.044631 S    
O21   C40   1.280656 A    
O3    Cr2   2.050508 S    
C24   C25   1.406455 A    
C10   H1    1.083214 S    
C4    O9    1.257905 A    
O23   C41   1.299226 A    
O24   Cr6   2.051748 S    
Cr4   O26   1.972664 S    
O10   C5    1.266932 A    
Cr6   O26   1.967138 S    
C22   C26   1.501218 S    
C23   C27   1.497929 S    
C6    C28   1.454369 S    
