data_mof_unit_50779.cif
_audit_creation_date              2012-12-10T19:00:13-0500
_audit_creation_method            fapswitch 2.2
_symmetry_space_group_name_H-M    P1
_symmetry_Int_Tables_number       1
_space_group_crystal_system       triclinic
_cell_length_a                    9.54553
_cell_length_b                    10.8304
_cell_length_c                    13.448619
_cell_angle_alpha                 90.262775
_cell_angle_beta                  72.968984
_cell_angle_gamma                 89.630907
_cell_volume                      1329.31418587

loop_
_atom_site_label
_atom_site_type_symbol
_atom_type_description
_atom_site_fract_x
_atom_site_fract_y
_atom_site_fract_z
_atom_type_partial_charge
C1    C     C_R   0.500103 0.737566 0.498633 0.808767
C2    C     C_R   0.445183 0.437806 0.974952 0.075775
C3    C     C_R   0.490276 0.435682 0.864640 0.094791
C4    C     C_R   0.552822 0.457310 0.027709 0.077468
C5    C     C_R   0.702029 0.467363 0.969247 0.164576
C6    C     C_R   0.745398 0.439794 0.863662 -0.263617
C7    C     C_R   0.640990 0.417826 0.813188 -0.190922
C8    C     C_R   0.516908 0.472271 0.135884 -0.258297
C9    C     C_R   0.769872 0.519945 0.124124 -0.025107
C10   C     C_R   0.383081 0.450555 0.810425 -0.073457
C11   C     C_R   0.373173 0.937289 0.501263 0.072889
C12   C     C_R   0.423559 0.484307 0.698773 0.817874
C13   C     C_R   0.502521 0.870479 0.489860 -0.103113
C14   C     C_R   0.636029 0.934269 0.465707 -0.183685
C15   C     C_R   0.636322 0.063057 0.466346 -0.211232
C16   C     C_R   0.503249 0.129158 0.492321 -0.036273
C17   C     C_R   0.373412 0.064086 0.505667 0.084076
C18   C     C_3   0.226047 0.069959 0.586489 -0.238762
C19   C     C_3   0.225993 0.928777 0.580342 -0.274800
C20   C     C_R   0.961493 0.456765 0.415838 0.314012
C21   C     C_R   0.892952 0.554288 0.578387 -0.071495
C22   C     C_R   0.041645 0.553712 0.578673 -0.067290
C23   C     C_R   0.500698 0.262393 0.499078 0.844525
C24   C     C_R   0.108870 0.457265 0.415592 0.284815
C25   C     C_3   0.135156 0.330688 0.369710 -0.515342
C26   C     C_3   0.975778 0.329796 0.370747 -0.518238
C27   C     C_R   0.578375 0.502166 0.299822 0.793443
C28   C     C_R   0.807155 0.503346 0.016781 -0.246901
C29   C     C_R   0.624112 0.498916 0.185211 -0.097373
C30   C     C_R   0.234822 0.435232 0.865202 -0.171501
C31   C     C_R   0.192954 0.413958 0.971744 -0.136656
C32   C     C_R   0.294926 0.420950 0.027067 -0.158916
Cu1   Cu    Cu3+1 0.359330 0.500020 0.500010 0.956171
Cu2   Cu    Cu3+1 0.640670 0.499980 0.499990 0.957804
H1    H     H_    0.739890 0.109940 0.450440 0.154138
H2    H     H_    0.141929 0.116181 0.556994 0.122289
H3    H     H_    0.229062 0.879378 0.652082 0.145342
H4    H     H_    0.810886 0.597200 0.642455 0.154716
H5    H     H_    0.070385 0.595661 0.643088 0.135631
H6    H     H_    0.212757 0.330222 0.290037 0.190177
H7    H     H_    0.160592 0.262206 0.423146 0.213727
H8    H     H_    0.961380 0.328138 0.291670 0.203595
H9    H     H_    0.860482 0.435038 0.819852 0.137027
H10   H     H_    0.909964 0.261735 0.426012 0.206008
H11   H     H_    0.918050 0.520821 0.969280 0.131887
H12   H     H_    0.405368 0.464185 0.183553 0.156776
H13   H     H_    0.151163 0.438246 0.825519 0.139361
H14   H     H_    0.252906 0.409662 0.109977 0.127460
H15   H     H_    0.080013 0.395101 0.012914 0.140864
H16   H     H_    0.681661 0.384336 0.734315 0.189259
H17   H     H_    0.739533 0.885222 0.450035 0.189558
N1    N     N_R   0.852320 0.499070 0.499340 -0.198487
N2    N     N_R   0.148230 0.499110 0.499340 -0.193111
O1    O     O_R   0.381190 0.680360 0.500000 -0.572958
O2    O     O_R   0.618780 0.680320 0.499990 -0.571806
O3    O     O_R   0.323230 0.500000 0.650990 -0.588890
O4    O     O_R   0.560820 0.499960 0.650980 -0.602400
O5    O     O_R   0.381220 0.319680 0.500010 -0.585852
O6    O     O_R   0.618810 0.319640 0.500000 -0.597197
O7    O     O_R   0.439180 0.500040 0.349020 -0.583877
O8    O     O_R   0.676770 0.500000 0.349010 -0.574264
C33   C     C_1   0.882710 0.562205 0.167699 0.242534
N3    N     N_1   0.973597 0.596515 0.201939 -0.294781
C34   C     C_2   0.223696 0.115980 0.693237 0.383874
H18   H     H_    0.121302 0.114106 0.755411 0.067713
O9    O     O_2   0.333503 0.154624 0.711570 -0.551366
C35   C     C_1   0.115108 0.880937 0.534114 0.277031
N4    N     N_1   0.027885 0.843657 0.497610 -0.297986

loop_
_geom_bond_atom_site_label_1
_geom_bond_atom_site_label_2
_ccdc_geom_bond_type
C23   O5    A    
C2    C4    A    
C1    O1    A    
C19   C35   S    
C6    C7    A    
C27   C29   S    
C5    C28   A    
C11   C13   A    
C10   C30   A    
Cu2   N1    S    
C14   H17   S    
Cu1   O5    S    
C9    C29   A    
C30   C31   A    
C4    C8    A    
C18   C34   S    
C34   H18   S    
C33   N3    T    
Cu1   O3    S    
C2    C3    A    
C1    O2    A    
C26   H10   S    
Cu2   O2    S    
C20   N1    A    
C3    C10   A    
C31   C32   A    
C21   C22   A    
C24   C25   S    
C23   O6    A    
Cu1   O7    S    
C32   H14   S    
C11   C19   S    
C27   O7    A    
C12   O3    A    
C20   C26   S    
C31   H15   S    
Cu2   O4    S    
C8    C29   A    
C10   C12   S    
C2    C32   A    
C15   H1    S    
C35   N4    T    
Cu1   Cu2   S    
C22   N2    A    
C3    C7    A    
C6    H9    S    
C21   N1    A    
C25   H6    S    
Cu1   N2    S    
C5    C6    A    
C8    H12   S    
C28   H11   S    
C1    C13   S    
C12   O4    A    
C7    H16   S    
C9    C33   S    
C16   C17   A    
C20   C24   A    
C30   H13   S    
C16   C23   S    
C26   H8    S    
C17   C18   S    
C18   C19   S    
C25   H7    S    
Cu1   O1    S    
C14   C15   A    
C11   C17   A    
C19   H3    S    
C22   H5    S    
C25   C26   S    
C13   C14   A    
Cu2   O6    S    
C18   H2    S    
C9    C28   A    
Cu2   O8    S    
C21   H4    S    
C15   C16   A    
C24   N2    A    
C34   O9    D    
C4    C5    A    
C27   O8    A    
