data_mof_unit_13911.cif
_audit_creation_date              2012-12-10T17:19:24-0500
_audit_creation_method            fapswitch 2.2
_symmetry_space_group_name_H-M    P1
_symmetry_Int_Tables_number       1
_space_group_crystal_system       triclinic
_cell_length_a                    15.101688
_cell_length_b                    10.860252
_cell_length_c                    9.575675
_cell_angle_alpha                 90.75185
_cell_angle_beta                  89.902845
_cell_angle_gamma                 92.868097
_cell_volume                      1568.3854922

loop_
_atom_site_label
_atom_site_type_symbol
_atom_type_description
_atom_site_fract_x
_atom_site_fract_y
_atom_site_fract_z
_atom_type_partial_charge
C1    C     C_R   0.507575 0.263334 0.499860 0.832441
C2    C     C_R   0.907785 0.524493 0.616666 0.113756
C3    C     C_R   0.954108 0.417147 0.253191 -0.250462
C4    C     C_R   0.046463 0.423680 0.251717 -0.012018
C5    C     C_R   0.093540 0.460973 0.373348 0.051153
C6    C     C_R   0.046793 0.493384 0.495410 0.060892
C7    C     C_R   0.093342 0.528914 0.618786 0.116689
C8    C     C_R   0.046904 0.562216 0.739043 -0.186941
C9    C     C_R   0.954713 0.560735 0.737737 -0.190402
C10   C     C_R   0.186220 0.465833 0.376666 -0.221518
C11   C     C_R   0.232134 0.498990 0.499345 -0.079228
C12   C     C_R   0.328815 0.500016 0.500084 0.824633
C13   C     C_R   0.185700 0.530336 0.620184 -0.228264
C14   C     C_R   0.566261 0.126791 0.749962 -0.124567
C15   C     C_R   0.559512 0.070580 0.879642 -0.145166
C16   C     C_R   0.516329 0.955323 0.890614 -0.139802
C17   C     C_R   0.488286 0.891042 0.770332 -0.152489
C18   C     C_R   0.503658 0.941380 0.635752 0.115332
C19   C     C_R   0.529804 0.067489 0.628797 0.096428
C20   C     C_R   0.516893 0.129918 0.501695 -0.108456
C21   C     C_R   0.500557 0.062410 0.378327 -0.157972
C22   C     C_R   0.493074 0.935177 0.380760 -0.212472
C23   C     C_R   0.496002 0.737805 0.501976 0.797365
C24   C     C_R   0.493984 0.872766 0.507935 -0.105398
C25   C     C_R   0.618653 0.663693 0.146194 -0.152883
C26   C     C_R   0.676807 0.743597 0.075122 -0.327033
C27   C     C_R   0.677272 0.744525 0.930655 -0.003637
C28   C     C_R   0.618426 0.663883 0.857796 -0.154615
C29   C     C_R   0.558198 0.580743 0.926317 0.148666
C30   C     C_R   0.558201 0.580715 0.075872 0.194925
C31   C     C_R   0.445281 0.421818 0.072001 0.047282
C32   C     C_R   0.445345 0.422479 0.924078 -0.091623
C33   C     C_R   0.671052 0.494767 0.499342 0.837417
C34   C     C_R   0.815751 0.523589 0.615939 -0.235067
C35   C     C_R   0.767762 0.485354 0.496823 -0.098421
C36   C     C_R   0.812697 0.443036 0.376107 -0.045865
C37   C     C_R   0.906337 0.450458 0.373377 0.018268
C38   C     C_R   0.953535 0.489936 0.494772 0.057908
Cu1   Cu    Cu3+1 0.499990 0.499990 0.640660 0.931731
Cu2   Cu    Cu3+1 0.500010 0.500010 0.359340 0.970051
H1    H     H_    0.781332 0.554370 0.708555 0.168411
H2    H     H_    0.601349 0.215893 0.745766 0.162445
H3    H     H_    0.585319 0.118152 0.972140 0.151322
H4    H     H_    0.506144 0.914337 0.992232 0.139860
H5    H     H_    0.451566 0.804815 0.786655 0.164906
H6    H     H_    0.484634 0.885728 0.282291 0.165100
H7    H     H_    0.624407 0.671354 0.256328 0.212245
H8    H     H_    0.721691 0.805522 0.133980 0.161784
H9    H     H_    0.621811 0.670582 0.747812 0.235309
H10   H     H_    0.400933 0.359155 0.866394 0.153605
H11   H     H_    0.920395 0.386232 0.158503 0.138306
H12   H     H_    0.223188 0.441924 0.284194 0.177517
H13   H     H_    0.221412 0.556960 0.714906 0.158232
H14   H     H_    0.081919 0.589772 0.834006 0.153823
H15   H     H_    0.920021 0.587406 0.831731 0.143126
H16   H     H_    0.493060 0.107864 0.279311 0.174669
N1    N     N_R   0.500860 0.501210 0.147910 -0.217262
N2    N     N_R   0.500890 0.501290 0.852040 -0.207249
O1    O     O_R   0.499990 0.319640 0.618810 -0.600014
O2    O     O_R   0.500000 0.319660 0.381240 -0.554983
O3    O     O_R   0.370250 0.499960 0.618800 -0.585288
O4    O     O_R   0.370260 0.499980 0.381230 -0.582598
O5    O     O_R   0.500000 0.680340 0.618760 -0.615614
O6    O     O_R   0.500010 0.680360 0.381190 -0.606083
O7    O     O_R   0.629740 0.500020 0.618770 -0.614776
O8    O     O_R   0.629750 0.500040 0.381200 -0.583425
C39   C     C_1   0.386167 0.334267 0.141051 0.288541
N3    N     N_1   0.338545 0.263197 0.195625 -0.302267
C40   C     C_2   0.739236 0.831569 0.857007 0.362049
H17   H     H_    0.784147 0.893225 0.916470 0.080397
O9    O     O_2   0.740875 0.835928 0.729630 -0.554249
C41   C     C_2   0.762860 0.385831 0.255954 0.396109
H18   H     H_    0.774603 0.419046 0.150848 0.048598
O10   O     O_2   0.709336 0.299428 0.273980 -0.539457
C42   C     C_1   0.090869 0.390504 0.123567 0.223787
N4    N     N_1   0.126358 0.364051 0.021049 -0.287514

loop_
_geom_bond_atom_site_label_1
_geom_bond_atom_site_label_2
_ccdc_geom_bond_type
Cu2   O2    S    
C19   C20   A    
C32   N2    A    
C10   H12   S    
C33   O7    A    
C7    C8    A    
C31   C39   S    
C26   C27   A    
C29   C30   A    
C18   C24   A    
C36   C37   A    
C17   H5    S    
C34   C35   A    
C1    O1    A    
C5    C6    A    
C15   C16   A    
C30   N1    A    
Cu2   O4    S    
C18   C19   A    
C40   O9    D    
C4    C42   S    
C35   C36   A    
C8    C9    A    
C23   C24   S    
C6    C38   A    
C9    H15   S    
C25   H7    S    
C27   C40   S    
C26   H8    S    
C14   H2    S    
C2    C34   A    
C23   O5    A    
Cu2   O8    S    
C21   C22   A    
Cu1   O7    S    
C34   H1    S    
C33   O8    A    
C13   H13   S    
Cu1   O3    S    
C39   N3    T    
C41   O10   D    
C1    O2    A    
C8    H14   S    
Cu1   Cu2   S    
C3    H11   S    
C41   H18   S    
C25   C26   A    
Cu1   N2    S    
C42   N4    T    
C37   C38   A    
C12   O4    A    
C28   H9    S    
C2    C38   A    
C31   C32   A    
Cu1   O1    S    
C17   C18   A    
C29   N2    A    
C32   H10   S    
C23   O6    A    
C22   H6    S    
C22   C24   A    
C3    C4    A    
C25   C30   A    
C16   H4    S    
C28   C29   A    
C1    C20   S    
Cu2   N1    S    
C14   C19   A    
C4    C5    A    
C21   H16   S    
C11   C12   S    
C6    C7    A    
Cu1   O5    S    
Cu2   O6    S    
C31   N1    A    
C15   H3    S    
C5    C10   A    
C12   O3    A    
C11   C13   A    
C16   C17   A    
C33   C35   S    
C40   H17   S    
C10   C11   A    
C7    C13   A    
C20   C21   A    
C3    C37   A    
C27   C28   A    
C14   C15   A    
C2    C9    A    
C36   C41   S    
