data_mof_unit_18285.cif
_audit_creation_date              2013-03-05T15:58:06-0500
_audit_creation_method            fapswitch 2.2
_symmetry_space_group_name_H-M    P1
_symmetry_Int_Tables_number       1
_space_group_crystal_system       triclinic
_cell_length_a                    14.943961
_cell_length_b                    14.871549
_cell_length_c                    15.138815
_cell_angle_alpha                 110.282412
_cell_angle_beta                  108.676272
_cell_angle_gamma                 108.900472
_cell_volume                      2607.07307116

loop_
_atom_site_label
_atom_site_type_symbol
_atom_site_description
_atom_site_fract_x
_atom_site_fract_y
_atom_site_fract_z
_atom_type_partial_charge
C1    C     C_R   0.910386 0.196170 0.996946 -0.129235
H1    H     H_    0.851425 0.168978 0.021563 0.122230
N1    N     N_R   0.947080 0.293830 0.002870 -0.043780
C2    C     C_R   0.296901 0.802888 0.205399 -0.162965
H2    H     H_    0.350515 0.829884 0.174971 0.099452
N2    N     N_R   0.208950 0.706170 0.152110 -0.036841
C3    C     C_R   0.222745 0.407202 0.973559 -0.149767
H3    H     H_    0.202172 0.321831 0.936753 0.106087
N3    N     N_R   0.153670 0.443180 0.946090 -0.043831
C4    C     C_R   0.058609 0.589539 0.313042 -0.125906
H4    H     H_    0.102849 0.673476 0.378814 0.136280
N4    N     N_R   0.002360 0.556820 0.208890 -0.050091
C5    C     C_R   0.313216 0.591504 0.065110 -0.132027
H5    H     H_    0.375617 0.676495 0.112177 0.087980
N5    N     N_R   0.210070 0.556820 0.002870 -0.040516
C6    C     C_R   0.978273 0.406193 0.216656 -0.131496
H6    H     H_    0.953530 0.321280 0.192359 0.111230
N6    N     N_R   0.945960 0.443180 0.152110 -0.046796
C7    C     C_R   0.208876 0.803965 0.299638 -0.109864
H7    H     H_    0.182672 0.831831 0.357664 0.110998
N7    N     N_R   0.151710 0.706170 0.208890 -0.044257
C8    C     C_R   0.001030 0.196836 0.905876 -0.139751
H8    H     H_    0.021696 0.169036 0.843234 0.107306
N8    N     N_R   0.004320 0.293830 0.946090 -0.043442
C9    C     C_R   0.943355 0.132968 0.936786 0.100665
C10   C     C_R   0.299502 0.865062 0.297984 0.065932
C11   C     C_R   0.324305 0.499076 0.048959 0.041502
C12   C     C_R   0.041331 0.494505 0.319015 0.095117
C13   C     C_R   0.702051 0.409360 0.007128 0.022606
H9    H     H_    0.648472 0.325145 0.979038 0.159242
N9    N     N_R   0.789930 0.443180 0.997130 -0.058109
C14   C     C_R   0.083607 0.591643 0.786694 -0.080439
H10   H     H_    0.133630 0.676455 0.812436 0.114639
N10   N     N_R   0.054040 0.556820 0.847890 -0.054103
C15   C     C_R   0.780202 0.252231 0.688413 -0.137554
H11   H     H_    0.802566 0.245672 0.626386 0.173539
N11   N     N_R   0.848290 0.293830 0.791110 -0.066468
C16   C     C_R   0.926991 0.741540 0.022374 -0.137255
H12   H     H_    0.867219 0.739372 0.047040 0.133617
N12   N     N_R   0.995680 0.706170 0.053910 -0.047053
C17   C     C_R   0.024145 0.750193 0.937124 -0.081283
H13   H     H_    0.061395 0.767281 0.890611 0.171298
N13   N     N_R   0.052920 0.706170 0.997130 -0.058596
C18   C     C_R   0.685638 0.236232 0.776780 0.341904
N14   N     N_R   0.791050 0.293830 0.847890 -0.086432
C19   C     C_R   0.791308 0.591237 0.098008 -0.169699
H14   H     H_    0.820692 0.676118 0.154188 0.114734
N15   N     N_R   0.846330 0.556820 0.053910 -0.042071
C20   C     C_R   0.000695 0.408465 0.699892 -0.051150
H15   H     H_    0.978740 0.324595 0.647864 0.127265
N16   N     N_R   0.997640 0.443180 0.791110 -0.056088
Ni1   Ni    Ni4+2 0.869690 0.369690 0.000000 0.260694
Ni2   Ni    Ni4+2 0.130310 0.630310 0.000000 0.211086
Ni3   Ni    Ni4+2 0.000970 0.369690 0.869780 0.210080
Ni4   Ni    Ni4+2 0.999030 0.630310 0.130220 0.216100
C21   C     C_R   0.700990 0.500149 0.071026 -0.034682
C22   C     C_R   0.050463 0.499418 0.693180 0.118063
C23   C     C_R   0.677153 0.210953 0.675731 -0.115196
C24   C     C_R   0.941716 0.770392 0.948435 0.103122
H16   H     H_    0.603401 0.082450 0.034273 0.139788
C25   C     C_R   0.690415 0.253209 0.155858 -0.113092
H17   H     H_    0.630851 0.270556 0.114135 0.110239
C26   C     C_R   0.783387 0.337148 0.253499 -0.122581
H18   H     H_    0.795651 0.420117 0.286757 0.118874
C27   C     C_R   0.861865 0.314169 0.305939 0.234754
C28   C     C_R   0.843598 0.205577 0.262022 -0.123948
H19   H     H_    0.902774 0.186299 0.302057 0.103756
C29   C     C_R   0.750496 0.122311 0.164216 -0.192089
H20   H     H_    0.737553 0.039392 0.128965 0.153689
C30   C     C_R   0.674525 0.146379 0.110800 -0.046387
C31   C     C_R   0.968918 0.409385 0.500471 0.684125
C32   C     C_R   0.059387 0.493948 0.600002 -0.162789
C33   C     C_R   0.148902 0.573169 0.606505 0.047170
C34   C     C_R   0.143561 0.566733 0.511143 -0.143812
H21   H     H_    0.209984 0.627750 0.513729 0.158420
C35   C     C_R   0.051357 0.484900 0.412501 -0.044078
C36   C     C_R   0.963956 0.403182 0.406574 -0.194034
C37   C     C_R   0.276212 0.775565 0.735172 0.775804
C38   C     C_R   0.360291 0.862584 0.837196 -0.231004
H22   H     H_    0.383031 0.946645 0.856497 0.202429
C39   C     C_R   0.412714 0.841210 0.915519 -0.220661
H23   H     H_    0.475352 0.908215 0.995548 0.142083
C40   C     C_R   0.382923 0.733013 0.891312 -0.098540
H24   H     H_    0.420809 0.717002 0.953181 0.110888
C41   C     C_R   0.301673 0.645584 0.788594 -0.235223
H25   H     H_    0.279099 0.562120 0.771747 0.148852
C42   C     C_R   0.245227 0.665847 0.710392 -0.076430
H26   H     H_    0.079111 0.161906 0.365638 0.093618
C43   C     C_R   0.180060 0.112258 0.309808 -0.111969
H27   H     H_    0.152302 0.121412 0.239658 0.101737
C44   C     C_R   0.258604 0.079526 0.330193 -0.126072
H28   H     H_    0.291639 0.064602 0.275823 0.111115
C45   C     C_R   0.298506 0.072129 0.423482 0.091359
C46   C     C_R   0.256272 0.094408 0.494216 -0.117993
H29   H     H_    0.286884 0.090055 0.567052 0.176563
C47   C     C_R   0.175964 0.124867 0.472290 -0.113079
H30   H     H_    0.143936 0.142504 0.527186 0.110559
C48   C     C_R   0.139082 0.135372 0.380996 -0.102657
C49   C     C_R   0.489217 0.138641 0.547509 -0.118295
H31   H     H_    0.491172 0.211333 0.600570 0.165958
C50   C     C_R   0.582794 0.128911 0.573276 0.101220
C51   C     C_R   0.585035 0.040535 0.500739 0.028501
C52   C     C_R   0.490842 0.958600 0.408545 -0.241816
H32   H     H_    0.491630 0.887462 0.356209 0.132707
C53   C     C_R   0.395074 0.963407 0.386594 0.067305
C54   C     C_R   0.393630 0.055442 0.453494 -0.004308
C55   C     C_R   0.733884 0.045505 0.458476 -0.147737
H33   H     H_    0.701349 0.065471 0.397465 0.146119
C56   C     C_R   0.830209 0.041567 0.480126 -0.110621
H34   H     H_    0.871683 0.058454 0.436225 0.108844
C57   C     C_R   0.873657 0.017297 0.559494 -0.120298
H35   H     H_    0.948425 0.014625 0.576053 0.104368
C58   C     C_R   0.820645 0.996979 0.617319 -0.115817
H36   H     H_    0.853221 0.977655 0.678242 0.121009
C59   C     C_R   0.725486 0.002800 0.597495 -0.114883
H37   H     H_    0.686353 0.989106 0.644295 0.133748
C60   C     C_R   0.682356 0.028292 0.518718 0.091695
C61   C     C_3   0.537779 0.496966 0.968206 0.695164
H38   H     H_    0.587654 0.569822 0.966613 0.012742
C62   C     C_3   0.434948 0.498115 0.963082 -0.522681
H39   H     H_    0.435355 0.571202 0.959038 0.110656
H40   H     H_    0.363219 0.424784 0.887351 0.208633
H41   H     H_    0.511034 0.319354 0.006767 0.231945
H42   H     H_    0.358487 0.321392 0.989467 0.180708
C63   C     C_3   0.532227 0.397509 0.074603 -0.377263
C64   C     C_3   0.630858 0.602445 0.173244 -0.511654
C65   C     C_3   0.602981 0.499147 0.072741 0.200306
H43   H     H_    0.677123 0.603871 0.248243 0.200475
H44   H     H_    0.682255 0.678456 0.178007 0.172165
C66   C     C_3   0.426226 0.499307 0.062629 0.302812
C67   C     C_3   0.426267 0.396250 0.065395 -0.388091
C68   C     C_3   0.526385 0.602725 0.167467 -0.402624
H45   H     H_    0.531416 0.679733 0.169949 0.149342
H46   H     H_    0.520813 0.603854 0.239358 0.181087
H47   H     H_    0.577097 0.401129 0.151318 0.151133
H48   H     H_    0.415780 0.392352 0.133743 0.160026
C69   C     C_R   0.148896 0.011034 0.741389 -0.237829
H49   H     H_    0.147866 0.983525 0.664655 0.169123
C70   C     C_R   0.051786 0.973540 0.744396 -0.179924
H50   H     H_    0.976881 0.913641 0.669722 0.165688
C71   C     C_R   0.052144 0.009545 0.843573 0.176048
C72   C     C_R   0.151657 0.079439 0.939679 -0.239966
H51   H     H_    0.154122 0.103718 0.017042 0.147412
C73   C     C_R   0.248750 0.113152 0.936429 -0.369991
H52   H     H_    0.325102 0.163737 0.010905 0.158557
C74   C     C_R   0.247436 0.080598 0.837414 0.845148
C75   C     C_R   0.921999 0.850753 0.831040 0.702380
C76   C     C_R   0.890484 0.824091 0.900393 -0.124695
C77   C     C_R   0.836217 0.875465 0.941470 -0.041294
C78   C     C_R   0.834203 0.961734 0.926345 -0.227100
H53   H     H_    0.790339 0.997928 0.955668 0.149995
C79   C     C_R   0.908328 0.015575 0.899852 -0.023220
C80   C     C_R   0.952983 0.957322 0.849313 -0.182391
C81   C     C_R   0.698123 0.797346 0.992042 -0.143808
H54   H     H_    0.637431 0.743814 0.907699 0.133132
C82   C     C_R   0.668852 0.799801 0.071539 -0.157497
H55   H     H_    0.586879 0.747269 0.049182 0.102873
C83   C     C_R   0.745638 0.870014 0.180679 -0.131231
H56   H     H_    0.722274 0.871634 0.241657 0.119287
C84   C     C_R   0.852449 0.937760 0.210991 -0.127441
H57   H     H_    0.912000 0.991681 0.295346 0.110803
C85   C     C_R   0.881740 0.937355 0.132174 -0.175085
H58   H     H_    0.963608 0.992663 0.155934 0.123100
C86   C     C_R   0.805295 0.865969 0.022296 0.141770
N17   N     N_R   0.605274 0.177487 0.797366 0.227383
O1    O     O_R   0.505012 0.153250 0.746043 -0.340073
O2    O     O_R   0.632294 0.145413 0.866709 -0.449534
F1    F     F_    0.879058 0.338119 0.494112 -0.726438
F2    F     F_    0.221960 0.798411 0.662720 -0.704625
F3    F     F_    0.510289 0.403926 0.877187 -0.679222
F4    F     F_    0.341768 0.114507 0.834530 -0.674382
F5    F     F_    0.947057 0.785903 0.766204 -0.714936

loop_
_geom_bond_atom_site_label_1
_geom_bond_atom_site_label_2
_geom_bond_distance
_ccdc_geom_bond_type
C37   C42   1.411535 A    
C6    C12   1.366079 A    
N15   Ni4   1.885979 S    
C28   C29   1.398154 A    
C26   C27   1.404942 A    
C45   C46   1.406108 A    
C55   C56   1.395955 A    
C17   H13   1.074127 S    
C57   H35   1.081256 S    
N9    Ni1   1.860305 S    
C39   H23   1.081390 S    
N6    Ni1   1.887724 S    
C3    H3    1.078814 S    
C29   C30   1.395317 A    
C25   C30   1.395091 A    
C41   H25   1.083365 S    
C62   H39   1.107813 S    
C69   C70   1.398086 A    
N10   N16   1.382546 A    
N17   O1    1.299590 A    
C34   C35   1.394827 A    
C15   C23   1.379021 A    
C62   C66   1.548282 S    
N5    Ni2   1.860304 S    
C8    N8    1.334088 A    
C81   C86   1.401271 A    
C82   H55   1.075475 S    
C15   N11   1.321893 A    
C58   H36   1.075670 S    
C23   C50   1.433675 S    
C56   C57   1.395849 A    
C16   H12   1.068479 S    
H41   C63   1.109751 S    
C61   F3    1.389001 S    
N8    Ni3   1.874285 S    
C59   H37   1.083362 S    
C3    C11   1.392479 A    
C1    H1    1.078296 S    
C33   C34   1.387501 A    
C21   C65   1.468530 S    
C25   C26   1.398367 A    
C7    C10   1.378632 A    
C61   H38   1.111983 S    
C33   C42   1.485647 S    
C75   C76   1.402041 A    
C7    N7    1.338117 A    
C77   C78   1.386939 A    
C83   C84   1.393530 A    
N12   N13   1.393369 A    
C7    H7    1.081576 S    
C18   C23   1.394177 A    
C29   H20   1.079802 S    
C59   C60   1.400319 A    
C8    C9    1.378418 A    
C47   C48   1.398553 A    
C55   H33   1.083393 S    
C64   C68   1.536928 S    
C43   C44   1.397206 A    
C81   C82   1.399325 A    
C24   C76   1.481546 S    
C63   H47   1.111690 S    
N13   Ni2   1.859897 S    
C28   H19   1.083062 S    
N17   O2    1.301161 A    
C74   F4    1.355574 S    
C1    C9    1.396256 A    
C17   N13   1.335405 A    
N1    N8    1.393370 A    
C25   H17   1.076792 S    
C14   C22   1.376696 A    
C10   C53   1.427541 S    
C39   C40   1.394330 A    
C62   H40   1.114230 S    
C85   C86   1.404290 A    
C41   C42   1.405824 A    
C19   N15   1.330801 A    
C27   C36   1.485196 S    
C34   H21   1.084990 S    
C50   C51   1.409183 A    
C69   C74   1.396929 A    
C76   C77   1.422340 A    
C17   C24   1.405720 A    
C2    N2    1.318652 A    
C67   H48   1.112697 S    
C56   H34   1.080556 S    
C44   H28   1.083993 S    
N7    Ni4   1.886166 S    
C37   C38   1.398915 A    
C73   H52   1.082127 S    
C64   H44   1.103847 S    
C20   N16   1.317932 A    
N2    N7    1.393370 A    
C37   F2    1.357614 S    
C16   C24   1.383853 A    
H42   C67   1.105993 S    
C1    N1    1.334281 A    
C15   H11   1.077763 S    
C14   N10   1.329759 A    
C66   C68   1.555506 S    
C13   H9    1.074014 S    
C45   C54   1.477093 S    
C44   C45   1.404671 A    
C63   C67   1.537772 S    
C40   H24   1.075567 S    
H16   C30   1.081138 S    
N1    Ni1   1.859898 S    
N12   Ni4   1.874288 S    
C47   H30   1.083271 S    
C46   H29   1.083928 S    
C57   C58   1.399160 A    
C77   C86   1.473219 S    
C35   C36   1.418421 A    
C46   C47   1.398916 A    
C81   H54   1.082841 S    
C51   C60   1.474718 S    
C4    N4    1.335564 A    
N11   Ni3   1.886165 S    
C73   C74   1.397699 A    
C49   C50   1.396254 A    
C20   H15   1.082596 S    
N9    N15   1.382545 A    
C9    C79   1.475902 S    
C83   H56   1.082186 S    
C52   C53   1.393522 A    
C78   C79   1.400564 A    
C38   H22   1.082398 S    
C61   C65   1.552826 S    
N2    Ni2   1.887687 S    
N4    N6    1.382543 A    
C12   C35   1.436668 S    
C31   C36   1.368129 A    
C75   F5    1.358982 S    
C38   C39   1.395859 A    
C85   H58   1.078807 S    
C53   C54   1.404154 A    
C4    C12   1.392631 A    
C3    N3    1.327361 A    
C49   C54   1.388925 A    
C19   H14   1.080284 S    
C64   H43   1.112950 S    
C40   C41   1.396134 A    
C78   H53   1.079703 S    
C6    N6    1.316461 A    
C18   N14   1.332126 A    
C32   C33   1.414702 A    
C20   C22   1.372948 A    
C2    C10   1.365406 A    
C70   H50   1.081619 S    
C13   C21   1.370093 A    
C69   H49   1.082609 S    
N14   Ni1   1.887689 S    
C49   H31   1.084999 S    
C43   C48   1.398870 A    
C31   F1    1.363909 S    
N16   Ni3   1.874841 S    
C14   H10   1.078575 S    
C5    N5    1.321974 A    
C66   C67   1.547813 S    
N3    N5    1.382543 A    
C31   C32   1.399948 A    
C13   N9    1.323890 A    
C71   C72   1.404699 A    
C84   H57   1.079668 S    
C16   N12   1.329790 A    
C70   C71   1.405939 A    
C71   C80   1.479969 S    
C6    H6    1.074725 S    
C64   C65   1.551586 S    
C82   C83   1.396565 A    
C68   H45   1.109586 S    
C72   C73   1.396627 A    
C18   N17   1.432267 S    
C22   C32   1.436025 S    
C51   C52   1.365896 A    
C75   C80   1.393283 A    
C61   C62   1.519658 S    
N4    Ni4   1.874839 S    
C4    H4    1.081090 S    
C26   H18   1.083165 S    
C2    H2    1.082361 S    
C79   C80   1.422380 A    
N10   Ni2   1.887726 S    
C68   H46   1.112646 S    
C27   C28   1.406525 A    
C19   C21   1.379263 A    
C52   H32   1.086289 S    
C63   C65   1.554564 S    
C11   C66   1.468660 S    
C8    H8    1.078926 S    
C5    C11   1.384611 A    
C72   H51   1.083505 S    
N3    Ni3   1.885981 S    
C43   H27   1.083093 S    
C5    H5    1.077646 S    
N11   N14   1.393370 A    
C55   C60   1.405030 A    
H26   C48   1.082684 S    
C84   C85   1.395203 A    
C58   C59   1.394357 A    
