data_mof_unit_25983.cif
_audit_creation_date              2012-12-10T16:37:24-0500
_audit_creation_method            fapswitch 2.2
_symmetry_space_group_name_H-M    P1
_symmetry_Int_Tables_number       1
_space_group_crystal_system       triclinic
_cell_length_a                    16.797203
_cell_length_b                    16.912304
_cell_length_c                    16.809278
_cell_angle_alpha                 65.810735
_cell_angle_beta                  65.776827
_cell_angle_gamma                 65.65159
_cell_volume                      3797.41663822

loop_
_atom_site_label
_atom_site_type_symbol
_atom_type_description
_atom_site_fract_x
_atom_site_fract_y
_atom_site_fract_z
_atom_type_partial_charge
C1    C     C_R   0.391613 0.090225 0.649196 -0.276838
C2    C     C_R   0.463352 0.700860 0.913778 -0.288927
C3    C     C_R   0.034871 0.560862 0.316812 -0.296679
C4    C     C_R   0.050007 0.399702 0.667779 -0.300209
C5    C     C_R   0.962051 0.179153 0.438269 0.944865
C6    C     C_R   0.021240 0.823171 0.568883 0.935190
C7    C     C_R   0.179569 0.438385 0.960881 0.934592
C8    C     C_R   0.820401 0.562374 0.036675 0.924097
C9    C     C_R   0.437766 0.963346 0.179679 0.927300
C10   C     C_R   0.561290 0.039599 0.820367 0.946821
C11   C     C_R   0.571048 0.825644 0.014877 0.954597
C12   C     C_R   0.591527 0.967548 0.337720 -0.298802
C13   C     C_R   0.437624 0.179261 0.962695 0.919470
C14   C     C_R   0.038857 0.561336 0.820944 0.929393
C15   C     C_R   0.979864 0.430832 0.176356 0.936975
C16   C     C_R   0.820632 0.038192 0.561978 0.926448
C17   C     C_R   0.174205 0.985343 0.428932 0.956418
C18   C     C_R   0.438681 0.094807 0.698523 0.659484
C19   C     C_R   0.549808 0.941919 0.299170 0.638685
C20   C     C_R   0.969529 0.726911 0.486508 0.633666
C21   C     C_R   0.935124 0.293132 0.555529 0.676442
C22   C     C_R   0.699639 0.451198 0.061672 0.646161
C23   C     C_R   0.977429 0.678366 0.432658 -0.299913
C24   C     C_R   0.301668 0.559351 0.905615 0.650624
C25   C     C_R   0.254876 0.074516 0.487875 0.617662
C26   C     C_R   0.706492 0.077706 0.441299 0.668606
C27   C     C_R   0.558092 0.292215 0.927578 0.649814
C28   C     C_R   0.509932 0.743332 0.928046 0.620244
C29   C     C_R   0.040506 0.507248 0.269319 0.637663
C30   C     C_R   0.074302 0.443889 0.704887 0.647669
C31   C     C_R   0.532255 0.058227 0.529990 0.022909
C32   C     C_R   0.444973 0.023707 0.440446 0.024293
C33   C     C_R   0.016904 0.539155 0.549104 0.025836
C34   C     C_R   0.961283 0.329772 0.598749 -0.277128
C35   C     C_R   0.994228 0.446811 0.457859 0.024264
C36   C     C_R   0.558006 0.554314 0.979662 0.024168
C37   C     C_R   0.469016 0.466366 0.945299 0.024511
C38   C     C_R   0.580814 0.038802 0.445531 0.012368
C39   C     C_R   0.392509 0.059867 0.515469 0.019045
C40   C     C_R   0.018666 0.447336 0.590589 0.012113
C41   C     C_R   0.008632 0.532503 0.411894 0.015430
C42   C     C_R   0.483005 0.605942 0.943135 0.018283
C43   C     C_R   0.553104 0.418300 0.965816 0.016036
C44   C     C_R   0.539886 0.010987 0.406707 0.015211
C45   C     C_R   0.660792 0.409088 0.037006 -0.302585
C46   C     C_R   0.437599 0.068891 0.565729 0.013673
C47   C     C_R   0.433243 0.560675 0.933788 0.016052
C48   C     C_R   0.591772 0.459782 0.993230 0.013993
C49   C     C_R   0.992877 0.406240 0.550033 0.011187
C50   C     C_R   0.003545 0.583760 0.462438 0.014602
C51   C     C_R   0.534942 0.075544 0.667522 -0.020996
C52   C     C_R   0.453662 0.964879 0.323619 -0.028706
C53   C     C_R   0.007605 0.682527 0.560887 -0.038891
C54   C     C_R   0.953655 0.322868 0.459112 -0.014878
C55   C     C_R   0.675346 0.546727 0.037597 -0.032281
C56   C     C_R   0.350346 0.606218 0.911000 -0.281100
C57   C     C_R   0.332438 0.463658 0.925876 -0.022667
C58   C     C_R   0.306355 0.021660 0.426199 -0.039393
C59   C     C_R   0.670648 0.069426 0.535906 -0.035759
C60   C     C_R   0.463608 0.328105 0.934261 -0.039531
C61   C     C_R   0.572283 0.692887 0.980549 -0.039717
C62   C     C_R   0.000228 0.435074 0.315286 -0.038346
C63   C     C_R   0.054025 0.539915 0.674797 -0.040357
C64   C     C_R   0.589249 0.065785 0.720321 -0.090841
C65   C     C_R   0.406069 0.952708 0.277259 -0.077323
C66   C     C_R   0.025918 0.728032 0.604242 -0.110592
C67   C     C_R   0.297010 0.089106 0.534663 -0.287767
C68   C     C_R   0.947745 0.276335 0.407944 -0.080776
C69   C     C_R   0.722420 0.594261 0.048345 -0.078517
C70   C     C_R   0.279738 0.410011 0.935065 -0.092964
C71   C     C_R   0.266771 0.988310 0.390302 -0.091466
C72   C     C_R   0.721230 0.063673 0.589898 -0.094230
C73   C     C_R   0.409838 0.278165 0.938399 -0.095543
C74   C     C_R   0.609119 0.732975 0.012659 -0.098594
C75   C     C_R   0.978029 0.394036 0.270906 -0.108426
C76   C     C_R   0.056216 0.591479 0.722875 -0.076840
C77   C     C_R   0.678854 0.066022 0.678820 -0.261805
C78   C     C_R   0.666156 0.054679 0.399557 -0.273606
C79   C     C_R   0.317076 0.953601 0.317790 -0.310924
C80   C     C_R   0.052262 0.681246 0.682400 -0.284145
C81   C     C_R   0.950274 0.317255 0.318212 -0.277636
C82   C     C_R   0.682177 0.683043 0.046850 -0.295876
C83   C     C_R   0.321170 0.320837 0.935024 -0.256925
C84   C     C_R   0.579209 0.067693 0.577986 -0.079252
C85   C     C_R   0.401907 0.002489 0.397468 -0.082118
C86   C     C_R   0.027527 0.587047 0.594303 -0.076212
C87   C     C_R   0.981628 0.402021 0.410949 -0.073717
C88   C     C_R   0.601086 0.597767 0.000277 -0.082430
C89   C     C_R   0.599161 0.332815 0.951049 -0.300874
C90   C     C_R   0.421485 0.419378 0.935338 -0.080117
F1    F     F_    0.387508 0.127743 0.771143 -0.645095
F2    F     F_    0.499282 0.832611 0.882442 -0.660498
F3    F     F_    0.095038 0.520332 0.181940 -0.651619
F4    F     F_    0.123100 0.391334 0.765557 -0.643528
F5    F     F_    0.604736 0.888159 0.243713 -0.653406
F6    F     F_    0.913836 0.813410 0.471832 -0.651130
F7    F     F_    0.885236 0.234200 0.609727 -0.645720
F8    F     F_    0.755330 0.397358 0.115619 -0.642240
F9    F     F_    0.230008 0.610034 0.870840 -0.658385
F10   F     F_    0.164900 0.119637 0.497891 -0.667047
F11   F     F_    0.774074 0.117001 0.386097 -0.642102
F12   F     F_    0.614420 0.224903 0.888283 -0.639059
H1    H     H_    0.318794 0.102217 0.679009 0.178053
H2    H     H_    0.415727 0.743789 0.874508 0.178198
H3    H     H_    0.060212 0.619368 0.279294 0.180489
H4    H     H_    0.062493 0.326975 0.695503 0.182301
H5    H     H_    0.718879 0.059742 0.719062 0.212302
H6    H     H_    0.284596 0.934209 0.287413 0.192338
H7    H     H_    0.061998 0.717185 0.716798 0.206907
H8    H     H_    0.937698 0.284425 0.282786 0.214805
H9    H     H_    0.713203 0.715622 0.065230 0.203279
H10   H     H_    0.281024 0.281446 0.940491 0.214085
H11   H     H_    0.665357 0.948362 0.316365 0.185219
H12   H     H_    0.953119 0.714810 0.373013 0.183514
H13   H     H_    0.949470 0.302602 0.671818 0.178210
H14   H     H_    0.682106 0.335757 0.057076 0.182743
H15   H     H_    0.320504 0.678625 0.898198 0.175536
H16   H     H_    0.253501 0.128390 0.582037 0.176851
H17   H     H_    0.698824 0.056752 0.328555 0.178716
H18   H     H_    0.670095 0.300197 0.949718 0.181773
O1    O     O_R   0.982940 0.138950 0.510160 -0.535137
O2    O     O_R   0.982940 0.510160 0.138950 -0.577426
O3    O     O_R   0.861050 0.017060 0.489840 -0.542686
O4    O     O_R   0.138950 0.982940 0.510160 -0.580639
O5    O     O_R   0.867700 0.025880 0.612340 -0.628485
O6    O     O_R   0.132300 0.974120 0.387660 -0.651758
O7    O     O_R   0.025880 0.612340 0.867700 -0.615942
O8    O     O_R   0.974120 0.387660 0.132300 -0.618637
O9    O     O_R   0.612340 0.867700 0.025880 -0.625550
O10   O     O_R   0.387660 0.132300 0.974120 -0.614286
O11   O     O_R   0.387660 0.974120 0.132300 -0.643950
O12   O     O_R   0.017060 0.861050 0.489840 -0.569101
O13   O     O_R   0.612340 0.025880 0.867700 -0.628010
O14   O     O_R   0.132300 0.387660 0.974120 -0.625345
O15   O     O_R   0.867700 0.612340 0.025880 -0.639881
O16   O     O_R   0.974120 0.132300 0.387660 -0.625861
O17   O     O_R   0.025880 0.867700 0.612340 -0.642168
O18   O     O_R   0.138950 0.510160 0.982940 -0.536338
O19   O     O_R   0.861050 0.489840 0.017060 -0.576334
O20   O     O_R   0.510160 0.982940 0.138950 -0.575308
O21   O     O_R   0.489840 0.017060 0.861050 -0.528442
O22   O     O_R   0.489840 0.861050 0.017060 -0.587134
O23   O     O_R   0.510160 0.138950 0.982940 -0.579845
O24   O     O_R   0.017060 0.489840 0.861050 -0.587659
Zn1   Zn    Zn3+2 0.004880 0.004880 0.583590 1.092735
Zn2   Zn    Zn3+2 0.995120 0.995120 0.416410 1.095965
Zn3   Zn    Zn3+2 0.004880 0.583590 0.004880 1.095094
Zn4   Zn    Zn3+2 0.995120 0.416410 0.995120 1.090529
Zn5   Zn    Zn3+2 0.583590 0.004880 0.004880 1.092155
Zn6   Zn    Zn3+2 0.416410 0.995120 0.995120 1.090313

loop_
_geom_bond_atom_site_label_1
_geom_bond_atom_site_label_2
_ccdc_geom_bond_type
C5    O16   A    
C15   C75   S    
C22   F8    S    
C15   O2    A    
C24   F9    S    
C64   C77   A    
C36   C42   A    
C16   C72   S    
C10   O13   A    
O24   Zn4   S    
C7    C70   S    
C71   C79   A    
O6    Zn2   S    
C4    C30   A    
C3    H3    S    
O9    Zn5   S    
C1    C18   A    
C43   C89   A    
C37   C90   A    
C8    O19   A    
C65   C79   A    
C18   F1    S    
O17   Zn1   S    
C52   C85   A    
C16   O3    A    
C27   C60   A    
C26   F11   S    
C54   C87   A    
C9    O20   A    
C17   O6    A    
C54   C68   A    
C63   C76   A    
C40   C49   A    
C5    O1    A    
C60   C73   A    
O4    Zn1   S    
C56   H15   S    
C32   C39   A    
C55   C88   A    
C3    C29   A    
C69   C82   A    
C17   O4    A    
C35   C87   A    
C19   C52   A    
O10   Zn6   S    
C4    C40   A    
C24   C57   A    
C31   C46   A    
C25   C67   A    
C80   H7    S    
C35   C49   A    
O23   Zn5   S    
C13   O10   A    
C20   C23   A    
C36   C48   A    
C53   C86   A    
C57   C70   A    
C37   C47   A    
C43   C48   A    
C1    H1    S    
C59   C72   A    
C28   C61   A    
C20   F6    S    
C30   C63   A    
C8    O15   A    
C74   C82   A    
C5    C68   S    
C35   C41   A    
C11   O9    A    
C11   O22   A    
O21   Zn6   S    
C9    O11   A    
C32   C44   A    
C14   O24   A    
O19   Zn4   S    
C33   C40   A    
C57   C90   A    
C77   H5    S    
O13   Zn5   S    
C59   C84   A    
C7    O14   A    
C6    O12   A    
C89   H18   S    
O8    Zn4   S    
C23   C50   A    
C21   C34   A    
C38   C78   A    
C33   C50   A    
C4    H4    S    
C36   C88   A    
C14   O7    A    
C10   O21   A    
C14   C76   S    
C37   C43   A    
C33   C86   A    
C38   C44   A    
C72   C77   A    
C70   C83   A    
C61   C88   A    
C21   F7    S    
C25   F10   S    
O3    Zn2   S    
C2    H2    S    
O18   Zn3   S    
C8    C69   S    
C28   F2    S    
C26   C78   A    
O2    Zn3   S    
C53   C66   A    
C55   C69   A    
C39   C46   A    
C16   O5    A    
C13   C73   S    
C17   C71   S    
O15   Zn3   S    
C15   O8    A    
C63   C86   A    
C61   C74   A    
O1    Zn1   S    
C62   C75   A    
C25   C58   A    
C68   C81   A    
C58   C85   A    
C41   C50   A    
C19   F5    S    
C12   H11   S    
C26   C59   A    
C45   C48   A    
C29   C62   A    
C3    C41   A    
C34   C49   A    
C39   C67   A    
C75   C81   A    
C51   C64   A    
C76   C80   A    
C20   C53   A    
C11   C74   S    
C7    O18   A    
C22   C55   A    
C60   C90   A    
C18   C51   A    
C24   C56   A    
C66   C80   A    
C62   C87   A    
C27   F12   S    
C10   C64   S    
C31   C38   A    
O12   Zn2   S    
C82   H9    S    
O22   Zn6   S    
C6    O17   A    
C78   H17   S    
C34   H13   S    
O14   Zn4   S    
C30   F4    S    
O5    Zn1   S    
C23   H12   S    
C29   F3    S    
C45   H14   S    
C21   C54   A    
C2    C42   A    
C32   C85   A    
O20   Zn5   S    
C12   C19   A    
C79   H6    S    
C27   C89   A    
C42   C47   A    
C13   O23   A    
C1    C46   A    
C67   H16   S    
C9    C65   S    
C58   C71   A    
C31   C84   A    
C6    C66   S    
C22   C45   A    
C81   H8    S    
C12   C44   A    
C83   H10   S    
O11   Zn6   S    
C2    C28   A    
C51   C84   A    
C73   C83   A    
O16   Zn2   S    
C52   C65   A    
O7    Zn3   S    
C47   C56   A    
