data_mof_unit_35624.cif
_audit_creation_date              2012-12-11T14:56:31-0500
_audit_creation_method            fapswitch 2.2
_symmetry_space_group_name_H-M    P1
_symmetry_Int_Tables_number       1
_space_group_crystal_system       triclinic
_cell_length_a                    10.561336
_cell_length_b                    10.656692
_cell_length_c                    17.154817
_cell_angle_alpha                 80.38209
_cell_angle_beta                  89.624375
_cell_angle_gamma                 119.081355
_cell_volume                      1654.97648119

loop_
_atom_site_label
_atom_site_type_symbol
_atom_type_description
_atom_site_fract_x
_atom_site_fract_y
_atom_site_fract_z
_atom_type_partial_charge
C1    C     C_R   0.223297 0.854761 0.128931 0.546187
C2    C     C_R   0.797673 0.420234 0.261881 0.191661
C3    C     C_R   0.783204 0.407593 0.183357 -0.186205
C4    C     C_R   0.646292 0.339957 0.157206 -0.006804
C5    C     C_1   0.668648 0.848415 0.205456 -0.019425
C6    C     C_1   0.680604 0.839057 0.274744 -0.020428
C7    C     C_1   0.182312 0.827063 0.211477 -0.019201
C8    C     C_1   0.153050 0.820878 0.280029 0.015126
C9    C     C_1   0.645692 0.324912 0.778192 0.069633
C10   C     C_1   0.652979 0.347104 0.707707 0.032889
C11   C     C_R   0.623787 0.710003 0.804540 0.183720
C12   C     C_R   0.634991 0.279398 0.086475 0.579023
C13   C     C_R   0.607767 0.696713 0.726279 -0.087173
C14   C     C_R   0.670396 0.821333 0.665763 -0.053893
C15   C     C_R   0.757992 0.959330 0.683541 -0.115568
C16   C     C_R   0.772871 0.975086 0.762035 0.188018
C17   C     C_R   0.694725 0.850487 0.823504 0.035623
C18   C     C_R   0.265031 0.997629 0.749057 0.193410
C19   C     C_R   0.232374 0.973388 0.673511 -0.130069
C20   C     C_R   0.186708 0.835435 0.654339 -0.017277
C21   C     C_R   0.200897 0.728908 0.708226 0.209904
C22   C     C_R   0.242554 0.756259 0.783295 -0.126646
C23   C     C_R   0.640116 0.858361 0.125466 0.553135
C24   C     C_R   0.264998 0.886090 0.806171 -0.028381
C25   C     C_R   0.686874 0.809752 0.357102 0.547476
C26   C     C_R   0.690495 0.396995 0.394366 0.554193
C27   C     C_R   0.104639 0.810618 0.359342 0.560658
C28   C     C_R   0.677925 0.799506 0.585799 0.544888
C29   C     C_R   0.679273 0.383178 0.624661 0.539581
C30   C     C_R   0.104134 0.804476 0.584832 0.560784
C31   C     C_R   0.289550 0.904501 0.888433 0.561114
C32   C     C_R   0.637559 0.284518 0.860907 0.596916
C33   C     C_R   0.648045 0.866690 0.899405 0.574881
C34   C     C_R   0.519753 0.300063 0.207011 0.272619
C35   C     C_R   0.531404 0.306449 0.287729 0.174345
C36   C     C_R   0.670817 0.366188 0.314999 0.020328
Cr1   Cr    Cr6+3 0.402240 0.783890 0.019450 1.078847
Cr2   Cr    Cr6+3 0.382360 0.097900 0.991800 1.168430
Cr3   Cr    Cr6+3 0.715380 0.118170 0.988700 1.107776
Cr4   Cr    Cr6+3 0.936650 0.882420 0.465510 1.066802
Cr5   Cr    Cr6+3 0.605770 0.565620 0.493360 1.087123
Cr6   Cr    Cr6+3 0.921340 0.550490 0.496380 1.128588
H1    H     H_    0.230256 0.060549 0.631745 0.190673
H2    H     H_    0.249887 0.672192 0.824947 0.202889
H3    H     H_    0.879377 0.442781 0.143409 0.146272
H4    H     H_    0.551299 0.587774 0.712782 0.205234
H5    H     H_    0.816770 0.054288 0.636262 0.177389
O1    O     O_R   0.521780 0.757110 0.108900 -0.489611
O2    O     O_R   0.513330 0.228330 0.898660 -0.451995
O3    O     O_R   0.739230 0.266130 0.888050 -0.464757
O4    O     O_R   0.712580 0.991850 0.918770 -0.458474
O5    O     O_3   0.499990 0.999980 0.999980 -0.331275
O6    O     O_R   0.083770 0.911170 0.376030 -0.491899
O7    O     O_R   0.808770 0.880340 0.383890 -0.494244
O8    O     O_R   0.584340 0.689460 0.394160 -0.491366
O9    O     O_R   0.614320 0.443940 0.423590 -0.498658
O10   O     O_R   0.805020 0.410040 0.421340 -0.450413
O11   O     O_R   0.049240 0.685450 0.403290 -0.466625
O12   O     O_R   0.275160 0.783810 0.101120 -0.503580
O13   O     O_R   0.077520 0.903010 0.551800 -0.529738
O14   O     O_R   0.802980 0.872780 0.546830 -0.499187
O15   O     O_R   0.578090 0.681300 0.569920 -0.488164
O16   O     O_R   0.608530 0.436370 0.586530 -0.497715
O17   O     O_R   0.798770 0.401880 0.597100 -0.475778
O18   O     O_R   0.043450 0.677890 0.566230 -0.442783
O19   O     O_3   0.821250 0.666180 0.485090 -0.289515
O20   O     O_R   0.237900 0.972600 0.090980 -0.469846
O21   O     O_R   0.511190 0.220540 0.061620 -0.424124
O22   O     O_R   0.736920 0.257720 0.063840 -0.527092
O23   O     O_R   0.710450 0.984050 0.081720 -0.495270
O24   O     O_R   0.524090 0.765520 0.933110 -0.471660
O25   O     O_R   0.277300 0.791600 0.938160 -0.510534
O26   O     O_R   0.240210 0.981010 0.915190 -0.425295
O27   O     O_3   0.385892 0.245996 0.176684 -0.643158
H6    H     H_    0.309373 0.229887 0.217010 0.376942
Cl1   Cl    Cl    0.163409 0.558979 0.686554 -0.470263
O28   O     O_3   0.405512 0.249355 0.338322 -0.690183
H7    H     H_    0.422328 0.213817 0.392230 0.330198
O29   O     O_3   0.935135 0.484365 0.287730 -0.656980
H8    H     H_    0.009910 0.509437 0.243758 0.322380
Cl2   Cl    Cl    0.550052 0.547174 0.877001 -0.537366
Cl3   Cl    Cl    0.890771 0.153012 0.778380 -0.450662
Cl4   Cl    Cl    0.292231 0.166093 0.768632 -0.496372

loop_
_geom_bond_atom_site_label_1
_geom_bond_atom_site_label_2
_ccdc_geom_bond_type
Cr3   O4    S    
C12   O22   A    
C29   O16   A    
Cr4   O13   S    
C35   C36   A    
C15   H5    S    
Cr6   O11   S    
C7    C8    T    
Cr2   O2    S    
C20   C30   S    
O28   H7    S    
C11   Cl2   S    
C12   O21   A    
C21   Cl1   S    
C18   C24   A    
C18   C19   A    
C1    O12   A    
C5    C6    T    
C31   O26   A    
C6    C25   S    
Cr2   O5    S    
C15   C16   A    
C34   C35   A    
Cr5   O8    S    
C2    O29   S    
C9    C32   S    
C22   H2    S    
C19   C20   A    
C16   C17   A    
C30   O13   A    
Cr6   O18   S    
C4    C12   S    
C9    C10   T    
C28   O14   A    
Cr3   O5    S    
C29   O17   A    
Cr4   O19   S    
C13   C14   A    
C23   O23   A    
C17   C33   S    
Cr5   O15   S    
Cr6   O10   S    
C19   H1    S    
C4    C34   A    
O27   H6    S    
C25   O7    A    
Cr1   O5    S    
C3    H3    S    
Cr4   O14   S    
Cr5   O9    S    
C5    C23   S    
C16   Cl3   S    
C18   Cl4   S    
Cr3   O22   S    
C20   C21   A    
Cr1   O1    S    
C32   O3    A    
Cr1   O12   S    
C34   O27   S    
C26   C36   S    
C31   O25   A    
Cr2   O21   S    
Cr4   O7    S    
Cr1   O24   S    
C22   C24   A    
Cr5   O16   S    
C3    C4    A    
Cr6   O17   S    
C2    C36   A    
C11   C17   A    
C23   O1    A    
C1    C7    S    
C25   O8    A    
C27   O11   A    
C26   O9    A    
C27   O6    A    
Cr5   O19   S    
C33   O4    A    
C2    C3    A    
C24   C31   S    
C11   C13   A    
C10   C29   S    
C13   H4    S    
C1    O20   A    
Cr3   O23   S    
C35   O28   S    
C26   O10   A    
C32   O2    A    
C30   O18   A    
C33   O24   A    
O29   H8    S    
Cr3   O3    S    
Cr2   O20   S    
Cr4   O6    S    
Cr1   O25   S    
Cr6   O19   S    
C8    C27   S    
C14   C15   A    
C14   C28   S    
C21   C22   A    
Cr2   O26   S    
C28   O15   A    
