data_mof_unit_29174.cif
_audit_creation_date              2012-12-10T17:57:52-0500
_audit_creation_method            fapswitch 2.2
_symmetry_space_group_name_H-M    P1
_symmetry_Int_Tables_number       1
_space_group_crystal_system       triclinic
_cell_length_a                    10.998157
_cell_length_b                    9.51924
_cell_length_c                    15.008999
_cell_angle_alpha                 89.734761
_cell_angle_beta                  90.024335
_cell_angle_gamma                 90.105355
_cell_volume                      1571.3339529

loop_
_atom_site_label
_atom_site_type_symbol
_atom_type_description
_atom_site_fract_x
_atom_site_fract_y
_atom_site_fract_z
_atom_type_partial_charge
C1    C     C_R   0.261869 0.499950 0.499140 0.831554
C2    C     C_R   0.737577 0.500512 0.496449 0.846503
C3    C     C_R   0.277615 0.519588 0.042201 -0.151303
C4    C     C_R   0.722751 0.479425 0.957800 -0.153829
C5    C     C_R   0.061874 0.373551 0.482567 -0.080163
C6    C     C_R   0.936223 0.629320 0.503582 -0.100979
C7    C     C_R   0.935175 0.376106 0.473677 -0.087438
C8    C     C_R   0.062960 0.628815 0.502242 -0.058253
C9    C     C_R   0.871144 0.502286 0.490410 -0.174653
C10   C     C_R   0.127345 0.500361 0.495934 -0.182515
C11   C     C_R   0.442649 0.074690 0.434032 -0.032340
C12   C     C_R   0.557939 0.925282 0.565699 0.028159
C13   C     C_R   0.558405 0.074042 0.565501 0.027946
C14   C     C_R   0.443171 0.925962 0.433822 -0.006750
C15   C     C_R   0.499041 0.500321 0.329084 0.844684
C16   C     C_R   0.501139 0.499655 0.670912 0.843919
C17   C     C_R   0.616336 0.491457 0.813451 -0.057604
C18   C     C_R   0.384055 0.508338 0.186503 -0.059033
C19   C     C_R   0.504822 0.498475 0.767217 -0.124353
C20   C     C_R   0.495516 0.501328 0.232779 -0.125132
C21   C     C_R   0.394529 0.507754 0.812322 -0.227378
C22   C     C_R   0.605822 0.491483 0.187716 -0.224333
C23   C     C_R   0.392112 0.508895 0.904835 0.114836
C24   C     C_R   0.608262 0.490170 0.095188 0.111661
C25   C     C_R   0.501926 0.499878 0.953069 0.057662
C26   C     C_R   0.498464 0.499268 0.046934 0.058006
C27   C     C_R   0.614935 0.491201 0.907632 0.042012
C28   C     C_R   0.385457 0.508111 0.092351 0.043056
C29   C     C_R   0.281086 0.519146 0.949608 -0.183781
C30   C     C_R   0.719273 0.479715 0.050409 -0.182549
Cu1   Cu    Cu3+1 0.500000 0.640660 0.500000 1.028328
Cu2   Cu    Cu3+1 0.500000 0.359340 0.500000 1.020362
H1    H     H_    0.310273 0.514367 0.774819 0.150787
H2    H     H_    0.690048 0.484688 0.225254 0.164324
H3    H     H_    0.196495 0.527388 0.912856 0.160882
H4    H     H_    0.803848 0.471300 0.087166 0.163265
H5    H     H_    0.189731 0.530202 0.073700 0.180708
H6    H     H_    0.810622 0.468666 0.926307 0.180235
H7    H     H_    0.396116 0.130751 0.381340 0.171042
H8    H     H_    0.604347 0.869092 0.618385 0.138616
H9    H     H_    0.605689 0.129637 0.617818 0.156879
H10   H     H_    0.397681 0.870311 0.380716 0.170582
N1    N     N_R   0.500000 0.852070 0.500000 -0.163832
N2    N     N_R   0.500000 0.147930 0.500000 -0.175182
O1    O     O_R   0.319640 0.618740 0.499990 -0.560689
O2    O     O_R   0.680360 0.381260 0.500010 -0.555650
O3    O     O_R   0.680360 0.618740 0.500010 -0.580797
O4    O     O_R   0.319640 0.381260 0.499990 -0.577413
O5    O     O_R   0.499970 0.618800 0.370260 -0.566256
O6    O     O_R   0.500030 0.381200 0.629740 -0.564737
O7    O     O_R   0.500030 0.618800 0.629740 -0.588189
O8    O     O_R   0.499970 0.381200 0.370260 -0.584318
C31   C     C_2   0.732475 0.487315 0.762849 0.798494
O9    O     O_2   0.750146 0.394366 0.708444 -0.593055
O10   O     O_R   0.820583 0.590972 0.776718 -0.735720
H11   H     H_    0.894942 0.577650 0.737765 0.354066
C32   C     C_2   0.267936 0.513444 0.237042 0.800074
O11   O     O_2   0.250107 0.607838 0.290388 -0.571256
O12   O     O_R   0.179972 0.409265 0.224234 -0.734408
H12   H     H_    0.105556 0.423466 0.263019 0.350982
C33   C     C_2   0.124228 0.236578 0.475716 0.913010
O13   O     O_2   0.142613 0.184934 0.402561 -0.599197
O14   O     O_R   0.163669 0.169383 0.553488 -0.701624
H13   H     H_    0.214167 0.082995 0.541077 0.343056
C34   C     C_2   0.875260 0.766430 0.518786 0.918409
O15   O     O_2   0.833669 0.832401 0.455682 -0.535361
O16   O     O_R   0.870289 0.821292 0.604886 -0.727042
H14   H     H_    0.829981 0.916859 0.606817 0.352141
C35   C     C_2   0.871681 0.246538 0.443300 0.929870
O17   O     O_2   0.876221 0.139232 0.488298 -0.555253
O18   O     O_R   0.805996 0.248801 0.363492 -0.754678
H15   H     H_    0.765455 0.155384 0.350403 0.351585
C36   C     C_2   0.125004 0.766807 0.500820 0.918586
O19   O     O_2   0.160030 0.820029 0.570236 -0.573415
O20   O     O_R   0.141337 0.834950 0.419154 -0.692545
H16   H     H_    0.186694 0.926682 0.425051 0.336724

loop_
_geom_bond_atom_site_label_1
_geom_bond_atom_site_label_2
_ccdc_geom_bond_type
O10   H11   S    
C36   O20   S    
C36   O19   D    
C16   O7    A    
C6    C9    A    
C13   H9    S    
C31   O9    D    
C2    O2    A    
Cu1   N1    S    
C23   C29   A    
C3    C28   A    
C19   C21   A    
C16   O6    A    
C12   N1    A    
C11   C14   A    
C32   O12   S    
C21   H1    S    
C35   O18   S    
C3    C29   A    
Cu2   O8    S    
C6    C34   S    
C34   O16   S    
C14   H10   S    
C23   C25   A    
O12   H12   S    
Cu1   O3    S    
Cu2   O4    S    
C35   O17   D    
Cu1   O5    S    
C31   O10   S    
C15   C20   S    
C22   H2    S    
O16   H14   S    
C17   C27   A    
C18   C28   A    
Cu1   O7    S    
C5    C7    A    
C6    C8    A    
C25   C26   A    
C12   H8    S    
O20   H16   S    
C18   C32   S    
Cu1   Cu2   S    
C33   O14   S    
Cu2   N2    S    
C5    C33   S    
C11   N2    A    
C15   O8    A    
C11   H7    S    
Cu2   O6    S    
C20   C22   A    
C21   C23   A    
C22   C24   A    
C17   C31   S    
C4    C27   A    
C7    C9    A    
Cu2   O2    S    
C1    C10   S    
C24   C26   A    
C7    C35   S    
C1    O4    A    
C2    O3    A    
C25   C27   A    
C29   H3    S    
C26   C28   A    
C30   H4    S    
O18   H15   S    
C1    O1    A    
C32   O11   D    
C16   C19   S    
C8    C36   S    
C17   C19   A    
C18   C20   A    
C15   O5    A    
C33   O13   D    
C24   C30   A    
O14   H13   S    
C5    C10   A    
C12   C13   A    
C3    H5    S    
C8    C10   A    
C34   O15   D    
Cu1   O1    S    
C4    H6    S    
C2    C9    S    
C13   N2    A    
C4    C30   A    
C14   N1    A    
