data_mof_unit_51188.cif
_audit_creation_date              2012-12-11T15:10:47-0500
_audit_creation_method            fapswitch 2.2
_symmetry_space_group_name_H-M    P1
_symmetry_Int_Tables_number       1
_space_group_crystal_system       triclinic
_cell_length_a                    21.166761
_cell_length_b                    7.240422
_cell_length_c                    18.223734
_cell_angle_alpha                 90.255645
_cell_angle_beta                  93.439932
_cell_angle_gamma                 90.214524
_cell_volume                      2787.81934544

loop_
_atom_site_label
_atom_site_type_symbol
_atom_type_description
_atom_site_fract_x
_atom_site_fract_y
_atom_site_fract_z
_atom_type_partial_charge
O1    O     O_R   0.448880 0.506250 0.415280 -0.529338
O2    O     O_R   0.551120 0.006250 0.584720 -0.529248
O3    O     O_R   0.434830 0.174000 0.557310 -0.521036
O4    O     O_R   0.565170 0.674000 0.442690 -0.521355
C1    C     C_R   0.417030 0.344584 0.579705 0.695991
C2    C     C_R   0.582956 0.844570 0.420295 0.696061
O5    O     O_R   0.441680 0.176440 0.414130 -0.530428
O6    O     O_R   0.558320 0.676440 0.585870 -0.530438
O7    O     O_R   0.558020 0.007570 0.440520 -0.518795
O8    O     O_R   0.441980 0.507570 0.559480 -0.519580
C3    C     C_R   0.428104 0.344260 0.388141 0.683362
C4    C     C_R   0.571784 0.845416 0.611853 0.683982
O9    O     O_3   0.538160 0.339670 0.508820 -0.364135
O10   O     O_3   0.461840 0.839670 0.491180 -0.364504
V1    V     V_3+5 0.492920 0.064260 0.498360 1.418891
V2    V     V_3+5 0.507080 0.564260 0.501640 1.416674
C5    C     C_R   0.876894 0.956789 0.686993 -0.160300
C6    C     C_R   0.125539 0.497307 0.311636 -0.160989
H1    H     H_    0.964797 0.986553 0.750700 0.107003
H2    H     H_    0.037612 0.524218 0.248055 0.107702
H3    H     H_    0.797442 0.944084 0.569200 0.125999
H4    H     H_    0.205817 0.499487 0.428798 0.126096
H5    H     H_    0.899334 0.976138 0.635646 0.114302
H6    H     H_    0.104076 0.532464 0.362360 0.114369
C7    C     C_R   0.887177 0.938840 0.819691 -0.036274
C8    C     C_R   0.113167 0.445252 0.180269 -0.038013
C9    C     C_R   0.581347 0.833504 0.746918 -0.205050
C10   C     C_R   0.416891 0.304426 0.253806 -0.203267
C11   C     C_R   0.615620 0.827999 0.815159 0.065267
C12   C     C_R   0.382610 0.303069 0.185614 0.063142
C13   C     C_R   0.681882 0.845464 0.817283 -0.199366
C14   C     C_R   0.317643 0.343076 0.182662 -0.201836
C15   C     C_R   0.714599 0.875019 0.752908 0.062088
C16   C     C_R   0.285612 0.381408 0.246834 0.063245
C17   C     C_R   0.678577 0.876609 0.683881 0.067984
C18   C     C_R   0.322005 0.387276 0.315655 0.068504
C19   C     C_R   0.781992 0.902335 0.754865 0.082379
C20   C     C_R   0.218648 0.415218 0.244764 0.082054
C21   C     C_R   0.811308 0.927640 0.687430 0.137077
C22   C     C_R   0.190529 0.459516 0.311488 0.137299
C23   C     C_R   0.775119 0.925218 0.620660 -0.199076
C24   C     C_R   0.227267 0.466271 0.377858 -0.199787
C25   C     C_R   0.709920 0.900530 0.618803 -0.184013
C26   C     C_R   0.291753 0.429705 0.380093 -0.185732
C27   C     C_R   0.821533 0.908606 0.821081 -0.213549
C28   C     C_R   0.178221 0.406167 0.179235 -0.215485
C29   C     C_R   0.914337 0.962861 0.752463 -0.165915
C30   C     C_R   0.087469 0.491934 0.246618 -0.164557
C31   C     C_R   0.611794 0.853629 0.681437 -0.093176
C32   C     C_R   0.387933 0.348681 0.318569 -0.095505
H7    H     H_    0.803036 0.893522 0.874534 0.092804
H8    H     H_    0.195551 0.370924 0.126598 0.094537
H9    H     H_    0.530199 0.822863 0.744168 0.101180
H10   H     H_    0.466747 0.269719 0.256894 0.105065
H11   H     H_    0.707085 0.831624 0.869926 0.108086
H12   H     H_    0.293416 0.347506 0.129113 0.107667
H13   H     H_    0.684123 0.901245 0.565665 0.108225
H14   H     H_    0.317843 0.435431 0.433015 0.111371
C33   C     C_1   0.864477 0.938908 0.132011 -0.209862
C34   C     C_1   0.135516 0.438887 0.867971 -0.210285
C35   C     C_1   0.821572 0.924848 0.175711 -0.004262
C36   C     C_1   0.178410 0.424825 0.824261 -0.004420
C37   C     C_1   0.770974 0.905724 0.227792 -0.006296
C38   C     C_1   0.229001 0.405709 0.772174 -0.005954
C39   C     C_1   0.728411 0.889088 0.271800 -0.007314
C40   C     C_1   0.271564 0.389088 0.728169 -0.006812
C41   C     C_1   0.677911 0.869965 0.324005 -0.004828
C42   C     C_1   0.322070 0.369986 0.675975 -0.005180
C43   C     C_1   0.635134 0.855916 0.367867 -0.207808
C44   C     C_1   0.364851 0.355945 0.632123 -0.208570
O11   O     O_R   0.058070 0.289240 0.940580 -0.519981
O12   O     O_R   0.941930 0.789240 0.059420 -0.519579
O13   O     O_R   0.058330 0.616740 0.085880 -0.532310
O14   O     O_R   0.941670 0.116740 0.914120 -0.531892
C45   C     C_R   0.072061 0.449326 0.111791 0.683949
C46   C     C_R   0.928016 0.948118 0.888237 0.684255
O15   O     O_R   0.065180 0.619040 0.942700 -0.522189
O16   O     O_R   0.934820 0.119040 0.057300 -0.522180
O17   O     O_R   0.948870 0.787780 0.915270 -0.529302
O18   O     O_R   0.051130 0.287780 0.084730 -0.529463
C47   C     C_R   0.083202 0.450305 0.920222 0.705593
C48   C     C_R   0.916806 0.950316 0.079771 0.705147
O19   O     O_3   0.961870 0.453310 0.991210 -0.365088
O20   O     O_3   0.038130 0.953310 0.008790 -0.365803
V3    V     V_3+5 0.007070 0.728770 0.001630 1.413957
V4    V     V_3+5 0.992930 0.228770 0.998370 1.413405
C49   C     C_R   0.582252 0.803184 0.884503 0.101706
C50   C     C_R   0.526287 0.696944 0.885156 -0.145763
C51   C     C_R   0.494639 0.677015 0.949808 -0.126921
C52   C     C_R   0.519252 0.757371 0.015203 -0.079935
C53   C     C_R   0.575037 0.860724 0.015827 -0.113650
C54   C     C_R   0.605878 0.886089 0.950879 -0.152791
H15   H     H_    0.507093 0.627381 0.836049 0.106207
H16   H     H_    0.451253 0.597329 0.949349 0.128023
H17   H     H_    0.494838 0.740713 0.065279 0.117432
H18   H     H_    0.593690 0.924770 0.066408 0.116945
H19   H     H_    0.647623 0.973064 0.952705 0.105180
C55   C     C_R   0.414697 0.261238 0.116858 0.104038
C56   C     C_R   0.476640 0.325123 0.107476 -0.151276
C57   C     C_R   0.505909 0.289642 0.042143 -0.125926
C58   C     C_R   0.473473 0.193418 0.984913 -0.081779
C59   C     C_R   0.412467 0.126901 0.993777 -0.117907
C60   C     C_R   0.383303 0.159322 0.059411 -0.142799
H20   H     H_    0.502042 0.405754 0.149907 0.104631
H21   H     H_    0.553451 0.339673 0.035368 0.125003
H22   H     H_    0.495917 0.168534 0.933984 0.122769
H23   H     H_    0.387818 0.049470 0.949831 0.115556
H24   H     H_    0.336321 0.103823 0.065246 0.106674

loop_
_geom_bond_atom_site_label_1
_geom_bond_atom_site_label_2
_ccdc_geom_bond_type
C2    C43   S    
C40   C42   S    
C49   C50   A    
C37   C39   T    
C58   C59   A    
C9    C11   A    
C23   C25   A    
O1    C3    A    
C46   O17   A    
O2    C4    A    
C2    O7    A    
C4    C31   S    
C18   C32   A    
C52   H17   S    
C21   C23   A    
O5    C3    A    
C57   H21   S    
C5    H5    S    
O14   C46   A    
C6    H6    S    
H1    C29   S    
C27   H7    S    
C55   C60   A    
C28   H8    S    
C34   C36   T    
C5    C21   A    
C51   H16   S    
C35   C37   S    
C6    C22   A    
O18   V4    S    
C53   H18   S    
C10   C32   A    
C26   H14   S    
C39   C41   S    
C17   C31   A    
C36   C38   S    
C33   C48   S    
C60   H24   S    
C12   C14   A    
C17   C25   A    
C45   O18   A    
C7    C29   A    
C8    C30   A    
O16   V4    S    
O5    V1    S    
C56   H20   S    
O15   V3    S    
O6    V2    S    
C49   C54   A    
O13   C45   A    
C24   C26   A    
C54   H19   S    
O12   V3    S    
C33   C35   T    
C20   C28   A    
O20   V3    S    
O4    C2    A    
C53   C54   A    
C10   H10   S    
C15   C19   A    
C41   C43   T    
C14   C16   A    
O4    V2    S    
C1    C44   S    
O11   V4    S    
C34   C47   S    
O16   C48   A    
C56   C57   A    
O15   C47   A    
O6    C4    A    
C13   C15   A    
C8    C45   S    
C25   H13   S    
C59   H23   S    
O1    V2    S    
O14   V4    S    
O2    V1    S    
O13   V3    S    
H2    C30   S    
H3    C23   S    
C42   C44   T    
C18   C26   A    
C19   C27   A    
C7    C27   A    
O17   V3    S    
O3    V1    S    
C58   H22   S    
C50   H15   S    
C16   C20   A    
C5    C29   A    
O3    C1    A    
C6    C30   A    
C9    H9    S    
C12   C55   S    
C7    C46   S    
C10   C12   A    
O7    V1    S    
C1    O8    A    
C11   C13   A    
C3    C32   S    
O8    V2    S    
C20   C22   A    
C52   C53   A    
H4    C24   S    
C22   C24   A    
C57   C58   A    
C15   C17   A    
C16   C18   A    
C59   C60   A    
C11   C49   S    
C8    C28   A    
O19   V4    S    
C50   C51   A    
C19   C21   A    
C55   C56   A    
O9    V2    S    
O10   V1    S    
C13   H11   S    
C51   C52   A    
C14   H12   S    
O12   C48   A    
C9    C31   A    
C38   C40   T    
O11   C47   A    
