data_mof_unit_30699.cif
_audit_creation_date              2012-12-10T18:58:42-0500
_audit_creation_method            fapswitch 2.2
_symmetry_space_group_name_H-M    P1
_symmetry_Int_Tables_number       1
_space_group_crystal_system       triclinic
_cell_length_a                    13.02363
_cell_length_b                    10.873732
_cell_length_c                    9.544788
_cell_angle_alpha                 90.264165
_cell_angle_beta                  95.977148
_cell_angle_gamma                 91.127096
_cell_volume                      1344.05087578

loop_
_atom_site_label
_atom_site_type_symbol
_atom_type_description
_atom_site_fract_x
_atom_site_fract_y
_atom_site_fract_z
_atom_type_partial_charge
C1    C     C_R   0.498879 0.262178 0.498977 0.859066
C2    C     C_R   0.028030 0.470594 0.564066 0.017450
C3    C     C_R   0.972839 0.481527 0.429614 0.074585
C4    C     C_R   0.864997 0.475837 0.415899 0.348640
C5    C     C_R   0.867738 0.450925 0.670347 0.467919
C6    C     C_R   0.975376 0.452252 0.682687 -0.317184
C7    C     C_R   0.497261 0.063774 0.621703 -0.106433
C8    C     C_R   0.495518 0.128314 0.495397 -0.221094
C9    C     C_R   0.485622 0.062037 0.366421 0.370268
C10   C     C_R   0.469568 0.934128 0.367765 0.456626
C11   C     C_R   0.482966 0.870127 0.497017 -0.332844
C12   C     C_R   0.300706 0.498921 0.473928 0.785118
C13   C     C_R   0.495270 0.936394 0.623469 -0.054657
C14   C     C_3   0.423360 0.935048 0.736388 0.404483
C15   C     C_3   0.425608 0.074518 0.733548 0.297125
C16   C     C_R   0.587137 0.533294 0.085798 0.026562
C17   C     C_R   0.416816 0.457562 0.061413 0.643489
C18   C     C_R   0.417088 0.457451 0.913195 -0.164145
C19   C     C_R   0.587318 0.532391 0.938369 0.144370
C20   C     C_3   0.644437 0.652363 0.938013 0.226463
C21   C     C_3   0.644161 0.654437 0.097038 0.386811
C22   C     C_R   0.493197 0.737107 0.499211 0.843418
C23   C     C_R   0.699278 0.491527 0.525625 0.842020
C24   C     C_R   0.811880 0.473706 0.538166 -0.282934
C25   C     C_R   0.188314 0.494313 0.458660 -0.038909
C26   C     C_R   0.026408 0.499073 0.310780 -0.168589
C27   C     C_R   0.133379 0.505784 0.325392 -0.209106
C28   C     C_R   0.135413 0.476401 0.577687 -0.190929
Cu1   Cu    Cu3+1 0.499990 0.499980 0.640670 0.987984
Cu2   Cu    Cu3+1 0.500010 0.500020 0.359330 1.057331
H1    H     H_    0.463769 0.121017 0.830218 0.122204
H2    H     H_    0.349376 0.424411 0.847962 0.164075
H3    H     H_    0.597559 0.724030 0.879953 0.200644
H4    H     H_    0.721863 0.651017 0.156494 0.153882
H5    H     H_    0.986059 0.509028 0.206464 0.191887
H6    H     H_    0.017528 0.439131 0.785437 0.171179
H7    H     H_    0.172887 0.520368 0.232320 0.203470
H8    H     H_    0.177557 0.466605 0.681024 0.151085
H9    H     H_    0.346917 0.890835 0.702837 0.087584
N1    N     N_R   0.500660 0.500930 0.148010 -0.198136
N2    N     N_R   0.500660 0.500890 0.852110 -0.227481
O1    O     O_R   0.500000 0.319640 0.618810 -0.580296
O2    O     O_R   0.500010 0.319680 0.381230 -0.543568
O3    O     O_R   0.348990 0.499960 0.599490 -0.602424
O4    O     O_R   0.349000 0.500000 0.361910 -0.531919
O5    O     O_R   0.499990 0.680320 0.618770 -0.581643
O6    O     O_R   0.500000 0.680360 0.381190 -0.488916
O7    O     O_R   0.651000 0.500000 0.638090 -0.521008
O8    O     O_R   0.651010 0.500040 0.400510 -0.553061
O9    O     O_3   0.812115 0.475856 0.282487 -0.585317
C29   C     C_3   0.796299 0.352684 0.236630 -0.260759
H10   H     H_    0.751307 0.352236 0.131510 0.189338
H11   H     H_    0.870864 0.307268 0.225469 0.149630
H12   H     H_    0.750876 0.298776 0.308611 0.164265
F1    F     F_    0.470102 0.890673 0.862254 -0.654017
O10   O     O_3   0.330079 0.123407 0.678387 -0.588701
C30   C     C_3   0.267155 0.139242 0.788304 -0.353541
H13   H     H_    0.301147 0.209356 0.865360 0.162486
H14   H     H_    0.253509 0.050905 0.842455 0.156632
H15   H     H_    0.191111 0.173019 0.742773 0.198520
F2    F     F_    0.331527 0.414011 0.115785 -0.707370
O11   O     O_3   0.744334 0.636686 0.897054 -0.533099
C31   C     C_3   0.787410 0.752341 0.867531 -0.275644
H16   H     H_    0.789508 0.815809 0.959691 0.159365
H17   H     H_    0.744304 0.793829 0.773154 0.163376
H18   H     H_    0.868076 0.739374 0.843688 0.186751
F3    F     F_    0.585106 0.748420 0.139794 -0.585138
O12   O     O_3   0.818238 0.428415 0.788994 -0.501792
C32   C     C_3   0.797386 0.300929 0.795711 -0.267529
H19   H     H_    0.870202 0.248565 0.811760 0.138388
H20   H     H_    0.748785 0.266778 0.699955 0.134940
H21   H     H_    0.753366 0.283003 0.887085 0.177458
O13   O     O_3   0.502292 0.119782 0.241352 -0.547767
C33   C     C_3   0.407781 0.136326 0.157939 -0.165029
H22   H     H_    0.420072 0.208760 0.080303 0.172670
H23   H     H_    0.344868 0.166247 0.220387 0.155805
H24   H     H_    0.384463 0.052583 0.095224 0.191662
O14   O     O_3   0.443294 0.873129 0.241322 -0.450412
C34   C     C_3   0.336963 0.840984 0.230325 -0.224800
H25   H     H_    0.288283 0.922526 0.242985 0.092661
H26   H     H_    0.319819 0.769817 0.308205 0.135202
H27   H     H_    0.314414 0.801763 0.123808 0.201303

loop_
_geom_bond_atom_site_label_1
_geom_bond_atom_site_label_2
_ccdc_geom_bond_type
C31   H17   S    
C16   C21   S    
Cu1   O1    S    
C1    C8    S    
O13   C33   S    
Cu2   O4    S    
C19   C20   S    
C10   O14   S    
C7    C8    A    
C25   C28   A    
C26   C27   A    
Cu1   Cu2   S    
C33   H23   S    
C5    C6    A    
C4    C24   A    
C23   O8    A    
O10   C30   S    
C32   H20   S    
C17   F2    S    
C14   H9    S    
C1    O2    A    
O12   C32   S    
C33   H24   S    
C23   C24   S    
C9    C10   A    
C7    C15   S    
C14   F1    S    
C31   H18   S    
C13   C14   S    
C21   F3    S    
C2    C6    A    
C9    O13   S    
C5    O12   S    
C17   C18   A    
C33   H22   S    
Cu1   O7    S    
C29   H10   S    
Cu2   O6    S    
C18   N2    A    
C34   H26   S    
O14   C34   S    
C8    C9    A    
C30   H15   S    
C21   H4    S    
C34   H25   S    
C4    O9    S    
C29   H11   S    
C17   N1    A    
C32   H21   S    
O11   C31   S    
C1    O1    A    
C28   H8    S    
O9    C29   S    
Cu2   N1    S    
C16   N1    A    
C20   H3    S    
C22   O5    A    
Cu2   O8    S    
Cu1   O3    S    
Cu2   O2    S    
C18   H2    S    
C3    C4    A    
C23   O7    A    
Cu1   N2    S    
C3    C26   A    
C12   O4    A    
C34   H27   S    
C15   H1    S    
C25   C27   A    
Cu1   O5    S    
C11   C22   S    
C12   C25   S    
C29   H12   S    
C15   O10   S    
C2    C3    A    
C12   O3    A    
C11   C13   A    
C30   H13   S    
C5    C24   A    
C27   H7    S    
C16   C19   A    
C6    H6    S    
C22   O6    A    
C20   O11   S    
C32   H19   S    
C30   H14   S    
C10   C11   A    
C31   H16   S    
C26   H5    S    
C7    C13   A    
C20   C21   S    
C14   C15   S    
C2    C28   A    
C19   N2    A    
