data_mof_unit_24626.cif
_audit_creation_date              2012-12-10T17:20:26-0500
_audit_creation_method            fapswitch 2.2
_symmetry_space_group_name_H-M    P1
_symmetry_Int_Tables_number       1
_space_group_crystal_system       triclinic
_cell_length_a                    11.709549
_cell_length_b                    10.866568
_cell_length_c                    9.612507
_cell_angle_alpha                 89.932631
_cell_angle_beta                  89.576812
_cell_angle_gamma                 93.219811
_cell_volume                      1221.15481002

loop_
_atom_site_label
_atom_site_type_symbol
_atom_type_description
_atom_site_fract_x
_atom_site_fract_y
_atom_site_fract_z
_atom_type_partial_charge
C1    C     C_R   0.508683 0.263192 0.500650 0.795983
C2    C     C_R   0.553873 0.061161 0.883198 -0.144935
C3    C     C_R   0.496630 0.945955 0.889151 -0.144207
C4    C     C_R   0.465977 0.884920 0.766372 -0.153384
C5    C     C_R   0.493634 0.938297 0.634565 0.094610
C6    C     C_R   0.528169 0.064512 0.631061 0.091006
C7    C     C_R   0.518762 0.129419 0.503702 -0.115125
C8    C     C_R   0.503803 0.063946 0.379181 -0.197503
C9    C     C_R   0.494317 0.936620 0.380163 -0.215713
C10   C     C_R   0.488894 0.871997 0.506362 -0.111356
C11   C     C_R   0.650464 0.666963 0.142141 -0.245866
C12   C     C_R   0.284134 0.499587 0.500402 0.823355
C13   C     C_R   0.722715 0.751582 0.069907 -0.013390
C14   C     C_R   0.722757 0.750196 0.925648 -0.168294
C15   C     C_R   0.651028 0.666424 0.854583 -0.180672
C16   C     C_R   0.574167 0.581916 0.924364 0.161206
C17   C     C_R   0.574002 0.582017 0.073690 0.198307
C18   C     C_R   0.429932 0.422217 0.076688 -0.066231
C19   C     C_R   0.428570 0.421379 0.929439 0.249647
C20   C     C_R   0.493737 0.737406 0.501217 0.776571
C21   C     C_R   0.715867 0.500529 0.499608 0.797872
C22   C     C_1   0.162392 0.499893 0.501026 -0.175021
C23   C     C_1   0.059911 0.500221 0.500564 0.011640
C24   C     C_1   0.940091 0.500541 0.499557 0.010372
C25   C     C_1   0.837606 0.500639 0.499045 -0.176727
C26   C     C_R   0.569369 0.120658 0.755466 -0.148048
Cu1   Cu    Cu3+1 0.499990 0.499990 0.640660 0.923647
Cu2   Cu    Cu3+1 0.500010 0.500010 0.359340 0.936540
H1    H     H_    0.499564 0.111061 0.280109 0.163309
H2    H     H_    0.778643 0.814231 0.866858 0.188834
H3    H     H_    0.659213 0.672884 0.744791 0.207436
H4    H     H_    0.616055 0.209260 0.755680 0.171281
H5    H     H_    0.583049 0.106212 0.977921 0.145732
H6    H     H_    0.478198 0.902455 0.988832 0.138799
H7    H     H_    0.417364 0.798179 0.777761 0.172953
H8    H     H_    0.489346 0.888854 0.281325 0.163726
H9    H     H_    0.372885 0.359002 0.134931 0.150603
H10   H     H_    0.657695 0.671142 0.251900 0.194783
N1    N     N_R   0.501070 0.501210 0.147910 -0.208642
N2    N     N_R   0.501110 0.501290 0.852040 -0.199123
O1    O     O_R   0.499990 0.319640 0.618810 -0.596827
O2    O     O_R   0.500000 0.319660 0.381240 -0.579259
O3    O     O_R   0.337190 0.500000 0.618790 -0.578509
O4    O     O_R   0.337200 0.500030 0.381210 -0.566161
O5    O     O_R   0.500000 0.680340 0.618760 -0.611532
O6    O     O_R   0.500010 0.680360 0.381190 -0.596903
O7    O     O_R   0.662800 0.499970 0.618790 -0.590679
O8    O     O_R   0.662810 0.500000 0.381210 -0.583447
C27   C     C_3   0.342984 0.328992 0.867112 -0.781742
H11   H     H_    0.339587 0.327217 0.753907 0.281166
H12   H     H_    0.362142 0.234905 0.901861 0.206428
H13   H     H_    0.255877 0.348363 0.904663 0.204759
C28   C     C_2   0.798034 0.840928 0.147530 0.370529
H14   H     H_    0.797041 0.840489 0.260493 0.056319
O9    O     O_2   0.861709 0.916236 0.086695 -0.538113

loop_
_geom_bond_atom_site_label_1
_geom_bond_atom_site_label_2
_ccdc_geom_bond_type
C8    C9    A    
C9    H8    S    
C23   C24   S    
C26   H4    S    
C6    C7    A    
Cu1   O3    S    
C11   H10   S    
C9    C10   A    
Cu1   O1    S    
Cu2   N1    S    
C20   O5    A    
C14   C15   A    
Cu1   N2    S    
C18   N1    A    
C21   O8    A    
Cu1   O5    S    
C2    C3    A    
C4    H7    S    
C5    C10   A    
C2    C26   A    
C13   C14   A    
C15   H3    S    
C11   C13   A    
Cu2   O6    S    
C6    C26   A    
C14   H2    S    
C8    H1    S    
C2    H5    S    
C1    O1    A    
C18   H9    S    
C16   N2    A    
C27   H11   S    
C12   O3    A    
C13   C28   S    
C28   O9    D    
C5    C6    A    
C19   N2    A    
Cu1   O7    S    
C15   C16   A    
C12   C22   S    
C1    O2    A    
C7    C8    A    
C24   C25   T    
Cu2   O8    S    
C12   O4    A    
C18   C19   A    
C17   N1    A    
Cu2   O2    S    
Cu1   Cu2   S    
C19   C27   S    
C22   C23   T    
C4    C5    A    
C21   C25   S    
C3    H6    S    
C21   O7    A    
C1    C7    S    
Cu2   O4    S    
C27   H13   S    
C20   O6    A    
C3    C4    A    
C28   H14   S    
C10   C20   S    
C16   C17   A    
C27   H12   S    
C11   C17   A    
