data_mof_unit_29018.cif
_audit_creation_date              2012-12-10T16:57:07-0500
_audit_creation_method            fapswitch 2.2
_symmetry_space_group_name_H-M    P1
_symmetry_Int_Tables_number       1
_space_group_crystal_system       triclinic
_cell_length_a                    7.859929
_cell_length_b                    8.556886
_cell_length_c                    16.641429
_cell_angle_alpha                 92.888937
_cell_angle_beta                  80.01855
_cell_angle_gamma                 93.733042
_cell_volume                      1099.0931768

loop_
_atom_site_label
_atom_site_type_symbol
_atom_type_description
_atom_site_fract_x
_atom_site_fract_y
_atom_site_fract_z
_atom_type_partial_charge
C1    C     C_R   0.545780 0.794407 0.498144 0.966604
C2    C     C_R   0.454199 0.205602 0.502005 0.960287
C3    C     C_2   0.569721 0.958112 0.497209 -0.388903
C4    C     C_2   0.430214 0.041944 0.503269 -0.382373
C5    C     C_R   0.474961 0.491755 0.653772 0.857211
C6    C     C_R   0.523410 0.498076 0.345601 0.863577
C7    C     C_R   0.452977 0.435259 0.736089 -0.074594
C8    C     C_R   0.534948 0.489099 0.257374 -0.082989
C9    C     C_R   0.571241 0.331476 0.754033 -0.206977
C10   C     C_R   0.394549 0.530978 0.223055 -0.217376
C11   C     C_R   0.551597 0.270117 0.831179 0.229234
C12   C     C_R   0.395014 0.507734 0.139623 0.244348
C13   C     C_R   0.412449 0.316216 0.891020 0.167921
C14   C     C_R   0.538456 0.438830 0.090917 0.173317
C15   C     C_R   0.286435 0.408795 0.871070 -0.213385
C16   C     C_R   0.682914 0.406456 0.124362 -0.218606
C17   C     C_R   0.306322 0.468010 0.793597 -0.207473
C18   C     C_R   0.681240 0.430991 0.207449 -0.205444
C19   C     C_2   0.423001 0.309889 0.976964 -0.213793
C20   C     C_2   0.543965 0.404813 0.004322 -0.224181
H1    H     H_    0.679360 0.298296 0.707917 0.164441
H2    H     H_    0.283476 0.580166 0.261462 0.163368
H3    H     H_    0.791716 0.399647 0.232846 0.165146
H4    H     H_    0.210851 0.543465 0.779563 0.158813
H5    H     H_    0.180053 0.445159 0.917317 0.144094
H6    H     H_    0.794924 0.357873 0.086406 0.140650
H7    H     H_    0.701537 0.009036 0.491478 0.169784
H8    H     H_    0.298390 0.991031 0.509039 0.169919
N1    N     N_2   0.953500 0.457650 0.478520 -0.000697
N2    N     N_2   0.046500 0.542350 0.521480 0.000634
O1    O     O_R   0.388470 0.738640 0.505270 -0.611116
O2    O     O_R   0.611530 0.261360 0.494730 -0.615071
O3    O     O_R   0.679650 0.711510 0.491500 -0.638567
O4    O     O_R   0.320350 0.288490 0.508500 -0.639693
O5    O     O_R   0.337210 0.515200 0.623500 -0.608595
O6    O     O_R   0.662790 0.484800 0.376500 -0.612365
O7    O     O_R   0.628380 0.488060 0.609730 -0.631634
O8    O     O_R   0.371620 0.511940 0.390270 -0.629935
Zn1   Zn    Zn3+2 0.305580 0.518120 0.509190 0.937580
Zn2   Zn    Zn3+2 0.694420 0.481880 0.490810 0.933441
H9    H     H_    0.646236 0.464083 0.962104 0.158457
H10   H     H_    0.318343 0.252562 0.018488 0.154664
C21   C     C_3   0.245033 0.560536 0.104118 -0.945676
H11   H     H_    0.158606 0.632266 0.149301 0.239503
H12   H     H_    0.293746 0.633525 0.050722 0.251928
H13   H     H_    0.165771 0.457888 0.085150 0.231761
C22   C     C_3   0.681154 0.160287 0.849606 -0.932691
H14   H     H_    0.774031 0.127913 0.793929 0.235198
H15   H     H_    0.756616 0.215801 0.894981 0.245025
H16   H     H_    0.612294 0.050966 0.874318 0.246583
C23   C     C_3   0.012559 0.306710 0.447918 -0.510486
H17   H     H_    0.920087 0.251037 0.410346 0.175673
H18   H     H_    0.138381 0.317721 0.406748 0.212773
H19   H     H_    0.014288 0.229467 0.499358 0.184608
C24   C     C_3   0.987499 0.693364 0.551982 -0.506625
H20   H     H_    0.079966 0.749126 0.589528 0.175563
H21   H     H_    0.985802 0.770488 0.500490 0.184305
H22   H     H_    0.861658 0.682450 0.593139 0.212837

loop_
_geom_bond_atom_site_label_1
_geom_bond_atom_site_label_2
_ccdc_geom_bond_type
O5    Zn1   S    
C24   H20   S    
C6    O8    A    
C15   C17   A    
N1    N2    D    
C5    O7    A    
C22   H16   S    
C9    C11   A    
N2    C24   S    
O4    Zn1   S    
C11   C22   S    
C19   C20   D    
O1    Zn1   S    
C19   H10   S    
O6    Zn2   S    
C21   H11   S    
C23   H19   S    
C2    O4    A    
C3    H7    S    
C20   H9    S    
C1    O3    A    
C23   H17   S    
C22   H15   S    
C10   H2    S    
C21   H12   S    
C11   C13   A    
C9    H1    S    
C10   C12   A    
C2    C4    S    
C5    O5    A    
N1    Zn2   S    
C16   C18   A    
C4    H8    S    
C6    O6    A    
N2    Zn1   S    
O7    Zn2   S    
C5    C7    S    
C24   H21   S    
C13   C15   A    
C16   H6    S    
O8    Zn1   S    
C21   H13   S    
C14   C16   A    
C15   H5    S    
O3    Zn2   S    
C13   C19   S    
C18   H3    S    
C17   H4    S    
C14   C20   S    
C1    O1    A    
O2    Zn2   S    
C2    O2    A    
N1    C23   S    
C24   H22   S    
C7    C9    A    
C6    C8    S    
C23   H18   S    
C12   C21   S    
C8    C10   A    
C8    C18   A    
C3    C4    D    
C22   H14   S    
C12   C14   A    
C1    C3    S    
C7    C17   A    
