data_mof_unit_66499.cif
_audit_creation_date              2012-12-10T18:17:02-0500
_audit_creation_method            fapswitch 2.2
_symmetry_space_group_name_H-M    P1
_symmetry_Int_Tables_number       1
_space_group_crystal_system       triclinic
_cell_length_a                    29.1888
_cell_length_b                    29.188799
_cell_length_c                    38.698015
_cell_angle_alpha                 89.999953
_cell_angle_beta                  89.999952
_cell_angle_gamma                 90.0
_cell_volume                      32970.1676367

loop_
_atom_site_label
_atom_site_type_symbol
_atom_type_description
_atom_site_fract_x
_atom_site_fract_y
_atom_site_fract_z
_atom_type_partial_charge
C1    C     C_R   0.500000 0.913194 0.000000 0.891822
C2    C     C_1   0.229393 0.500000 0.000000 0.043531
C3    C     C_R   1.000000 0.500000 0.894353 -0.257995
C4    C     C_R   1.000000 0.500000 0.605646 -0.257995
C5    C     C_R   0.500000 1.000000 0.605646 -0.257995
C6    C     C_R   0.000000 0.500000 0.394354 -0.257995
C7    C     C_R   0.500000 0.000000 0.394353 -0.257995
C8    C     C_R   0.500000 0.000000 0.284769 0.347406
C9    C     C_R   0.000000 0.500000 0.284769 0.347406
C10   C     C_R   0.500000 1.000000 0.715231 0.347406
C11   C     C_R   1.000000 0.500000 0.715231 0.347407
C12   C     C_R   1.000000 0.500000 0.784768 0.347406
C13   C     C_1   0.500000 0.229393 0.000000 0.043531
C14   C     C_R   0.500000 1.000000 0.784768 0.347406
C15   C     C_R   1.000000 0.500000 0.215231 0.347406
C16   C     C_R   0.500000 1.000000 0.215231 0.347406
C17   C     C_1   0.500000 0.862568 0.000000 -0.180790
C18   C     C_1   0.137432 0.500000 0.000000 -0.180790
C19   C     C_1   0.500000 0.137432 0.000000 -0.180790
C20   C     C_1   0.862568 0.500000 0.000000 -0.180790
C21   C     C_1   1.000000 0.362568 0.500000 -0.180790
C22   C     C_1   0.637432 0.000000 0.500000 -0.180790
C23   C     C_1   1.000000 0.637432 0.500000 -0.180790
C24   C     C_1   0.770606 0.500000 1.000000 0.043531
C25   C     C_1   0.362568 0.000000 0.500000 -0.180790
C26   C     C_1   0.500000 0.820394 1.000000 0.051323
C27   C     C_1   0.179606 0.500000 0.000000 0.051323
C28   C     C_1   0.500000 0.179606 0.000000 0.051323
C29   C     C_1   0.820394 0.500000 1.000000 0.051323
C30   C     C_1   1.000000 0.320394 0.500000 0.051323
C31   C     C_1   0.679606 0.000000 0.500000 0.051323
C32   C     C_1   0.000000 0.679606 0.500000 0.051323
C33   C     C_1   0.320394 1.000000 0.500000 0.051323
C34   C     C_2   0.472572 0.918403 0.103973 0.450805
C35   C     C_1   1.000000 0.270606 0.500000 0.043531
C36   C     C_2   0.081597 0.472572 0.103973 0.450805
C37   C     C_2   0.527428 0.081597 0.103973 0.450805
C38   C     C_2   0.918403 0.527427 0.103973 0.450805
C39   C     C_2   0.472573 0.081597 0.896026 0.450806
C40   C     C_2   0.081596 0.527428 0.896026 0.450805
C41   C     C_2   0.527427 0.918403 0.896027 0.450806
C42   C     C_2   0.918403 0.472572 0.896027 0.450806
C43   C     C_2   0.972572 0.418403 0.603973 0.450805
C44   C     C_2   0.581597 0.972572 0.603973 0.450806
C45   C     C_2   0.027427 0.581597 0.603973 0.450804
C46   C     C_1   0.729393 0.000000 0.500000 0.043531
C47   C     C_2   0.418403 0.027427 0.603973 0.450805
C48   C     C_2   0.972573 0.581597 0.396027 0.450806
C49   C     C_2   0.581596 0.027428 0.396027 0.450805
C50   C     C_2   0.027427 0.418403 0.396027 0.450805
C51   C     C_2   0.418403 0.972572 0.396027 0.450806
C52   C     C_1   0.000000 0.729393 0.500000 0.043531
C53   C     C_1   0.270607 1.000000 0.500000 0.043531
C54   C     C_1   0.500000 0.728429 1.000000 0.035725
C55   C     C_1   0.271571 0.500000 0.000000 0.035725
C56   C     C_1   0.500000 0.271571 0.000000 0.035725
C57   C     C_R   0.086806 0.500000 0.000000 0.891822
C58   C     C_1   0.728429 0.500000 1.000000 0.035725
C59   C     C_1   1.000000 0.228429 0.500000 0.035725
C60   C     C_1   0.771571 0.000000 0.500000 0.035725
C61   C     C_1   1.000000 0.771571 0.500000 0.035725
C62   C     C_1   0.228429 1.000000 0.500000 0.035725
C63   C     C_1   0.500000 0.678638 1.000000 0.028434
C64   C     C_1   0.321362 0.500000 0.000000 0.028434
C65   C     C_1   0.500000 0.321362 0.000000 0.028434
C66   C     C_1   0.678638 0.500000 1.000000 0.028434
C67   C     C_1   1.000000 0.178638 0.500000 0.028434
C68   C     C_R   0.500000 0.086806 0.000000 0.891822
C69   C     C_1   0.821362 0.000000 0.500000 0.028434
C70   C     C_1   0.000000 0.821362 0.500000 0.028434
C71   C     C_1   0.178638 1.000000 0.500000 0.028434
C72   C     C_1   0.500000 0.636458 1.000000 -0.178749
C73   C     C_1   0.363542 0.500000 0.000000 -0.178749
C74   C     C_1   0.500000 0.363542 0.000000 -0.178749
C75   C     C_1   0.636458 0.500000 1.000000 -0.178749
C76   C     C_1   1.000000 0.136458 0.500000 -0.178749
C77   C     C_1   0.863542 0.000000 0.500000 -0.178749
C78   C     C_1   0.000000 0.863542 0.500000 -0.178749
C79   C     C_R   0.913194 0.500000 0.000000 0.891823
C80   C     C_1   0.136458 1.000000 0.500000 -0.178749
C81   C     C_R   0.414182 0.500000 0.000000 0.876859
C82   C     C_R   0.500000 0.414182 0.000000 0.876859
C83   C     C_R   0.585818 0.500000 1.000000 0.876858
C84   C     C_R   0.500000 0.585818 1.000000 0.876858
C85   C     C_R   0.914182 0.000000 0.500000 0.876859
C86   C     C_R   0.000000 0.914182 0.500000 0.876859
C87   C     C_R   0.085818 1.000000 0.500000 0.876858
C88   C     C_R   1.000000 0.085818 0.500000 0.876858
C89   C     C_R   0.500000 1.000000 0.067968 0.869769
C90   C     C_R   1.000000 0.413194 0.500000 0.891822
C91   C     C_R   0.000000 0.500000 0.067968 0.869769
C92   C     C_R   0.500000 1.000000 0.932032 0.869770
C93   C     C_R   0.000000 0.500000 0.932032 0.869769
C94   C     C_R   1.000000 0.500000 0.567968 0.869769
C95   C     C_R   0.500000 1.000000 0.567968 0.869769
C96   C     C_R   0.000000 0.500000 0.432032 0.869770
C97   C     C_R   0.500000 0.000000 0.432032 0.869769
C98   C     C_R   0.485539 0.960353 0.123562 -0.075786
C99   C     C_R   0.039647 0.485539 0.123562 -0.075786
C100  C     C_R   0.514461 0.039646 0.123562 -0.075786
C101  C     C_R   0.586806 0.000000 0.500000 0.891822
C102  C     C_R   0.960353 0.514461 0.123562 -0.075786
C103  C     C_R   0.485539 0.039647 0.876438 -0.075786
C104  C     C_R   0.039646 0.514461 0.876438 -0.075786
C105  C     C_R   0.514461 0.960353 0.876438 -0.075786
C106  C     C_R   0.960353 0.485539 0.876438 -0.075786
C107  C     C_R   0.985539 0.460353 0.623562 -0.075785
C108  C     C_R   0.539646 0.985539 0.623562 -0.075786
C109  C     C_R   0.014461 0.539647 0.623562 -0.075785
C110  C     C_R   0.460353 0.014461 0.623562 -0.075785
C111  C     C_R   0.985539 0.539646 0.376438 -0.075786
C112  C     C_R   1.000000 0.586806 0.500000 0.891822
C113  C     C_R   0.539646 0.014461 0.376438 -0.075786
C114  C     C_R   0.014461 0.460353 0.376438 -0.075785
C115  C     C_R   0.460353 0.985539 0.376438 -0.075786
C116  C     C_R   0.484137 0.961094 0.159876 0.191145
C117  C     C_R   0.038907 0.484138 0.159876 0.191145
C118  C     C_R   0.515862 0.038906 0.159876 0.191145
C119  C     C_R   0.961093 0.515862 0.159876 0.191145
C120  C     C_R   0.484138 0.038906 0.840124 0.191145
C121  C     C_R   0.038906 0.515863 0.840124 0.191145
C122  C     C_R   0.515862 0.961093 0.840124 0.191145
C123  C     C_R   0.413194 0.000000 0.500000 0.891823
C124  C     C_R   0.961093 0.484138 0.840124 0.191145
C125  C     C_R   0.984138 0.461093 0.659876 0.191145
C126  C     C_R   0.538906 0.984138 0.659876 0.191145
C127  C     C_R   0.015862 0.538907 0.659876 0.191145
C128  C     C_R   0.461093 0.015862 0.659876 0.191145
C129  C     C_R   0.984138 0.538906 0.340124 0.191145
C130  C     C_R   0.538906 0.015862 0.340124 0.191145
C131  C     C_R   0.015862 0.461093 0.340124 0.191145
C132  C     C_R   0.461093 0.984138 0.340124 0.191145
C133  C     C_R   0.500000 0.000000 0.177680 -0.115016
C134  C     C_1   0.500000 0.770606 1.000000 0.043531
C135  C     C_R   0.000000 0.500000 0.177680 -0.115016
C136  C     C_R   0.500000 1.000000 0.822320 -0.115016
C137  C     C_R   1.000000 0.500000 0.822320 -0.115016
C138  C     C_R   1.000000 0.500000 0.677680 -0.115016
C139  C     C_R   0.500000 1.000000 0.677680 -0.115016
C140  C     C_R   0.000000 0.500000 0.322320 -0.115016
C141  C     C_R   0.500000 0.000000 0.322320 -0.115016
C142  C     C_R   0.500000 1.000000 0.105647 -0.257995
C143  C     C_R   1.000000 0.500000 0.105647 -0.257995
C144  C     C_R   0.500000 1.000000 0.894354 -0.257995
H1    H     H_    0.454918 0.921123 0.079415 0.066149
H2    H     H_    0.578877 0.954918 0.579415 0.066149
H3    H     H_    0.045082 0.578877 0.579415 0.066149
H4    H     H_    0.421123 0.045082 0.579415 0.066149
H5    H     H_    0.954918 0.578877 0.420585 0.066149
H6    H     H_    0.578877 0.045082 0.420585 0.066149
H7    H     H_    0.045082 0.421122 0.420585 0.066149
H8    H     H_    0.421123 0.954918 0.420585 0.066150
H9    H     H_    0.078877 0.454918 0.079414 0.066149
H10   H     H_    0.545082 0.078877 0.079414 0.066149
H11   H     H_    0.921122 0.545082 0.079415 0.066149
H12   H     H_    0.454918 0.078877 0.920585 0.066149
H13   H     H_    0.078877 0.545082 0.920585 0.066149
H14   H     H_    0.545082 0.921122 0.920585 0.066149
H15   H     H_    0.921123 0.454918 0.920585 0.066150
H16   H     H_    0.954918 0.421123 0.579415 0.066149
I1    I     I_    0.453493 0.905870 0.188439 -0.166804
I2    I     I_    0.594130 0.953493 0.688439 -0.166804
I3    I     I_    0.046506 0.594130 0.688439 -0.166804
I4    I     I_    0.405870 0.046506 0.688439 -0.166804
I5    I     I_    0.953494 0.594130 0.311561 -0.166804
I6    I     I_    0.594129 0.046507 0.311561 -0.166804
I7    I     I_    0.046506 0.405870 0.311561 -0.166804
I8    I     I_    0.405870 0.953493 0.311561 -0.166804
I9    I     I_    0.094130 0.453493 0.188439 -0.166804
I10   I     I_    0.546507 0.094130 0.188439 -0.166804
I11   I     I_    0.905870 0.546506 0.188439 -0.166804
I12   I     I_    0.453494 0.094130 0.811561 -0.166804
I13   I     I_    0.094129 0.546507 0.811561 -0.166804
I14   I     I_    0.546507 0.905870 0.811561 -0.166804
I15   I     I_    0.905870 0.453493 0.811561 -0.166804
I16   I     I_    0.953493 0.405870 0.688439 -0.166804
N1    N     N_R   0.528391 0.971642 0.232837 -0.117681
N2    N     N_R   0.471642 0.971609 0.732837 -0.117681
N3    N     N_R   0.971609 0.528358 0.732837 -0.117681
N4    N     N_R   0.528358 0.028391 0.732837 -0.117681
N5    N     N_R   0.028391 0.528358 0.267163 -0.117681
N6    N     N_R   0.471642 0.028391 0.267163 -0.117681
N7    N     N_R   0.971609 0.471642 0.267163 -0.117681
N8    N     N_R   0.528358 0.971609 0.267163 -0.117681
N9    N     N_R   0.971642 0.471609 0.232837 -0.117681
N10   N     N_R   0.471609 0.028358 0.232837 -0.117681
N11   N     N_R   0.028358 0.528391 0.232837 -0.117681
N12   N     N_R   0.528391 0.028358 0.767163 -0.117681
N13   N     N_R   0.971642 0.528391 0.767163 -0.117681
N14   N     N_R   0.471609 0.971642 0.767163 -0.117681
N15   N     N_R   0.028358 0.471609 0.767163 -0.117681
N16   N     N_R   0.028391 0.471642 0.732837 -0.117681
O1    O     O_R   0.535610 0.936800 0.000040 -0.597044
O2    O     O_R   0.563200 0.035610 0.500040 -0.597045
O3    O     O_R   0.964390 0.563200 0.500040 -0.597044
O4    O     O_R   0.436800 0.964390 0.500040 -0.597044
O5    O     O_R   0.035610 0.563200 0.499960 -0.597045
O6    O     O_R   0.563200 0.964390 0.499960 -0.597044
O7    O     O_R   0.964390 0.436800 0.499960 -0.597044
O8    O     O_R   0.436800 0.035610 0.499960 -0.597044
O9    O     O_R   0.535610 0.999940 0.050970 -0.609953
O10   O     O_R   0.000060 0.535610 0.050970 -0.609953
O11   O     O_R   0.464390 0.000060 0.050970 -0.609953
O12   O     O_R   0.063200 0.535610 0.000040 -0.597045
O13   O     O_R   0.999940 0.464390 0.050970 -0.609953
O14   O     O_R   0.535610 0.000060 0.949030 -0.609953
O15   O     O_R   0.000060 0.464390 0.949030 -0.609953
O16   O     O_R   0.464390 0.999940 0.949030 -0.609952
O17   O     O_R   0.999940 0.535610 0.949030 -0.609953
O18   O     O_R   0.035610 0.499940 0.550970 -0.609953
O19   O     O_R   0.500060 0.035610 0.550970 -0.609953
O20   O     O_R   0.964390 0.500060 0.550970 -0.609953
O21   O     O_R   0.499940 0.964390 0.550970 -0.609953
O22   O     O_R   0.035610 0.500060 0.449030 -0.609953
O23   O     O_R   0.464390 0.063200 0.000040 -0.597044
O24   O     O_R   0.500060 0.964390 0.449030 -0.609953
O25   O     O_R   0.964390 0.499940 0.449030 -0.609952
O26   O     O_R   0.499940 0.035610 0.449030 -0.609953
O27   O     O_R   0.436800 0.499970 0.028810 -0.587310
O28   O     O_R   0.500030 0.436800 0.028810 -0.587310
O29   O     O_R   0.563200 0.500030 0.028810 -0.587309
O30   O     O_R   0.499970 0.563200 0.028810 -0.587309
O31   O     O_R   0.436800 0.500030 0.971190 -0.587309
O32   O     O_R   0.500030 0.563200 0.971190 -0.587310
O33   O     O_R   0.563200 0.499970 0.971190 -0.587310
O34   O     O_R   0.936800 0.464390 0.000040 -0.597044
O35   O     O_R   0.499970 0.436800 0.971190 -0.587309
O36   O     O_R   0.936800 0.999970 0.528810 -0.587310
O37   O     O_R   0.000030 0.936800 0.528810 -0.587310
O38   O     O_R   0.063200 0.000030 0.528810 -0.587309
O39   O     O_R   0.999970 0.063200 0.528810 -0.587309
O40   O     O_R   0.936800 0.000030 0.471190 -0.587309
O41   O     O_R   0.000030 0.063200 0.471190 -0.587310
O42   O     O_R   0.063200 0.999970 0.471190 -0.587310
O43   O     O_R   0.999970 0.936800 0.471190 -0.587309
O44   O     O_2   0.483353 0.880361 0.114223 -0.515814
O45   O     O_R   0.535610 0.063200 0.999960 -0.597045
O46   O     O_2   0.119639 0.483353 0.114223 -0.515814
O47   O     O_2   0.516647 0.119639 0.114223 -0.515814
O48   O     O_2   0.880361 0.516647 0.114223 -0.515813
O49   O     O_2   0.483353 0.119639 0.885777 -0.515814
O50   O     O_2   0.119639 0.516648 0.885777 -0.515814
O51   O     O_2   0.516647 0.880361 0.885777 -0.515814
O52   O     O_2   0.880361 0.483352 0.885777 -0.515814
O53   O     O_2   0.983353 0.380361 0.614223 -0.515813
O54   O     O_2   0.619639 0.983353 0.614223 -0.515814
O55   O     O_2   0.016647 0.619639 0.614223 -0.515813
O56   O     O_R   0.063200 0.464390 0.999960 -0.597044
O57   O     O_2   0.380361 0.016647 0.614223 -0.515813
O58   O     O_2   0.983353 0.619639 0.385777 -0.515814
O59   O     O_2   0.619639 0.016647 0.385777 -0.515813
O60   O     O_2   0.016647 0.380361 0.385777 -0.515813
O61   O     O_2   0.380361 0.983353 0.385777 -0.515814
O62   O     O_R   0.464390 0.936800 0.999960 -0.597044
O63   O     O_R   0.936800 0.535610 0.999960 -0.597044
O64   O     O_R   0.035610 0.436800 0.500040 -0.597044
Zn1   Zn    Zn3+2 0.547570 0.000000 0.000000 1.003453
Zn2   Zn    Zn3+2 0.500000 0.500000 0.961560 1.017618
Zn3   Zn    Zn3+2 0.000000 0.000000 0.538440 1.017618
Zn4   Zn    Zn3+2 0.000000 0.000000 0.461560 1.017618
Zn5   Zn    Zn3+2 0.000000 0.547570 0.000000 1.003453
Zn6   Zn    Zn3+2 0.452430 0.000000 0.000000 1.003454
Zn7   Zn    Zn3+2 0.000000 0.452430 0.000000 1.003454
Zn8   Zn    Zn3+2 0.047570 0.500000 0.500000 1.003454
Zn9   Zn    Zn3+2 0.500000 0.047570 0.500000 1.003453
Zn10  Zn    Zn3+2 0.952430 0.500000 0.500000 1.003454
Zn11  Zn    Zn3+2 0.500000 0.952430 0.500000 1.003454
Zn12  Zn    Zn3+2 0.500000 0.500000 0.038440 1.017618

loop_
_geom_bond_atom_site_label_1
_geom_bond_atom_site_label_2
_ccdc_geom_bond_type
C61   C70   S    
C3    C104  A    
C49   C113  S    
C4    C109  A    
C94   O20   A    
C70   C78   T    
C114  C131  A    
C39   O49   D    
C89   O9    A    
C103  C120  A    
O19   Zn9   S    
C34   O44   D    
C103  C144  A    
C45   O55   D    
C105  C144  A    
N5    N11   A    
O36   Zn3   S    
C96   O22   A    
C34   H1    S    
C112  O3    A    
C124  I15   S    
C26   C134  S    
O42   Zn4   S    
C23   C112  S    
O2    Zn9   S    
C87   O42   A    
C41   C105  S    
C30   C35   S    
C41   O51   D    
C97   O26   A    
C9    N7    A    
C17   C26   T    
C108  C126  A    
C99   C143  A    
C11   C138  S    
O33   Zn2   S    
C80   C87   S    
C52   C61   T    
N7    N9    A    
N2    N14   A    
C9    C140  S    
C45   C109  S    
C37   O47   D    
C15   C135  S    
C5    C110  A    
C118  I10   S    
C7    C115  A    
C56   C65   S    
C54   C134  T    
C21   C30   T    
C128  I4    S    
O26   Zn9   S    
O16   Zn6   S    
C35   C59   T    
C11   N16   A    
N6    N10   A    
C121  C137  A    
O3    Zn10  S    
C130  C141  A    
C130  I6    S    
C24   C29   S    
C6    C114  A    
C49   O59   D    
C131  C140  A    
N4    N12   A    
O35   Zn2   S    
C59   C67   S    
C69   C77   T    
C50   H7    S    
C111  C129  A    
C6    C111  A    
C32   C52   S    
C98   C116  A    
C42   H15   S    
O43   Zn4   S    
C31   C46   S    
C105  C122  A    
O1    Zn1   S    
C64   C73   T    
C13   C28   S    
C8    C141  S    
C127  C138  A    
O41   Zn4   S    
C76   C88   S    
C79   O34   A    
C44   O54   D    
C115  C132  A    
O56   Zn7   S    
C78   C86   S    
O20   Zn10  S    
C47   C110  S    
C48   H5    S    
C98   C142  A    
O18   Zn8   S    
O23   Zn6   S    
C85   O40   A    
C38   H11   S    
C74   C82   S    
C57   O56   A    
C16   C133  S    
C73   C81   S    
C71   C80   T    
C91   O13   A    
C58   C66   S    
C36   H9    S    
O7    Zn10  S    
C91   C143  S    
C21   C90   S    
C44   C108  S    
C3    C106  A    
C33   C53   S    
C81   O31   A    
C4    C107  A    
C121  I13   S    
C126  C139  A    
O11   Zn6   S    
C113  C130  A    
N15   N16   A    
C10   N2    A    
O63   Zn5   S    
C40   H13   S    
C9    N5    A    
C107  C125  A    
C43   H16   S    
C22   C31   T    
C131  I7    S    
C101  O6    A    
C120  I12   S    
C90   O7    A    
O13   Zn7   S    
C122  I14   S    
O39   Zn3   S    
C97   O24   A    
C119  C135  A    
C65   C74   T    
O27   Zn12  S    
C120  C136  A    
C14   N14   A    
C89   C142  S    
C51   O61   D    
C1    O1    A    
O24   Zn11  S    
C92   O16   A    
C8    N6    A    
C99   C117  A    
O30   Zn12  S    
C53   C62   T    
C123  O8    A    
C18   C57   S    
C44   H2    S    
N3    N13   A    
C87   O38   A    
C101  O2    A    
C55   C64   S    
C88   O39   A    
C25   C33   T    
C7    C113  A    
C82   O28   A    
C19   C68   S    
C3    C93   S    
C85   O36   A    
C43   C107  S    
C63   C72   T    
C39   C103  S    
C19   C28   T    
C25   C123  S    
C122  C136  A    
C72   C84   S    
C118  C133  A    
C4    C94   S    
C49   H6    S    
O8    Zn9   S    
C89   O11   A    
C42   C106  S    
C51   H8    S    
C94   O18   A    
C22   C101  S    
C12   N13   A    
C2    C27   S    
C93   O17   A    
C95   O21   A    
C123  O4    A    
C38   O48   D    
C11   N3    A    
C102  C143  A    
O40   Zn4   S    
C93   O15   A    
O10   Zn5   S    
O37   Zn3   S    
C112  O5    A    
C75   C83   S    
C50   O60   D    
C1    O62   A    
O32   Zn2   S    
C83   O33   A    
O22   Zn8   S    
C132  C141  A    
C104  C121  A    
C12   N15   A    
C90   O64   A    
C47   H4    S    
C2    C55   T    
C127  I3    S    
C7    C97   S    
C20   C79   S    
C46   C60   T    
C45   H3    S    
C86   O37   A    
C1    C17   S    
C37   H10   S    
O14   Zn1   S    
O28   Zn12  S    
C18   C27   T    
C132  I8    S    
C36   O46   D    
O31   Zn2   S    
O12   Zn5   S    
C68   O23   A    
C117  C135  A    
O17   Zn5   S    
O9    Zn1   S    
C116  C133  A    
C125  C138  A    
O5    Zn8   S    
N1    N8    A    
O15   Zn7   S    
C82   O35   A    
O21   Zn11  S    
C6    C96   S    
C86   O43   A    
C16   N10   A    
C129  I5    S    
C88   O41   A    
C68   O45   A    
C10   N4    A    
C23   C32   T    
C13   C56   T    
O64   Zn8   S    
C40   C104  S    
C95   O19   A    
O6    Zn11  S    
C38   C102  S    
O29   Zn12  S    
C100  C142  A    
C84   O32   A    
O45   Zn1   S    
C8    N8    A    
C5    C95   S    
C129  C140  A    
C15   N11   A    
C60   C69   S    
C43   O53   D    
C66   C75   T    
C57   O12   A    
C42   O52   D    
C34   C98   S    
C109  C127  A    
C62   C71   S    
C36   C99   S    
C14   C136  S    
C48   O58   D    
C16   N1    A    
C92   C144  S    
C128  C139  A    
C47   O57   D    
C91   O10   A    
C92   O14   A    
C10   C139  S    
C51   C115  S    
C39   H12   S    
C77   C85   S    
C41   H14   S    
C83   O29   A    
C117  I9    S    
C48   C111  S    
C100  C118  A    
C124  C137  A    
O62   Zn6   S    
C20   C29   T    
C24   C58   T    
O25   Zn10  S    
C54   C63   S    
C110  C128  A    
C106  C124  A    
C79   O63   A    
C12   C137  S    
O38   Zn3   S    
O4    Zn11  S    
C84   O30   A    
C67   C76   T    
C50   C114  S    
C14   N12   A    
C126  I2    S    
C125  I16   S    
O34   Zn7   S    
C15   N9    A    
C37   C100  S    
C40   O50   D    
C102  C119  A    
C96   O25   A    
C119  I11   S    
C116  I1    S    
C5    C108  A    
C81   O27   A    
