data_mof_unit_41785.cif
_audit_creation_date              2012-12-10T16:51:18-0500
_audit_creation_method            fapswitch 2.2
_symmetry_space_group_name_H-M    P1
_symmetry_Int_Tables_number       1
_space_group_crystal_system       triclinic
_cell_length_a                    27.801496
_cell_length_b                    8.634692
_cell_length_c                    7.516695
_cell_angle_alpha                 103.311282
_cell_angle_beta                  94.207368
_cell_angle_gamma                 92.307501
_cell_volume                      1748.18744793

loop_
_atom_site_label
_atom_site_type_symbol
_atom_type_description
_atom_site_fract_x
_atom_site_fract_y
_atom_site_fract_z
_atom_type_partial_charge
C1    C     C_R   0.498362 0.199867 0.453111 0.858963
C2    C     C_R   0.501638 0.800133 0.546889 0.859297
C3    C     C_R   0.102558 0.516264 0.508454 -0.188398
C4    C     C_R   0.897616 0.494640 0.483922 -0.179375
C5    C     C_R   0.126047 0.377418 0.428671 -0.073662
C6    C     C_R   0.873910 0.630394 0.570539 -0.074701
C7    C     C_R   0.098683 0.242355 0.324500 0.449187
C8    C     C_R   0.901244 0.766703 0.671851 0.434478
C9    C     C_R   0.130491 0.658668 0.588615 -0.108575
C10   C     C_R   0.869811 0.353381 0.396084 -0.128297
C11   C     C_R   0.355022 0.508767 0.509943 -0.029829
C12   C     C_R   0.644985 0.491461 0.489881 -0.029664
C13   C     C_R   0.972546 0.359875 0.412124 -0.081231
C14   C     C_R   0.027738 0.653833 0.575144 -0.057662
C15   C     C_R   0.976375 0.642614 0.580016 0.049983
C16   C     C_R   0.023867 0.370548 0.411753 0.062926
C17   C     C_R   0.948963 0.499304 0.489987 -0.011618
C18   C     C_R   0.051273 0.513202 0.501659 -0.005785
C19   C     C_R   0.944343 0.212065 0.347441 0.336729
C20   C     C_R   0.055734 0.802858 0.628404 0.335984
C21   C     C_R   0.893418 0.212396 0.330942 0.279097
C22   C     C_R   0.107126 0.802228 0.642418 0.250122
C23   C     C_R   0.407693 0.501960 0.502824 0.759883
C24   C     C_R   0.592307 0.497950 0.497160 0.759742
C25   C     C_R   0.048536 0.246417 0.308772 -0.261839
C26   C     C_R   0.951593 0.768184 0.681799 -0.246955
C27   C     C_2   0.497123 0.031330 0.427347 -0.363563
C28   C     C_2   0.502876 0.968670 0.572654 -0.363936
C29   C     C_R   0.176758 0.380479 0.446244 0.582843
C30   C     C_R   0.823071 0.624043 0.559630 0.580348
C31   C     C_R   0.181581 0.655993 0.595868 0.569095
C32   C     C_R   0.818762 0.353692 0.391660 0.557778
C33   C     C_R   0.284410 0.537374 0.684747 -0.096859
C34   C     C_R   0.715606 0.470081 0.315323 -0.099854
C35   C     C_R   0.334355 0.531920 0.678788 -0.219700
C36   C     C_R   0.665662 0.473753 0.321567 -0.221606
C37   C     C_R   0.324898 0.494119 0.347792 -0.211458
C38   C     C_R   0.675112 0.501452 0.651070 -0.213841
C39   C     C_R   0.275099 0.500412 0.354180 -0.101097
C40   C     C_R   0.724950 0.496427 0.644310 -0.102957
C41   C     C_R   0.254646 0.520765 0.522277 0.343755
C42   C     C_R   0.745420 0.482454 0.476864 0.346058
Cu1   Cu    Cu3+1 0.505380 0.517380 0.684380 1.015337
Cu2   Cu    Cu3+1 0.494620 0.482620 0.315620 1.015847
H1    H     H_    0.339670 0.477344 0.215855 0.141192
H2    H     H_    0.660309 0.513651 0.782506 0.141717
H3    H     H_    0.252214 0.487907 0.228118 0.136168
H4    H     H_    0.747843 0.505379 0.769655 0.136522
H5    H     H_    0.643369 0.463365 0.194843 0.151969
H6    H     H_    0.356666 0.545653 0.806144 0.151827
H7    H     H_    0.731194 0.459489 0.185472 0.136095
H8    H     H_    0.268795 0.552813 0.815080 0.135867
H9    H     H_    0.029653 0.155929 0.203952 0.159517
H10   H     H_    0.970659 0.866353 0.778743 0.179188
H11   H     H_    0.491427 0.958691 0.287882 0.209679
H12   H     H_    0.508572 0.041308 0.712119 0.209614
N1    N     N_R   0.203114 0.518559 0.525628 -0.485620
N2    N     N_R   0.796981 0.487265 0.473064 -0.480107
N3    N     N_2   0.486510 0.456430 0.038510 0.128126
N4    N     N_2   0.513490 0.543570 0.961490 0.127923
O1    O     O_R   0.503500 0.286120 0.619780 -0.523874
O2    O     O_R   0.496500 0.713880 0.380220 -0.523614
O3    O     O_R   0.494410 0.256780 0.308360 -0.596768
O4    O     O_R   0.505590 0.743220 0.691640 -0.597390
O5    O     O_R   0.434810 0.514700 0.655690 -0.570070
O6    O     O_R   0.565190 0.485300 0.344310 -0.569716
O7    O     O_R   0.425720 0.485350 0.344280 -0.628625
O8    O     O_R   0.574280 0.514650 0.655720 -0.628891
O9    O     O_2   0.199974 0.246554 0.385394 -0.465233
O10   O     O_2   0.799402 0.753460 0.634053 -0.487065
O11   O     O_2   0.790787 0.221335 0.310960 -0.520590
O12   O     O_2   0.209845 0.789263 0.669769 -0.504188
O13   O     O_3   0.469620 0.317272 0.925987 -0.479128
C43   C     C_3   0.422135 0.285578 0.966319 0.191501
H13   H     H_    0.401173 0.394609 0.987383 0.120892
H14   H     H_    0.422358 0.235442 0.089445 0.166242
C44   C     C_3   0.396486 0.162284 0.806072 -0.835457
H15   H     H_    0.415170 0.049019 0.785526 0.246932
H16   H     H_    0.358600 0.138823 0.834763 0.222409
H17   H     H_    0.396237 0.206642 0.678593 0.251515
O14   O     O_3   0.530390 0.682710 0.074057 -0.479220
C45   C     C_3   0.577752 0.715070 0.032881 0.193526
H18   H     H_    0.577275 0.766100 0.910392 0.166366
H19   H     H_    0.598774 0.606198 0.010226 0.120482
C46   C     C_3   0.603566 0.837678 0.193398 -0.840369
H20   H     H_    0.604022 0.792512 0.320367 0.251593
H21   H     H_    0.641384 0.861460 0.164150 0.221243
H22   H     H_    0.584862 0.950935 0.215218 0.247527
O15   O     O_3   0.121593 0.117988 0.217086 -0.560032
C47   C     C_3   0.102659 0.967100 0.231531 0.082346
H23   H     H_    0.073602 0.921328 0.120553 0.103110
H24   H     H_    0.087962 0.970620 0.365783 0.208491
C48   C     C_3   0.142427 0.849834 0.209096 -0.677410
H25   H     H_    0.171883 0.890496 0.320212 0.302959
H26   H     H_    0.127542 0.730288 0.216085 0.177922
H27   H     H_    0.157438 0.839992 0.074466 0.229737
O16   O     O_3   0.878580 0.889735 0.780844 -0.570555
C49   C     C_3   0.886636 0.034825 0.727467 0.053009
H28   H     H_    0.901165 0.020736 0.590911 0.213327
H29   H     H_    0.912388 0.113809 0.831080 0.118397
C50   C     C_3   0.839594 0.118859 0.724977 -0.628937
H30   H     H_    0.821995 0.122216 0.853568 0.240900
H31   H     H_    0.847109 0.243304 0.713990 0.173235
H32   H     H_    0.814631 0.055828 0.606031 0.299569
O17   O     O_3   0.867106 0.069246 0.272146 -0.695659
H33   H     H_    0.851444 0.070208 0.149612 0.364212
O18   O     O_3   0.134420 0.943977 0.685266 -0.710930
H34   H     H_    0.148166 0.956411 0.813611 0.358220
O19   O     O_3   0.966038 0.067813 0.342450 -0.563071
C51   C     C_3   0.955862 0.955132 0.171754 0.119126
H35   H     H_    0.989774 0.929979 0.105106 0.094821
H36   H     H_    0.931386 0.996235 0.071770 0.161804
C52   C     C_3   0.936182 0.796683 0.201113 -0.665780
H37   H     H_    0.905806 0.813357 0.289900 0.272384
H38   H     H_    0.923332 0.716123 0.066933 0.194579
H39   H     H_    0.965450 0.739439 0.265566 0.228414
O20   O     O_3   0.031803 0.942786 0.627086 -0.573193
C53   C     C_3   0.051879 0.080202 0.757386 0.145389
H40   H     H_    0.077842 0.145829 0.691644 0.209015
H41   H     H_    0.069579 0.051351 0.882030 0.155608
C54   C     C_3   0.012760 0.193195 0.820202 -0.866580
H42   H     H_    0.990994 0.145822 0.915107 0.195933
H43   H     H_    0.029525 0.311457 0.894756 0.217619
H44   H     H_    0.988985 0.208412 0.701588 0.287322

loop_
_geom_bond_atom_site_label_1
_geom_bond_atom_site_label_2
_ccdc_geom_bond_type
C48   H25   S    
C8    C26   A    
O13   C43   S    
C14   C18   A    
Cu2   O6    S    
C34   C42   A    
C32   N2    A    
Cu1   Cu2   S    
C42   N2    S    
C53   H41   S    
O16   C49   S    
C28   H12   S    
C39   C41   A    
C44   H15   S    
C33   H8    S    
C34   H7    S    
C50   H30   S    
C43   H14   S    
C19   C21   A    
C25   H9    S    
C27   H11   S    
C9    C22   A    
C44   H17   S    
Cu2   N3    S    
C22   O18   S    
C7    O15   S    
C1    O3    A    
C3    C18   A    
C40   H4    S    
C23   O7    A    
C11   C37   A    
C53   H40   S    
C54   H44   S    
C51   H35   S    
Cu1   O8    S    
C43   C44   S    
O18   H34   S    
C12   C36   A    
N3    O13   S    
C29   O9    S    
C24   O6    A    
C52   H39   S    
C40   C42   A    
N3    N4    D    
C48   H26   S    
C26   H10   S    
C20   O20   S    
C30   O10   S    
C2    O4    A    
Cu1   O4    S    
O14   C45   S    
C32   O11   S    
C5    C29   A    
C44   H16   S    
Cu2   O3    S    
C38   H2    S    
C43   H13   S    
C13   C19   A    
C46   H21   S    
C14   C20   A    
C4    C6    A    
C5    C7    A    
C9    C31   A    
C15   C26   A    
C6    C8    A    
Cu2   O2    S    
C46   H20   S    
C53   C54   S    
C8    O16   S    
C3    C9    A    
N4    O14   S    
C47   H24   S    
Cu1   O5    S    
C35   H6    S    
C51   C52   S    
C54   H42   S    
Cu1   N4    S    
C4    C17   A    
C16   C18   A    
C31   O12   S    
C6    C30   A    
C29   N1    A    
C49   H28   S    
C48   H27   S    
C49   H29   S    
C4    C10   A    
C45   C46   S    
Cu1   O1    S    
C47   C48   S    
C39   H3    S    
C52   H37   S    
C46   H22   S    
C16   C25   A    
C15   C17   A    
C20   C22   A    
C3    C5    A    
C1    O1    A    
C10   C21   A    
C50   H32   S    
C49   C50   S    
O17   H33   S    
C12   C24   S    
C45   H19   S    
C7    C25   A    
C13   C17   A    
C33   C41   A    
C23   O5    A    
C11   C35   A    
C41   N1    S    
C37   C39   A    
O19   C51   S    
C38   C40   A    
C31   N1    A    
C47   H23   S    
C19   O19   S    
C30   N2    A    
C11   C23   S    
C33   C35   A    
C34   C36   A    
C12   C38   A    
C51   H36   S    
C54   H43   S    
C24   O8    A    
C10   C32   A    
C50   H31   S    
C45   H18   S    
C13   C16   A    
C27   C28   D    
C1    C27   S    
C14   C15   A    
Cu2   O7    S    
C2    C28   S    
O15   C47   S    
O20   C53   S    
C37   H1    S    
C21   O17   S    
C36   H5    S    
C2    O2    A    
C52   H38   S    
