data_mof_unit_15460.cif
_audit_creation_date              2012-12-10T20:34:50-0500
_audit_creation_method            fapswitch 2.2
_symmetry_space_group_name_H-M    P1
_symmetry_Int_Tables_number       1
_space_group_crystal_system       triclinic
_cell_length_a                    10.634582
_cell_length_b                    10.656088
_cell_length_c                    9.857759
_cell_angle_alpha                 89.97248
_cell_angle_beta                  90.111979
_cell_angle_gamma                 90.057796
_cell_volume                      1117.10840392

loop_
_atom_site_label
_atom_site_type_symbol
_atom_type_description
_atom_site_fract_x
_atom_site_fract_y
_atom_site_fract_z
_atom_type_partial_charge
C1    C     C_R   0.503983 0.259853 0.500017 0.881388
C2    C     C_3   0.878628 0.501004 0.499223 0.163192
C3    C     C_3   0.926159 0.621811 0.570055 -0.417411
C4    C     C_3   0.928222 0.499045 0.351022 -0.391742
C5    C     C_R   0.535009 0.063923 0.622255 0.135034
C6    C     C_R   0.525854 0.128579 0.499903 -0.111647
C7    C     C_R   0.543607 0.064824 0.376967 -0.236460
C8    C     C_R   0.544642 0.935213 0.377016 -0.238869
C9    C     C_R   0.528014 0.871183 0.500020 -0.110280
C10   C     C_R   0.536819 0.935920 0.622413 0.122468
C11   C     C_3   0.458128 0.927812 0.747672 -0.481338
C12   C     C_R   0.257678 0.499915 0.499674 0.828368
C13   C     C_3   0.455074 0.070084 0.746664 -0.489696
C14   C     C_R   0.438327 0.407978 0.071111 0.220704
C15   C     C_R   0.570121 0.583962 0.072121 -0.141972
C16   C     C_R   0.570102 0.583997 0.928064 -0.142854
C17   C     C_R   0.438408 0.407940 0.928466 0.223197
C18   C     C_3   0.301150 0.380417 0.922157 -0.525414
C19   C     C_3   0.300917 0.380880 0.076020 -0.522455
C20   C     C_R   0.505178 0.740034 0.499975 0.870255
C21   C     C_R   0.742326 0.499804 0.499849 0.832934
C22   C     C_3   0.072468 0.386410 0.577152 -0.449102
C23   C     C_3   0.928377 0.384177 0.575496 -0.409759
C24   C     C_3   0.071706 0.625250 0.569673 -0.051826
C25   C     C_3   0.070778 0.495388 0.350909 -0.406666
C26   C     C_3   0.121174 0.503174 0.498804 0.149688
H1    H     H_    0.105815 0.388115 0.684180 0.174992
H2    H     H_    0.895908 0.584141 0.295291 0.171068
H3    H     H_    0.885433 0.704804 0.517285 0.155702
H4    H     H_    0.546978 0.113716 0.280651 0.170869
H5    H     H_    0.548420 0.886389 0.280734 0.168513
H6    H     H_    0.364891 0.883968 0.729246 0.212620
H7    H     H_    0.511396 0.888424 0.834973 0.196898
H8    H     H_    0.359969 0.109112 0.726194 0.200669
H9    H     H_    0.505676 0.112898 0.833933 0.201501
H10   H     H_    0.624781 0.653268 0.126625 0.138827
H11   H     H_    0.109108 0.298804 0.530102 0.167603
H12   H     H_    0.624733 0.653335 0.873730 0.140794
H13   H     H_    0.246005 0.458846 0.877471 0.212231
H14   H     H_    0.281363 0.286529 0.878001 0.193316
H15   H     H_    0.246193 0.460057 0.119025 0.213028
H16   H     H_    0.280581 0.287401 0.121045 0.197446
H17   H     H_    0.894759 0.296982 0.524784 0.164755
H18   H     H_    0.892983 0.382655 0.681709 0.181741
H19   H     H_    0.104475 0.623133 0.677157 0.146989
H20   H     H_    0.892302 0.625085 0.676821 0.157485
H21   H     H_    0.107417 0.573817 0.287761 0.169490
H22   H     H_    0.102104 0.406066 0.303110 0.177621
H23   H     H_    0.891752 0.415249 0.295930 0.179951
N1    N     N_R   0.499150 0.499140 0.142800 -0.105503
N2    N     N_R   0.499150 0.499180 0.857150 -0.104922
O1    O     O_R   0.500020 0.316790 0.614690 -0.613836
O2    O     O_R   0.500000 0.316760 0.385350 -0.621890
O3    O     O_R   0.314800 0.500000 0.614670 -0.629345
O4    O     O_R   0.314790 0.499960 0.385330 -0.623734
O5    O     O_R   0.500000 0.683240 0.614650 -0.617339
O6    O     O_R   0.499980 0.683210 0.385310 -0.625368
O7    O     O_R   0.685210 0.500040 0.614670 -0.627690
O8    O     O_R   0.685200 0.500000 0.385330 -0.630664
Zn1   Zn    Zn3+2 0.500010 0.500020 0.653130 0.930224
Zn2   Zn    Zn3+2 0.499990 0.499980 0.346870 0.928351
C27   C     C_3   0.122188 0.748554 0.504951 -0.412600
C28   C     C_3   0.097634 0.863545 0.595162 -0.358708
C29   C     C_3   0.151339 0.982804 0.531637 -0.900878
H24   H     H_    0.254031 0.972946 0.514539 0.273093
H25   H     H_    0.104221 0.002460 0.433254 0.260534
H26   H     H_    0.135360 0.063460 0.600728 0.241557
H27   H     H_    0.995063 0.876738 0.610440 0.223756
H28   H     H_    0.141812 0.849182 0.696187 0.211390
H29   H     H_    0.225286 0.741530 0.489313 0.199501
H30   H     H_    0.077963 0.763807 0.404026 0.210226

loop_
_geom_bond_atom_site_label_1
_geom_bond_atom_site_label_2
_ccdc_geom_bond_type
C11   H6    S    
C2    C4    S    
C18   H13   S    
C16   N2    A    
O6    Zn2   S    
C6    C7    A    
O1    Zn1   S    
C9    C10   A    
C25   H21   S    
C9    C20   S    
C5    C13   S    
C25   H22   S    
C19   H16   S    
C4    H23   S    
C20   O5    A    
C29   H24   S    
C17   N2    A    
C2    C21   S    
C17   C18   S    
C20   O6    A    
C21   O7    A    
C7    H4    S    
O3    Zn1   S    
C24   C27   S    
C11   C13   S    
C14   C17   A    
C3    C24   S    
C27   C28   S    
C12   O3    A    
C24   H19   S    
O4    Zn2   S    
C5    C10   A    
C4    H2    S    
C24   C26   S    
C27   H30   S    
C4    C25   S    
C2    C3    S    
C22   H1    S    
C28   H28   S    
C5    C6    A    
C1    O1    A    
C1    O2    A    
O8    Zn2   S    
C12   O4    A    
C7    C8    A    
C10   C11   S    
C14   N1    A    
O7    Zn1   S    
C15   C16   A    
C21   O8    A    
C19   H15   S    
C15   H10   S    
C11   H7    S    
C23   H17   S    
C27   H29   S    
C2    C23   S    
C18   C19   S    
C22   C26   S    
C15   N1    A    
C12   C26   S    
C1    C6    S    
C3    H3    S    
N1    Zn2   S    
C18   H14   S    
C22   C23   S    
C8    C9    A    
C13   H8    S    
N2    Zn1   S    
C3    H20   S    
C25   C26   S    
C28   H27   S    
C22   H11   S    
O2    Zn2   S    
C14   C19   S    
C13   H9    S    
C29   H26   S    
C8    H5    S    
O5    Zn1   S    
C16   H12   S    
C28   C29   S    
C23   H18   S    
C29   H25   S    
