data_mof_unit_5706.cif
_audit_creation_date              2012-12-11T15:41:12-0500
_audit_creation_method            fapswitch 2.2
_symmetry_space_group_name_H-M    P1
_symmetry_Int_Tables_number       1
_space_group_crystal_system       triclinic
_cell_length_a                    19.142868
_cell_length_b                    11.048962
_cell_length_c                    18.622444
_cell_angle_alpha                 90.752167
_cell_angle_beta                  89.942481
_cell_angle_gamma                 90.700638
_cell_volume                      3938.17590967

loop_
_atom_site_label
_atom_site_type_symbol
_atom_type_description
_atom_site_fract_x
_atom_site_fract_y
_atom_site_fract_z
_atom_type_partial_charge
C1    C     C_R   0.727823 0.953729 0.852199 0.543057
C2    C     C_R   0.272140 0.953214 0.147923 0.544330
C3    C     C_R   0.227823 0.453729 0.852199 0.543057
C4    C     C_R   0.772140 0.453214 0.147923 0.544330
C5    C     C_R   0.699302 0.461353 0.040031 0.012386
C6    C     C_R   0.301034 0.463067 0.960904 0.008160
C7    C     C_R   0.199302 0.961353 0.040031 0.012386
C8    C     C_R   0.801034 0.963067 0.960904 0.008160
C9    C     C_R   0.689722 0.432658 0.968007 0.025536
C10   C     C_R   0.310241 0.434476 0.032633 0.025198
C11   C     C_R   0.189722 0.932658 0.968007 0.025536
C12   C     C_R   0.810241 0.934477 0.032633 0.025198
C13   C     C_R   0.777558 0.278402 0.976761 -0.154157
C14   C     C_R   0.219623 0.281537 0.022160 -0.154713
C15   C     C_R   0.277558 0.778402 0.976761 -0.154157
C16   C     C_R   0.719623 0.781537 0.022160 -0.154713
C17   C     C_R   0.787055 0.306763 0.048785 -0.151930
C18   C     C_R   0.210595 0.309510 0.950416 -0.148983
C19   C     C_R   0.287055 0.806763 0.048785 -0.151930
C20   C     C_R   0.710595 0.809510 0.950416 -0.148983
C21   C     C_3   0.622469 0.470259 0.052874 -0.282700
C22   C     C_3   0.378066 0.471993 0.948454 -0.283196
C23   C     C_3   0.122469 0.970259 0.052874 -0.282700
C24   C     C_3   0.878066 0.971993 0.948454 -0.283196
C25   C     C_3   0.612239 0.440843 0.973969 -0.265282
C26   C     C_3   0.387826 0.442751 0.026995 -0.265199
C27   C     C_3   0.112239 0.940843 0.973969 -0.265282
C28   C     C_3   0.887826 0.942751 0.026995 -0.265199
C29   C     C_R   0.728678 0.340782 0.935694 0.018253
C30   C     C_R   0.269802 0.343182 0.064008 0.019699
C31   C     C_R   0.228678 0.840782 0.935694 0.018253
C32   C     C_R   0.769802 0.843182 0.064008 0.019699
C33   C     C_R   0.517679 0.157797 0.414379 0.008944
C34   C     C_R   0.522573 0.159470 0.563506 -0.004000
C35   C     C_R   0.017679 0.657797 0.414379 0.008944
C36   C     C_R   0.022573 0.659470 0.563506 -0.004000
C37   C     C_R   0.545791 0.257176 0.450705 -0.004989
C38   C     C_R   0.546994 0.257154 0.523645 0.025301
C39   C     C_R   0.045791 0.757176 0.450705 -0.004989
C40   C     C_R   0.046993 0.757154 0.523645 0.025301
C41   C     C_R   0.509713 0.044618 0.526782 -0.036981
C42   C     C_R   0.516224 0.043047 0.449079 -0.006001
C43   C     C_R   0.009713 0.544618 0.526782 -0.036981
C44   C     C_R   0.016224 0.543047 0.449079 -0.006001
C45   C     C_R   0.529567 0.177462 0.850418 0.544709
C46   C     C_R   0.470076 0.177245 0.149326 0.537556
C47   C     C_R   0.029567 0.677462 0.850418 0.544709
C48   C     C_R   0.970076 0.677245 0.149326 0.537556
C49   C     C_3   0.533254 0.391025 0.448834 -0.275062
C50   C     C_3   0.532019 0.389234 0.529937 -0.257429
C51   C     C_3   0.033254 0.891025 0.448834 -0.275062
C52   C     C_3   0.032019 0.889234 0.529937 -0.257429
C53   C     C_R   0.748345 0.410812 0.420369 0.017846
C54   C     C_R   0.258659 0.376894 0.588622 0.012651
C55   C     C_R   0.248345 0.910812 0.420369 0.017846
C56   C     C_R   0.758659 0.876894 0.588622 0.012651
C57   C     C_R   0.785066 0.318606 0.451956 0.010638
C58   C     C_R   0.214640 0.294342 0.553267 0.027066
C59   C     C_R   0.285066 0.818606 0.451956 0.010638
C60   C     C_R   0.714640 0.794342 0.553267 0.027066
C61   C     C_R   0.782543 0.306094 0.525684 0.014602
C62   C     C_R   0.223054 0.268650 0.480528 0.016064
C63   C     C_R   0.282543 0.806094 0.525684 0.014602
C64   C     C_R   0.723054 0.768650 0.480528 0.016064
C65   C     C_R   0.710528 0.480606 0.538724 -0.159654
C66   C     C_R   0.330727 0.378471 0.480168 -0.157433
C67   C     C_R   0.210528 0.980606 0.538724 -0.159654
C68   C     C_R   0.830727 0.878471 0.480168 -0.157433
C69   C     C_R   0.709418 0.488681 0.464061 -0.158438
C70   C     C_R   0.322673 0.403329 0.554706 -0.169716
C71   C     C_R   0.209418 0.988681 0.464061 -0.158438
C72   C     C_R   0.822673 0.903329 0.554706 -0.169716
C73   C     C_3   0.772959 0.186250 0.439597 -0.280663
C74   C     C_3   0.137971 0.303269 0.545652 -0.279626
C75   C     C_3   0.272959 0.686250 0.439597 -0.280663
C76   C     C_3   0.637971 0.803269 0.545652 -0.279626
C77   C     C_3   0.770133 0.173709 0.519956 -0.246959
C78   C     C_3   0.147923 0.284816 0.467268 -0.287552
C79   C     C_3   0.270133 0.673709 0.519956 -0.246959
C80   C     C_3   0.647923 0.784816 0.467268 -0.287552
C81   C     C_R   0.747653 0.387935 0.570270 0.023365
C82   C     C_R   0.276872 0.319608 0.440777 0.005974
C83   C     C_R   0.247653 0.887935 0.570270 0.023365
C84   C     C_R   0.776872 0.819608 0.440777 0.005974
C85   C     C_R   0.723870 0.313461 0.859600 0.564826
C86   C     C_R   0.275463 0.313983 0.139578 0.569165
C87   C     C_R   0.223870 0.813461 0.859600 0.564826
C88   C     C_R   0.775463 0.813983 0.139578 0.569165
C89   C     C_R   0.730180 0.948407 0.650084 0.534307
C90   C     C_R   0.270909 0.953561 0.350964 0.544246
C91   C     C_R   0.230180 0.448407 0.650084 0.534307
C92   C     C_R   0.770909 0.453561 0.350964 0.544246
C93   C     C_R   0.533309 0.174217 0.641461 0.537441
C94   C     C_R   0.473032 0.175763 0.352643 0.542661
C95   C     C_R   0.033309 0.674217 0.641461 0.537441
C96   C     C_R   0.973032 0.675763 0.352643 0.542661
C97   C     C_R   0.738595 0.356827 0.644852 0.552613
C98   C     C_R   0.275532 0.308902 0.360920 0.573004
C99   C     C_R   0.238595 0.856827 0.644852 0.552613
C100  C     C_R   0.775532 0.808902 0.360920 0.573004
C101  C     C_2   0.495879 0.166872 0.920297 -0.119480
C102  C     C_2   0.502224 0.165919 0.078718 -0.119874
C103  C     C_2   0.995879 0.666872 0.920297 -0.119480
C104  C     C_2   0.002224 0.665919 0.078718 -0.119874
C105  C     C_2   0.489419 0.067904 0.037134 -0.157644
C106  C     C_2   0.505127 0.067804 0.960169 -0.155531
C107  C     C_2   0.989419 0.567904 0.037134 -0.157644
C108  C     C_2   0.005127 0.567804 0.960169 -0.155531
C109  C     C_R   0.748069 0.399365 0.081034 0.018321
C110  C     C_R   0.251245 0.401253 0.918977 0.019743
C111  C     C_R   0.248069 0.899365 0.081034 0.018320
C112  C     C_R   0.751245 0.901253 0.918977 0.019743
Cr1   Cr    Cr6+3 0.769260 0.163750 0.750730 0.991279
Cr2   Cr    Cr6+3 0.230740 0.163750 0.249270 0.973819
Cr3   Cr    Cr6+3 0.269260 0.663750 0.750730 0.991279
Cr4   Cr    Cr6+3 0.730740 0.663750 0.249270 0.973819
Cr5   Cr    Cr6+3 0.612640 0.009910 0.748780 0.990424
Cr6   Cr    Cr6+3 0.387360 0.009910 0.251220 0.978344
Cr7   Cr    Cr6+3 0.112640 0.509910 0.748780 0.990424
Cr8   Cr    Cr6+3 0.887360 0.509910 0.251220 0.978344
Cr9   Cr    Cr6+3 0.614190 0.322400 0.747710 1.005804
Cr10  Cr    Cr6+3 0.385810 0.322400 0.252290 0.995682
Cr11  Cr    Cr6+3 0.114190 0.822400 0.747710 1.005804
Cr12  Cr    Cr6+3 0.885810 0.822400 0.252290 0.995682
H1    H     H_    0.465781 0.986531 0.059123 0.158853
H2    H     H_    0.526553 0.985538 0.936947 0.158886
H3    H     H_    0.965781 0.486531 0.059123 0.158853
H4    H     H_    0.026553 0.485538 0.936947 0.158886
H5    H     H_    0.983307 0.919840 0.425995 0.155768
H6    H     H_    0.074852 0.941957 0.555442 0.153792
H7    H     H_    0.483307 0.419840 0.425995 0.155768
H8    H     H_    0.574852 0.441957 0.555442 0.153792
H9    H     H_    0.578474 0.440802 0.426331 0.130243
H10   H     H_    0.479556 0.406787 0.552940 0.131827
H11   H     H_    0.078474 0.940802 0.426331 0.130243
H12   H     H_    0.979556 0.906788 0.552940 0.131827
H13   H     H_    0.680658 0.542950 0.571346 0.120757
H14   H     H_    0.374992 0.415877 0.452521 0.123293
H15   H     H_    0.180658 0.042950 0.571346 0.120757
H16   H     H_    0.874992 0.915877 0.452521 0.123293
H17   H     H_    0.679745 0.556956 0.439199 0.133768
H18   H     H_    0.361896 0.456664 0.582733 0.106238
H19   H     H_    0.179745 0.056956 0.439199 0.133768
H20   H     H_    0.861896 0.956664 0.582733 0.106238
H21   H     H_    0.819039 0.141822 0.414803 0.144068
H22   H     H_    0.118931 0.395687 0.556076 0.172752
H23   H     H_    0.319039 0.641822 0.414803 0.144068
H24   H     H_    0.618931 0.895687 0.556076 0.172752
H25   H     H_    0.722221 0.165243 0.412800 0.140010
H26   H     H_    0.110271 0.227868 0.572991 0.129439
H27   H     H_    0.222221 0.665243 0.412800 0.140010
H28   H     H_    0.610271 0.727868 0.572991 0.129439
H29   H     H_    0.718034 0.144659 0.540476 0.145520
H30   H     H_    0.117308 0.207572 0.445202 0.115534
H31   H     H_    0.218034 0.644659 0.540476 0.145520
H32   H     H_    0.617308 0.707572 0.445202 0.115534
H33   H     H_    0.815355 0.127445 0.542042 0.149843
H34   H     H_    0.142520 0.371175 0.439729 0.160082
H35   H     H_    0.315355 0.627445 0.542042 0.149843
H36   H     H_    0.642520 0.871175 0.439729 0.160082
H37   H     H_    0.527062 0.245365 0.056317 0.092597
H38   H     H_    0.472694 0.247055 0.943705 0.091805
H39   H     H_    0.027062 0.745365 0.056317 0.092597
H40   H     H_    0.972694 0.747055 0.943705 0.091805
H41   H     H_    0.809494 0.209205 0.952604 0.140648
H42   H     H_    0.186701 0.212468 0.045313 0.137041
H43   H     H_    0.309494 0.709205 0.952604 0.140648
H44   H     H_    0.686701 0.712468 0.045313 0.137041
H45   H     H_    0.826929 0.259573 0.078271 0.138656
H46   H     H_    0.169912 0.262272 0.920433 0.138930
H47   H     H_    0.326928 0.759573 0.078271 0.138656
H48   H     H_    0.669912 0.762272 0.920433 0.138930
H49   H     H_    0.105887 0.063123 0.067864 0.129870
H50   H     H_    0.895802 0.065018 0.934971 0.131323
H51   H     H_    0.605887 0.563123 0.067864 0.129870
H52   H     H_    0.395802 0.565018 0.934971 0.131323
H53   H     H_    0.602787 0.398996 0.089465 0.139772
H54   H     H_    0.397000 0.400603 0.910940 0.142137
H55   H     H_    0.102787 0.898996 0.089465 0.139772
H56   H     H_    0.897000 0.900603 0.910940 0.142137
H57   H     H_    0.585801 0.352591 0.963949 0.142126
H58   H     H_    0.413147 0.354554 0.035884 0.143430
H59   H     H_    0.085801 0.852591 0.963949 0.142126
H60   H     H_    0.913147 0.854554 0.035884 0.143430
H61   H     H_    0.591295 0.517678 0.942998 0.139760
H62   H     H_    0.409704 0.519773 0.059111 0.139002
H63   H     H_    0.091295 0.017678 0.942998 0.139760
H64   H     H_    0.909704 0.019773 0.059111 0.139002
O1    O     O_R   0.784290 0.290360 0.830540 -0.516782
O2    O     O_R   0.215710 0.290360 0.169460 -0.525769
O3    O     O_R   0.284290 0.790360 0.830540 -0.516782
O4    O     O_R   0.715710 0.790360 0.169460 -0.525769
O5    O     O_R   0.554690 0.080440 0.673480 -0.522858
O6    O     O_R   0.445310 0.080440 0.326520 -0.514184
O7    O     O_R   0.054690 0.580440 0.673480 -0.522858
O8    O     O_R   0.945310 0.580440 0.326520 -0.514184
O9    O     O_R   0.543980 0.282110 0.666770 -0.511799
O10   O     O_R   0.456020 0.282110 0.333230 -0.534940
O11   O     O_R   0.043980 0.782110 0.666770 -0.511799
O12   O     O_R   0.956020 0.782110 0.333230 -0.534940
O13   O     O_R   0.679070 0.374030 0.674430 -0.500944
O14   O     O_R   0.320930 0.374030 0.325570 -0.501550
O15   O     O_R   0.179070 0.874030 0.674430 -0.500944
O16   O     O_R   0.820930 0.874030 0.325570 -0.501550
O17   O     O_3   0.665360 0.165350 0.749070 -0.265819
O18   O     O_3   0.334640 0.165350 0.250930 -0.279627
O19   O     O_3   0.165360 0.665350 0.749070 -0.265819
O20   O     O_3   0.834640 0.665350 0.250930 -0.279627
O21   O     O_R   0.762610 0.041070 0.825230 -0.516122
O22   O     O_R   0.237390 0.041070 0.174770 -0.515515
O23   O     O_R   0.262610 0.541070 0.825230 -0.516122
O24   O     O_R   0.737390 0.541070 0.174770 -0.515515
O25   O     O_R   0.667390 0.924160 0.829970 -0.525325
O26   O     O_R   0.332610 0.924160 0.170030 -0.523364
O27   O     O_R   0.167390 0.424160 0.829970 -0.525325
O28   O     O_R   0.832610 0.424160 0.170030 -0.523364
O29   O     O_R   0.553980 0.081420 0.821780 -0.493950
O30   O     O_R   0.446020 0.081420 0.178220 -0.500181
O31   O     O_R   0.053980 0.581420 0.821780 -0.493950
O32   O     O_R   0.946020 0.581420 0.178220 -0.500181
O33   O     O_R   0.543210 0.283170 0.826740 -0.527841
O34   O     O_R   0.456790 0.283170 0.173260 -0.530060
O35   O     O_R   0.043210 0.783170 0.826740 -0.527841
O36   O     O_R   0.956790 0.783170 0.173260 -0.530060
O37   O     O_R   0.678350 0.375000 0.822720 -0.493464
O38   O     O_R   0.321650 0.375000 0.177280 -0.488125
O39   O     O_R   0.178350 0.875000 0.822720 -0.493464
O40   O     O_R   0.821650 0.875000 0.177280 -0.488125
O41   O     O_R   0.785060 0.289300 0.670580 -0.531971
O42   O     O_R   0.214940 0.289300 0.329420 -0.527253
O43   O     O_R   0.285060 0.789300 0.670580 -0.531971
O44   O     O_R   0.714940 0.789300 0.329420 -0.527253
O45   O     O_R   0.763330 0.040090 0.676940 -0.506583
O46   O     O_R   0.236670 0.040090 0.323060 -0.526170
O47   O     O_R   0.263330 0.540090 0.676940 -0.506583
O48   O     O_R   0.736670 0.540090 0.323060 -0.526170
O49   O     O_R   0.668160 0.923110 0.670000 -0.528513
O50   O     O_R   0.331840 0.923110 0.330000 -0.521014
O51   O     O_R   0.168160 0.423110 0.670000 -0.528513
O52   O     O_R   0.831840 0.423110 0.330000 -0.521014
C113  C     C_3   0.482159 0.938356 0.573361 -0.247326
C114  C     C_3   0.461610 0.812330 0.543449 -0.337568
C115  C     C_3   0.442728 0.727395 0.604695 -0.450819
H65   H     H_    0.489048 0.712348 0.639261 0.133627
H66   H     H_    0.401545 0.766438 0.638576 0.207341
H67   H     H_    0.425990 0.638187 0.582728 0.127166
H68   H     H_    0.418415 0.818770 0.504526 0.180090
H69   H     H_    0.505520 0.764724 0.518849 0.153929
H70   H     H_    0.521640 0.916536 0.613772 0.188879
H71   H     H_    0.435865 0.973038 0.602957 0.154196
C116  C     C_3   0.512995 0.927359 0.401742 -0.232487
C117  C     C_3   0.559229 0.927981 0.332209 -0.276740
C118  C     C_3   0.554319 0.806124 0.292603 -0.412281
H72   H     H_    0.572154 0.731701 0.327223 0.146163
H73   H     H_    0.499487 0.787463 0.275952 0.133134
H74   H     H_    0.587597 0.808260 0.243767 0.175305
H75   H     H_    0.545732 0.996902 0.292519 0.186204
H76   H     H_    0.614360 0.950693 0.344259 0.162585
H77   H     H_    0.531258 0.851501 0.430600 0.120978
H78   H     H_    0.457986 0.902343 0.389352 0.189750
C119  C     C_3   0.982159 0.438356 0.573361 -0.247326
C120  C     C_3   0.961610 0.312331 0.543449 -0.337568
C121  C     C_3   0.942728 0.227395 0.604695 -0.450819
H79   H     H_    0.989048 0.212348 0.639261 0.133627
H80   H     H_    0.901545 0.266438 0.638576 0.207341
H81   H     H_    0.925990 0.138187 0.582728 0.127166
H82   H     H_    0.918415 0.318770 0.504526 0.180090
H83   H     H_    0.005520 0.264724 0.518849 0.153929
H84   H     H_    0.021640 0.416536 0.613772 0.188879
H85   H     H_    0.935865 0.473038 0.602957 0.154196
C122  C     C_3   0.012995 0.427359 0.401742 -0.232487
C123  C     C_3   0.059229 0.427981 0.332209 -0.276740
C124  C     C_3   0.054318 0.306124 0.292603 -0.412281
H86   H     H_    0.072154 0.231701 0.327223 0.146163
H87   H     H_    0.999487 0.287463 0.275952 0.133134
H88   H     H_    0.087597 0.308260 0.243767 0.175305
H89   H     H_    0.045732 0.496902 0.292519 0.186204
H90   H     H_    0.114360 0.450693 0.344259 0.162585
H91   H     H_    0.031259 0.351501 0.430600 0.120978
H92   H     H_    0.957986 0.402343 0.389352 0.189750

loop_
_geom_bond_atom_site_label_1
_geom_bond_atom_site_label_2
_ccdc_geom_bond_type
C58   C62   A    
C121  H81   S    
C39   C51   S    
C4    C109  S    
C67   C83   A    
C119  C120  S    
Cr2   O2    S    
Cr3   O19   S    
C6    C110  A    
C41   C42   A    
C14   C18   A    
C93   O9    A    
C34   C93   S    
Cr9   O17   S    
C86   O38   A    
C22   H54   S    
C53   C69   A    
C33   C94   S    
C104  H39   S    
Cr3   O47   S    
C51   H5    S    
C68   C84   A    
C9    C25   S    
C116  C117  S    
Cr2   O46   S    
C63   C79   S    
C35   C96   S    
C45   O33   A    
Cr7   O27   S    
C49   H7    S    
C103  H40   S    
Cr8   O8    S    
C81   C97   S    
Cr3   O43   S    
C12   C28   S    
C4    O28   A    
C33   C42   A    
C13   C29   A    
C101  H38   S    
Cr6   O18   S    
C19   H47   S    
C55   C90   S    
Cr5   O17   S    
C8    C112  A    
C1    C112  S    
C79   H35   S    
C118  H72   S    
C25   H61   S    
C17   H45   S    
C80   H36   S    
C67   C71   A    
Cr11  O39   S    
C76   H28   S    
C3    C110  S    
C89   O45   A    
C115  H65   S    
C48   C104  S    
C91   O47   A    
C65   C69   A    
C124  H88   S    
Cr9   O37   S    
Cr8   O32   S    
C90   O46   A    
C102  C105  D    
C96   O12   A    
C113  C114  S    
C96   O8    A    
C57   C73   S    
C49   C50   S    
Cr10  O18   S    
Cr10  O10   S    
C64   C84   A    
C36   C40   A    
C49   H9    S    
C77   H33   S    
C77   H29   S    
C15   C19   A    
C51   H11   S    
C78   H34   S    
C97   O41   A    
Cr8   O28   S    
Cr12  O36   S    
C117  C118  S    
C75   H27   S    
C123  C124  S    
C21   H51   S    
C66   H14   S    
C73   H21   S    
Cr6   O30   S    
C95   O7    A    
C107  C108  S    
Cr5   O29   S    
C103  C108  D    
C23   C27   S    
C30   C86   S    
C67   H15   S    
C23   H55   S    
C7    C23   S    
C1    O21   A    
C68   C72   A    
C8    C24   S    
Cr1   O45   S    
C19   C111  A    
Cr6   O50   S    
C122  H91   S    
C122  C123  S    
C62   C82   A    
Cr5   O49   S    
Cr4   O44   S    
C73   H25   S    
C98   O42   A    
Cr12  O20   S    
Cr7   O31   S    
C64   C80   S    
C15   H43   S    
C34   C41   A    
C65   H13   S    
C14   C30   A    
Cr1   O41   S    
C100  O16   A    
C34   C38   A    
Cr12  O40   S    
C25   H57   S    
C117  H75   S    
C114  C115  S    
C3    O27   A    
C18   H46   S    
C3    O23   A    
C62   C78   S    
C2    C111  S    
C2    O22   A    
C47   C103  S    
C90   O50   A    
C117  H76   S    
C51   C52   S    
Cr8   O20   S    
C89   O49   A    
C100  O44   A    
C31   C87   S    
Cr10  O38   S    
C50   H10   S    
C86   O2    A    
C61   C77   S    
C120  H82   S    
C43   C119  S    
C53   C57   A    
Cr1   O21   S    
C78   H30   S    
C48   O36   A    
C115  H66   S    
C40   C52   S    
C47   O31   A    
C60   C76   S    
Cr7   O51   S    
C114  H69   S    
Cr2   O18   S    
C76   H24   S    
C63   C83   A    
C94   O10   A    
Cr1   O17   S    
C55   C71   A    
C35   C39   A    
C43   C44   A    
C116  H77   S    
C6    C10   A    
C37   C38   A    
C116  H78   S    
C66   C82   A    
C37   C49   S    
C10   C30   A    
C87   O3    A    
C65   C81   A    
C16   C20   A    
C54   C70   A    
C11   C27   S    
C8    C12   A    
C115  H67   S    
Cr4   O48   S    
C53   C92   S    
C124  H86   S    
C85   O37   A    
C113  H70   S    
Cr6   O26   S    
C123  H89   S    
C27   H63   S    
C13   H41   S    
C108  H4    S    
Cr12  O12   S    
C15   C31   A    
C35   C44   A    
Cr9   O9    S    
C119  H85   S    
Cr4   O20   S    
C50   H8    S    
Cr8   O52   S    
C44   C122  S    
C23   H49   S    
C26   H58   S    
C56   C89   S    
C20   H48   S    
C105  H1    S    
C42   C116  S    
C2    O26   A    
C85   O1    A    
C87   O39   A    
C45   C101  S    
C99   O15   A    
Cr10  O34   S    
C52   H12   S    
C82   C98   S    
C68   H16   S    
C32   C88   S    
Cr7   O19   S    
C91   O51   A    
Cr11  O19   S    
C59   C75   S    
C39   C40   A    
C80   H32   S    
C55   C59   A    
C58   C74   S    
C24   C28   S    
C118  H73   S    
C54   C58   A    
Cr11  O11   S    
C101  C106  D    
C72   H20   S    
C21   C25   S    
C52   H6    S    
C92   O52   A    
C122  H92   S    
C123  H90   S    
C56   C72   A    
C24   H50   S    
C94   O6    A    
C29   C85   S    
C74   H22   S    
C70   H18   S    
C93   O5    A    
C113  H71   S    
C18   C110  A    
C97   O13   A    
C17   C109  A    
Cr2   O42   S    
C84   C100  S    
C99   O43   A    
C76   C80   S    
C57   C61   A    
C120  C121  S    
C38   C50   S    
C13   C17   A    
C88   O4    A    
C16   C32   A    
C79   H31   S    
Cr1   O1    S    
C105  C106  S    
C106  H2    S    
C59   C63   A    
Cr11  O35   S    
C4    O24   A    
C83   C99   S    
Cr3   O23   S    
C60   C64   A    
C114  H68   S    
C75   H23   S    
Cr2   O22   S    
C118  H74   S    
C121  H79   S    
C28   H60   S    
C74   H26   S    
Cr3   O3    S    
C54   C91   S    
Cr4   O24   S    
C121  H80   S    
C120  H83   S    
C9    C29   A    
Cr9   O13   S    
C36   C95   S    
C10   C26   S    
C88   O40   A    
C71   H19   S    
C5    C109  A    
C16   H44   S    
C102  H37   S    
C98   O14   A    
C24   H56   S    
C69   H17   S    
C21   H53   S    
C124  H87   S    
C28   H64   S    
C7    C111  A    
C33   C37   A    
Cr7   O7    S    
Cr4   O4    S    
C46   O34   A    
Cr6   O6    S    
C92   O48   A    
C27   H59   S    
C22   H52   S    
Cr12  O16   S    
Cr5   O5    S    
C11   C31   A    
C119  H84   S    
C56   C60   A    
Cr10  O14   S    
Cr5   O25   S    
C5    C21   S    
C66   C70   A    
C47   O35   A    
C73   C77   S    
C95   O11   A    
C14   H42   S    
C22   C26   S    
C20   C112  A    
C41   C113  S    
Cr9   O33   S    
C26   H62   S    
C36   C43   A    
C61   C81   A    
C5    C9    A    
C107  H3    S    
Cr11  O15   S    
C75   C79   S    
C46   O30   A    
C104  C107  D    
C12   C32   A    
C45   O29   A    
C48   O32   A    
C7    C11   A    
C74   C78   S    
C46   C102  S    
C1    O25   A    
C6    C22   S    
