data_mof_unit_54290.cif
_audit_creation_date              2012-12-10T17:33:17-0500
_audit_creation_method            fapswitch 2.2
_symmetry_space_group_name_H-M    P1
_symmetry_Int_Tables_number       1
_space_group_crystal_system       triclinic
_cell_length_a                    12.17839
_cell_length_b                    13.015114
_cell_length_c                    13.570408
_cell_angle_alpha                 93.44312
_cell_angle_beta                  81.455121
_cell_angle_gamma                 93.109856
_cell_volume                      2120.99697709

loop_
_atom_site_label
_atom_site_type_symbol
_atom_type_description
_atom_site_fract_x
_atom_site_fract_y
_atom_site_fract_z
_atom_type_partial_charge
C1    C     C_R   0.521851 0.699381 0.498650 0.906987
C2    C     C_R   0.148854 0.472346 0.446599 -0.010401
C3    C     C_R   0.972027 0.525994 0.542172 -0.073697
C4    C     C_R   0.029921 0.474349 0.456624 -0.076080
C5    C     C_R   0.481862 0.502288 0.686361 0.892649
C6    C     C_R   0.518023 0.500290 0.313985 0.901591
C7    C     C_1   0.529264 0.518385 0.212582 -0.178512
C8    C     C_1   0.470262 0.511916 0.790781 -0.138277
C9    C     C_2   0.537623 0.559774 0.026110 0.393414
C10   C     C_2   0.446582 0.531301 0.985298 0.372060
C11   C     C_1   0.458030 0.521712 0.879189 -0.056168
C12   C     C_R   0.479326 0.298829 0.498665 0.919462
C13   C     C_1   0.535439 0.537989 0.127843 -0.082177
C14   C     C_R   0.472989 0.185054 0.485485 -0.279890
C15   C     C_R   0.537729 0.809217 0.491773 -0.301753
C16   C     C_R   0.654094 0.962671 0.500050 0.512553
C17   C     C_R   0.373333 0.024095 0.444921 0.474930
C18   C     C_R   0.629699 0.861536 0.525138 -0.214598
C19   C     C_R   0.375409 0.131063 0.461588 -0.210071
C20   C     C_R   0.464315 0.861839 0.444912 0.424521
C21   C     C_R   0.570052 0.130157 0.491856 0.438879
C22   C     C_3   0.254488 0.527794 0.009631 0.116988
C23   C     C_R   0.467867 0.969641 0.454255 -0.201761
C24   C     C_3   0.153463 0.508468 0.087765 -0.810035
C25   C     C_3   0.691477 0.671882 0.023122 0.060217
C26   C     C_3   0.789687 0.717867 0.955363 -0.750103
C27   C     C_3   0.748823 0.202739 0.460274 0.235266
C28   C     C_3   0.852145 0.222167 0.511366 -0.738217
C29   C     C_3   0.424971 0.791078 0.296540 0.154396
C30   C     C_3   0.336605 0.731718 0.244884 -0.787433
C31   C     C_1   0.273154 0.181473 0.458169 0.287351
C32   C     C_1   0.701422 0.814445 0.583950 0.267714
C33   C     C_3   0.826875 0.949403 0.409337 0.050267
C34   C     C_R   0.566039 0.022020 0.479653 -0.192894
C35   C     C_3   0.937335 0.008072 0.378788 -0.825828
C36   C     C_3   0.206698 0.945795 0.508836 0.171969
C37   C     C_3   0.128552 0.855044 0.485089 -0.833953
C38   C     C_1   0.212430 0.422088 0.360867 0.283749
C39   C     C_1   0.792010 0.542334 0.654759 0.292260
C40   C     C_3   0.235325 0.720542 0.666534 0.097759
C41   C     C_3   0.324955 0.754272 0.730359 -0.793476
C42   C     C_3   0.829939 0.481977 0.233150 0.103781
C43   C     C_3   0.809767 0.424529 0.136025 -0.801326
C44   C     C_1   0.008996 0.355600 0.304945 0.186402
C45   C     C_R   0.965822 0.428272 0.384690 -0.194037
C46   C     C_1   0.986861 0.650553 0.689391 0.179547
C47   C     C_R   0.036044 0.580948 0.610174 -0.173222
C48   C     C_R   0.851688 0.446648 0.392820 0.512872
C49   C     C_R   0.152777 0.575326 0.597183 0.542044
C50   C     C_R   0.852238 0.518379 0.557217 -0.023354
H1    H     H_    0.241092 0.482837 0.939687 0.169417
H2    H     H_    0.848836 0.656794 0.928620 0.264044
H3    H     H_    0.736867 0.271781 0.421598 0.178766
H4    H     H_    0.761371 0.143223 0.398549 0.133451
H5    H     H_    0.862481 0.157869 0.558727 0.292755
H6    H     H_    0.927536 0.230030 0.455319 0.202162
H7    H     H_    0.844234 0.293698 0.560119 0.230811
H8    H     H_    0.500673 0.744932 0.286359 0.090248
H9    H     H_    0.445127 0.865731 0.260275 0.139171
H10   H     H_    0.260753 0.776880 0.252064 0.257600
H11   H     H_    0.368391 0.717318 0.164484 0.198697
H12   H     H_    0.261393 0.611750 0.996096 0.126635
H13   H     H_    0.314670 0.656635 0.279248 0.265018
H14   H     H_    0.782166 0.942313 0.342936 0.117009
H15   H     H_    0.846152 0.871021 0.428050 0.158926
H16   H     H_    0.980146 0.027025 0.444738 0.273811
H17   H     H_    0.990911 0.960133 0.322837 0.216112
H18   H     H_    0.925389 0.079720 0.342467 0.243956
H19   H     H_    0.155608 0.012029 0.538445 0.131160
H20   H     H_    0.253316 0.923530 0.568469 0.107991
H21   H     H_    0.175278 0.784765 0.462140 0.270447
H22   H     H_    0.066402 0.839403 0.551671 0.202485
H23   H     H_    0.164764 0.551053 0.159266 0.248371
H24   H     H_    0.084754 0.871720 0.422685 0.258383
H25   H     H_    0.161251 0.764711 0.695868 0.138108
H26   H     H_    0.264340 0.742353 0.589209 0.178533
H27   H     H_    0.402814 0.714634 0.702962 0.248340
H28   H     H_    0.342575 0.838709 0.726927 0.197527
H29   H     H_    0.296582 0.735630 0.809152 0.243072
H30   H     H_    0.919486 0.507555 0.224785 0.115251
H31   H     H_    0.781272 0.552563 0.243661 0.148064
H32   H     H_    0.720984 0.398629 0.139935 0.265491
H33   H     H_    0.832398 0.475697 0.072853 0.214102
H34   H     H_    0.077945 0.534844 0.061764 0.200164
H35   H     H_    0.861606 0.356076 0.122404 0.257742
H36   H     H_    0.141983 0.424861 0.100140 0.277178
H37   H     H_    0.724592 0.637433 0.085146 0.138417
H38   H     H_    0.635965 0.735138 0.053711 0.127145
H39   H     H_    0.760756 0.751084 0.890749 0.276235
H40   H     H_    0.832850 0.779655 0.997191 0.191617
N1    N     N_R   0.206090 0.519450 0.517820 -0.162160
N2    N     N_R   0.793910 0.480550 0.482180 -0.166338
N3    N     N_1   0.189832 0.219523 0.456497 -0.219072
N4    N     N_1   0.759071 0.777853 0.631185 -0.205037
N5    N     N_1   0.262411 0.381112 0.291642 -0.161744
N6    N     N_1   0.746313 0.561501 0.734328 -0.141638
N7    N     N_1   0.041344 0.296462 0.241557 -0.205544
N8    N     N_1   0.949060 0.707893 0.752084 -0.216945
O1    O     O_R   0.421240 0.658850 0.504760 -0.581284
O2    O     O_3   0.634319 0.596386 0.967939 -0.608317
O3    O     O_3   0.657307 0.179182 0.534231 -0.570070
O4    O     O_3   0.383541 0.807581 0.398685 -0.566076
O5    O     O_3   0.763517 0.000295 0.493169 -0.594548
O6    O     O_3   0.277328 0.972381 0.420526 -0.571242
O7    O     O_3   0.212144 0.613216 0.672402 -0.587353
O8    O     O_3   0.795425 0.416994 0.313584 -0.604646
O9    O     O_R   0.578760 0.341150 0.495240 -0.588383
O10   O     O_R   0.609960 0.646370 0.493320 -0.638272
O11   O     O_R   0.390040 0.353630 0.506680 -0.618868
O12   O     O_R   0.392060 0.507120 0.646890 -0.560943
O13   O     O_R   0.607940 0.492880 0.353110 -0.583204
O14   O     O_R   0.580780 0.494630 0.635450 -0.610351
O15   O     O_R   0.419220 0.505370 0.364550 -0.618880
O16   O     O_3   0.350142 0.495945 0.044797 -0.616272
Zn1   Zn    Zn3+2 0.373990 0.508340 0.507630 0.993999
Zn2   Zn    Zn3+2 0.626010 0.491660 0.492370 0.976415

loop_
_geom_bond_atom_site_label_1
_geom_bond_atom_site_label_2
_ccdc_geom_bond_type
C15   C18   A    
C32   N4    T    
C37   H24   S    
C42   H30   S    
C43   H33   S    
C6    O13   A    
C19   C31   S    
C1    O1    A    
C28   H6    S    
C27   H4    S    
C33   H15   S    
C47   C49   A    
C28   H7    S    
C44   C45   S    
C26   H39   S    
C17   C23   A    
C14   C21   A    
C36   C37   S    
C17   O6    S    
C33   H14   S    
C41   H27   S    
C24   H23   S    
C20   O4    S    
C5    O12   A    
C25   H37   S    
C9    C13   S    
C16   O5    S    
C16   C34   A    
C3    C50   A    
C48   O8    S    
C29   H9    S    
C30   H10   S    
C38   N5    T    
O13   Zn2   S    
C1    C15   S    
C9    C10   D    
C10   O16   S    
C21   O3    S    
C46   N8    T    
C30   H13   S    
C42   H31   S    
C49   N1    A    
C12   O11   A    
C28   H5    S    
C36   H20   S    
C4    C45   A    
C15   C20   A    
O9    Zn2   S    
C43   H35   S    
C41   H28   S    
C17   C19   A    
C49   O7    S    
C21   C34   A    
C35   H16   S    
C25   C26   S    
C31   N3    T    
C27   O3    S    
C25   H38   S    
C40   H26   S    
C2    C4    A    
C6    O15   A    
C29   C30   S    
C26   H2    S    
C22   H12   S    
C42   O8    S    
C44   N7    T    
C2    C38   S    
C25   O2    S    
C20   C23   A    
C35   H17   S    
C23   C34   A    
N2    Zn2   S    
C12   O9    A    
C50   N2    A    
C40   C41   S    
C12   C14   S    
C9    O2    S    
C37   H21   S    
C22   C24   S    
C30   H11   S    
C18   C32   S    
C42   C43   S    
C3    C4    A    
O14   Zn2   S    
C36   H19   S    
C45   C48   A    
C46   C47   S    
C33   O5    S    
C14   C19   A    
C41   H29   S    
C5    C8    S    
C27   H3    S    
C6    C7    S    
C5    O14   A    
C26   H40   S    
C22   O16   S    
C40   H25   S    
C36   O6    S    
O10   Zn2   S    
C24   H34   S    
O1    Zn1   S    
C35   H18   S    
C8    C11   T    
C3    C47   A    
C33   C35   S    
N1    Zn1   S    
C29   O4    S    
C2    N1    A    
C39   N6    T    
C10   C11   S    
O11   Zn1   S    
C1    O10   A    
C7    C13   T    
C39   C50   S    
C29   H8    S    
C16   C18   A    
C48   N2    A    
C37   H22   S    
C27   C28   S    
C43   H32   S    
C22   H1    S    
C24   H36   S    
O12   Zn1   S    
C40   O7    S    
O15   Zn1   S    
