data_mof_unit_29196.cif
_audit_creation_date              2012-12-10T18:05:47-0500
_audit_creation_method            fapswitch 2.2
_symmetry_space_group_name_H-M    P1
_symmetry_Int_Tables_number       1
_space_group_crystal_system       triclinic
_cell_length_a                    10.807022
_cell_length_b                    10.832898
_cell_length_c                    9.504117
_cell_angle_alpha                 90.661152
_cell_angle_beta                  90.009862
_cell_angle_gamma                 88.905586
_cell_volume                      1112.38293181

loop_
_atom_site_label
_atom_site_type_symbol
_atom_type_description
_atom_site_fract_x
_atom_site_fract_y
_atom_site_fract_z
_atom_type_partial_charge
C1    C     C_R   0.502123 0.262130 0.498821 0.795086
C2    C     C_R   0.497877 0.737870 0.501179 0.795086
C3    C     C_R   0.871527 0.503225 0.500885 -0.072022
C4    C     C_R   0.128473 0.496774 0.499115 -0.072022
C5    C     C_R   0.936810 0.563851 0.609186 0.070902
C6    C     C_R   0.063190 0.436149 0.390814 0.070902
C7    C     C_R   0.557182 0.058324 0.386124 0.157742
C8    C     C_R   0.442818 0.941676 0.613876 0.157742
C9    C     C_R   0.554441 0.930815 0.390923 -0.208567
C10   C     C_R   0.445559 0.069185 0.609077 -0.208567
C11   C     C_R   0.497969 0.871677 0.503335 -0.123202
C12   C     C_R   0.502031 0.128323 0.496664 -0.123202
C13   C     C_R   0.576069 0.421127 0.073414 -0.048743
C14   C     C_R   0.423931 0.578872 0.926586 -0.048743
C15   C     C_R   0.575742 0.420810 0.924505 0.003921
C16   C     C_R   0.424258 0.579190 0.075495 0.003921
C17   C     C_R   0.262281 0.498418 0.499775 0.789347
C18   C     C_R   0.737719 0.501582 0.500225 0.789347
C19   C     C_R   0.207565 0.353800 0.037463 -0.167955
C20   C     C_R   0.792435 0.646200 0.962537 -0.167955
C21   C     C_R   0.145364 0.420736 0.144452 0.161422
C22   C     C_R   0.854636 0.579264 0.855548 0.161422
C23   C     C_R   0.126523 0.365204 0.276328 0.095710
C24   C     C_R   0.873477 0.634796 0.723672 0.095710
C25   C     C_R   0.171908 0.244036 0.300414 0.152343
C26   C     C_R   0.828092 0.755964 0.699586 0.152343
C27   C     C_R   0.234764 0.179570 0.191998 -0.153954
C28   C     C_R   0.765236 0.820430 0.808002 -0.153955
C29   C     C_R   0.252119 0.234241 0.061496 -0.166055
C30   C     C_R   0.747881 0.765758 0.938504 -0.166055
C31   C     C_R   0.934821 0.440652 0.392472 -0.236337
C32   C     C_R   0.065179 0.559348 0.607528 -0.236337
Cu1   Cu    Cu3+1 0.500000 0.500020 0.640660 0.941885
Cu2   Cu    Cu3+1 0.500000 0.499980 0.359340 0.941885
H1    H     H_    0.270871 0.086951 0.208688 0.138857
H2    H     H_    0.729128 0.913049 0.791312 0.138857
H3    H     H_    0.598188 0.877633 0.306621 0.167922
H4    H     H_    0.401812 0.122367 0.693379 0.167922
H5    H     H_    0.637932 0.358937 0.128726 0.112835
H6    H     H_    0.362068 0.641063 0.871274 0.112835
N1    N     N_R   0.500030 0.500030 0.852070 -0.156680
N2    N     N_R   0.499970 0.499970 0.147930 -0.156680
O1    O     O_R   0.499990 0.319660 0.618740 -0.589836
O2    O     O_R   0.500010 0.680340 0.381260 -0.589836
O3    O     O_R   0.499990 0.319630 0.381170 -0.584626
O4    O     O_R   0.500010 0.680370 0.618830 -0.584626
O5    O     O_R   0.319650 0.500020 0.618780 -0.598576
O6    O     O_R   0.680350 0.499980 0.381220 -0.598576
O7    O     O_R   0.319640 0.500000 0.381210 -0.560674
O8    O     O_R   0.680360 0.500000 0.618790 -0.560674
H7    H     H_    0.300945 0.183967 0.978794 0.148608
H8    H     H_    0.699055 0.816032 0.021206 0.148608
H9    H     H_    0.636625 0.357633 0.867460 0.141076
H10   H     H_    0.363375 0.642367 0.132540 0.141076
H11   H     H_    0.223048 0.394775 0.935745 0.140069
H12   H     H_    0.776952 0.605225 0.064255 0.140069
N3    N     N_3   0.106672 0.546838 0.122886 -0.595556
H13   H     H_    0.010160 0.551063 0.127778 0.215626
H14   H     H_    0.131461 0.575507 0.022233 0.197457
N4    N     N_3   0.893328 0.453162 0.877114 -0.595556
H15   H     H_    0.989839 0.448937 0.872222 0.215626
H16   H     H_    0.868539 0.424493 0.977767 0.197457
N5    N     N_3   0.153612 0.187355 0.434649 -0.586458
H17   H     H_    0.209300 0.232877 0.507813 0.204343
H18   H     H_    0.184894 0.095407 0.431765 0.225196
N6    N     N_3   0.846388 0.812645 0.565351 -0.586458
H19   H     H_    0.790699 0.767123 0.492187 0.204343
H20   H     H_    0.815105 0.904593 0.568235 0.225196
H21   H     H_    0.884184 0.393059 0.310228 0.136518
H22   H     H_    0.115816 0.606941 0.689772 0.136518
N7    N     N_3   0.619245 0.113005 0.269807 -0.604774
H23   H     H_    0.684447 0.175083 0.308076 0.220205
H24   H     H_    0.553801 0.159469 0.208035 0.236943
N8    N     N_3   0.380755 0.886995 0.730193 -0.604774
H25   H     H_    0.315553 0.824916 0.691924 0.220205
H26   H     H_    0.446199 0.840531 0.791965 0.236943

loop_
_geom_bond_atom_site_label_1
_geom_bond_atom_site_label_2
_ccdc_geom_bond_type
N6    H20   S    
N5    H18   S    
C27   C29   A    
Cu2   N2    S    
C20   H12   S    
C20   C30   A    
C2    O4    A    
N8    H26   S    
C15   H9    S    
C19   C21   A    
C24   C26   A    
C7    N7    S    
N3    H14   S    
C3    C18   S    
N4    H16   S    
C25   N5    S    
C1    O1    A    
C2    O2    A    
C5    C32   A    
C6    C31   A    
Cu1   O4    S    
C1    C12   S    
C2    C11   S    
C8    N8    S    
C13   N2    A    
C21   C23   A    
C7    C12   A    
N8    H25   S    
C26   N6    S    
Cu2   O2    S    
C15   N1    A    
C4    C6    A    
C17   O7    A    
N7    H24   S    
C32   H22   S    
C27   H1    S    
Cu1   O8    S    
N4    H15   S    
Cu1   O1    S    
C21   N3    S    
C9    H3    S    
Cu1   Cu2   S    
Cu2   O3    S    
C3    C31   A    
C9    C11   A    
C4    C32   A    
C10   C12   A    
C14   N1    A    
C4    C17   S    
C20   C22   A    
C13   C15   A    
Cu1   O5    S    
C22   C24   A    
Cu2   O6    S    
C19   C29   A    
C16   N2    A    
C18   O8    A    
C29   H7    S    
C19   H11   S    
C7    C9    A    
C30   H8    S    
Cu2   O7    S    
C17   O5    A    
C3    C5    A    
C18   O6    A    
C25   C27   A    
C26   C28   A    
C10   H4    S    
Cu1   N1    S    
C28   C30   A    
N7    H23   S    
C22   N4    S    
C1    O3    A    
N3    H13   S    
C5    C24   S    
C8    C11   A    
C6    C23   S    
N6    H19   S    
C14   C16   A    
C23   C25   A    
C16   H10   S    
C13   H5    S    
C14   H6    S    
N5    H17   S    
C31   H21   S    
C28   H2    S    
C8    C10   A    
