data_mof_unit_55939.cif
_audit_creation_date              2012-12-10T17:54:22-0500
_audit_creation_method            fapswitch 2.2
_symmetry_space_group_name_H-M    P1
_symmetry_Int_Tables_number       1
_space_group_crystal_system       triclinic
_cell_length_a                    27.689882
_cell_length_b                    10.702148
_cell_length_c                    9.897198
_cell_angle_alpha                 89.808058
_cell_angle_beta                  91.024408
_cell_angle_gamma                 92.249096
_cell_volume                      2930.20959488

loop_
_atom_site_label
_atom_site_type_symbol
_atom_type_description
_atom_site_fract_x
_atom_site_fract_y
_atom_site_fract_z
_atom_type_partial_charge
C1    C     C_R   0.503369 0.260170 0.501585 0.876537
C2    C     C_R   0.277328 0.461622 0.371382 0.243162
C3    C     C_R   0.252538 0.475241 0.492974 0.327614
C4    C     C_R   0.101487 0.467688 0.513161 -0.094010
C5    C     C_R   0.126154 0.355682 0.536736 -0.042824
C6    C     C_R   0.098932 0.244870 0.570878 0.194527
C7    C     C_R   0.127477 0.578537 0.476951 -0.004610
C8    C     C_R   0.353237 0.492152 0.496261 -0.080392
C9    C     C_R   0.646748 0.497680 0.505621 -0.085505
C10   C     C_R   0.972531 0.357947 0.537238 0.025974
C11   C     C_R   0.977099 0.587955 0.538976 0.031812
C12   C     C_R   0.406033 0.498615 0.498863 0.865055
C13   C     C_R   0.949359 0.473409 0.536390 0.031384
C14   C     C_R   0.944112 0.246515 0.524294 -0.208501
C15   C     C_R   0.893682 0.246051 0.516265 0.182938
C16   C     C_R   0.870009 0.361499 0.520683 -0.030316
C17   C     C_R   0.898310 0.474718 0.532159 -0.094071
C18   C     C_R   0.875610 0.590199 0.538335 -0.057560
C19   C     C_R   0.825366 0.592342 0.530317 0.515451
C20   C     C_R   0.819143 0.369767 0.513535 0.508944
C21   C     C_R   0.721510 0.487146 0.636864 0.240392
C22   C     C_R   0.671251 0.491959 0.630886 -0.209405
C23   C     C_R   0.495088 0.738795 0.500047 0.890694
C24   C     C_R   0.672923 0.499359 0.385618 -0.215761
C25   C     C_R   0.722980 0.494861 0.390831 -0.148146
C26   C     C_R   0.747230 0.488553 0.515593 0.326431
C27   C     C_R   0.023667 0.357374 0.546721 0.009886
C28   C     C_R   0.050690 0.469706 0.524841 0.074756
C29   C     C_R   0.027056 0.584312 0.512053 0.061005
C30   C     C_R   0.048521 0.247773 0.575153 -0.217547
C31   C     C_R   0.102955 0.687418 0.448022 -0.144662
C32   C     C_R   0.953363 0.700621 0.566550 0.184588
C33   C     C_R   0.903123 0.700930 0.558794 -0.151542
C34   C     C_R   0.593982 0.500079 0.501310 0.888406
C35   C     C_R   0.053398 0.689541 0.463095 -0.232400
C36   C     C_R   0.513988 0.111239 0.760113 -0.153863
C37   C     C_R   0.499459 0.049984 0.878061 -0.145207
C38   C     C_R   0.473431 0.936608 0.869693 -0.162554
C39   C     C_R   0.466337 0.878932 0.744524 -0.143472
C40   C     C_R   0.485093 0.935355 0.625607 0.096707
C41   C     C_R   0.502060 0.059755 0.631068 0.096827
C42   C     C_R   0.505780 0.126320 0.506669 -0.119340
C43   C     C_R   0.503340 0.063493 0.383134 -0.215570
C44   C     C_R   0.496821 0.936324 0.381040 -0.208597
C45   C     C_R   0.177120 0.360950 0.526656 0.509298
C46   C     C_R   0.489180 0.871359 0.501743 -0.126473
C47   C     C_R   0.436105 0.336195 0.137865 -0.165612
C48   C     C_R   0.404695 0.254963 0.066491 -0.213183
C49   C     C_R   0.404776 0.254431 0.926623 -0.172681
C50   C     C_R   0.436240 0.335186 0.857321 -0.144368
C51   C     C_R   0.468537 0.418906 0.926318 0.107824
C52   C     C_R   0.468521 0.419155 0.071010 0.152228
C53   C     C_R   0.529981 0.577175 0.074538 -0.135566
C54   C     C_R   0.530384 0.578002 0.931747 0.221906
C55   C     C_R   0.177582 0.577844 0.468546 0.501393
C56   C     C_R   0.277852 0.496183 0.614671 -0.154110
C57   C     C_R   0.327945 0.504317 0.616627 -0.224399
C58   C     C_R   0.327807 0.470633 0.373932 -0.214745
H1    H     H_    0.347187 0.459873 0.280797 0.164717
H2    H     H_    0.258474 0.506638 0.707801 0.144938
H3    H     H_    0.654790 0.503806 0.287943 0.167706
H4    H     H_    0.885459 0.788251 0.574620 0.193401
H5    H     H_    0.743084 0.495983 0.297944 0.144721
H6    H     H_    0.035879 0.773595 0.432227 0.170933
H7    H     H_    0.506872 0.112275 0.287446 0.171846
H8    H     H_    0.535637 0.196679 0.772561 0.170434
H9    H     H_    0.507521 0.091913 0.975710 0.144098
H10   H     H_    0.554297 0.639708 0.131563 0.158531
H11   H     H_    0.433910 0.331427 0.245028 0.207008
H12   H     H_    0.380175 0.191995 0.120202 0.161361
H13   H     H_    0.651301 0.490504 0.724109 0.165693
H14   H     H_    0.960793 0.157758 0.513877 0.140171
H15   H     H_    0.029134 0.163231 0.605703 0.145179
H16   H     H_    0.346794 0.520515 0.712195 0.172016
N1    N     N_R   0.201028 0.470684 0.494208 -0.351148
N2    N     N_R   0.798609 0.483485 0.518566 -0.349402
N3    N     N_R   0.499540 0.498800 0.142780 -0.138689
N4    N     N_R   0.499520 0.498720 0.857170 -0.130091
O1    O     O_R   0.500000 0.316780 0.614690 -0.651975
O2    O     O_2   0.789942 0.266456 0.502270 -0.563203
O3    O     O_2   0.203000 0.683700 0.436238 -0.560459
O4    O     O_2   0.803121 0.702287 0.534965 -0.561418
O5    O     O_R   0.500000 0.316750 0.385360 -0.636877
O6    O     O_R   0.428760 0.500030 0.614650 -0.644041
O7    O     O_R   0.428750 0.500010 0.385320 -0.637939
O8    O     O_R   0.500000 0.683250 0.614640 -0.634597
O9    O     O_R   0.500000 0.683220 0.385310 -0.617054
O10   O     O_R   0.571250 0.499990 0.614680 -0.632562
O11   O     O_R   0.571240 0.499970 0.385350 -0.614537
O12   O     O_2   0.203092 0.258779 0.548940 -0.565309
Zn1   Zn    Zn3+2 0.500000 0.500020 0.653130 0.920036
Zn2   Zn    Zn3+2 0.500000 0.499980 0.346870 0.935318
H17   H     H_    0.121951 0.771703 0.413525 0.189686
C59   C     C_3   0.978601 0.817281 0.623684 -0.957205
H18   H     H_    0.015164 0.799112 0.664917 0.259326
H19   H     H_    0.980503 0.891921 0.545536 0.231479
H20   H     H_    0.958008 0.852459 0.710119 0.249817
C60   C     C_3   0.250239 0.437031 0.240402 -0.889535
H21   H     H_    0.275203 0.426393 0.154928 0.234341
H22   H     H_    0.227556 0.349595 0.249054 0.251562
H23   H     H_    0.226655 0.515988 0.216753 0.258979
H24   H     H_    0.460182 0.891288 0.960475 0.141798
H25   H     H_    0.445843 0.790801 0.741861 0.164915
H26   H     H_    0.498580 0.889012 0.284700 0.169411
H27   H     H_    0.380443 0.190711 0.871275 0.162511
H28   H     H_    0.434403 0.328396 0.750120 0.209675
C61   C     C_3   0.566151 0.668811 0.868882 -0.839032
H29   H     H_    0.565815 0.667829 0.758734 0.297399
H30   H     H_    0.558546 0.765292 0.901007 0.225008
H31   H     H_    0.603252 0.647101 0.903694 0.209229
C62   C     C_3   0.121542 0.121454 0.602460 -0.772761
H32   H     H_    0.094181 0.046662 0.627645 0.202173
H33   H     H_    0.141130 0.088551 0.513227 0.267540
H34   H     H_    0.146376 0.131764 0.691364 0.266234
C63   C     C_3   0.747421 0.479881 0.771530 -0.894104
H35   H     H_    0.721806 0.478620 0.856678 0.231997
H36   H     H_    0.768126 0.393202 0.777020 0.252850
H37   H     H_    0.772731 0.562170 0.784370 0.256108
C64   C     C_3   0.867184 0.120180 0.502605 -0.753502
H38   H     H_    0.892188 0.041514 0.500942 0.199453
H39   H     H_    0.843226 0.103501 0.590113 0.269002
H40   H     H_    0.846004 0.116086 0.406320 0.268099

loop_
_geom_bond_atom_site_label_1
_geom_bond_atom_site_label_2
_ccdc_geom_bond_type
C10   C27   A    
C32   C59   S    
C21   C26   A    
N3    Zn2   S    
C24   H3    S    
C41   C42   A    
C62   H32   S    
C7    C55   A    
C21   C63   S    
C44   H26   S    
C53   C54   A    
C40   C46   A    
O5    Zn2   S    
C12   O6    A    
C54   C61   S    
C19   N2    A    
O8    Zn1   S    
C5    C6    A    
C36   H8    S    
C9    C22   A    
C63   H35   S    
C56   C57   A    
C20   N2    A    
C18   C19   A    
C25   H5    S    
C53   H10   S    
C47   H11   S    
C8    C58   A    
C6    C62   S    
C33   H4    S    
C63   H36   S    
C23   O8    A    
C26   N2    S    
C61   H29   S    
C35   H6    S    
O6    Zn1   S    
C8    C12   S    
C55   O3    S    
C19   O4    S    
C3    N1    S    
O1    Zn1   S    
C16   C20   A    
C55   N1    A    
C23   C46   S    
C23   O9    A    
C21   C22   A    
C27   C30   A    
C61   H30   S    
C36   C41   A    
C4    C7    A    
C4    C28   A    
O7    Zn2   S    
C44   C46   A    
C17   C18   A    
C64   H39   S    
C7    C31   A    
C20   O2    S    
C51   C52   A    
C24   C25   A    
C10   C14   A    
C39   C40   A    
C30   H15   S    
C16   C17   A    
C49   H27   S    
C59   H20   S    
C58   H1    S    
C31   H17   S    
C5    C45   A    
C56   H2    S    
C57   H16   S    
C53   N3    A    
C43   C44   A    
C37   C38   A    
C8    C57   A    
C3    C56   A    
C47   C48   A    
O10   Zn1   S    
C43   H7    S    
C63   H37   S    
C50   C51   A    
C62   H33   S    
C34   O10   A    
O11   Zn2   S    
C59   H19   S    
C45   O12   S    
C2    C60   S    
C12   O7    A    
C40   C41   A    
C6    C30   A    
C11   C32   A    
C49   C50   A    
C60   H22   S    
C9    C34   S    
C1    O1    A    
C61   H31   S    
C31   C35   A    
C42   C43   A    
C52   N3    A    
C28   C29   A    
C22   H13   S    
C64   H40   S    
C36   C37   A    
C14   H14   S    
C48   H12   S    
C4    C5    A    
C10   C13   A    
C64   H38   S    
C2    C58   A    
C9    C24   A    
C39   H25   S    
C47   C52   A    
N4    Zn1   S    
C1    O5    A    
C60   H23   S    
C29   C35   A    
C13   C17   A    
C45   N1    A    
C32   C33   A    
C2    C3    A    
C25   C26   A    
C34   O11   A    
C38   H24   S    
C11   C13   A    
C38   C39   A    
C48   C49   A    
C37   H9    S    
C15   C64   S    
C62   H34   S    
C59   H18   S    
C18   C33   A    
C51   N4    A    
C1    C42   S    
C11   C29   A    
C60   H21   S    
C27   C28   A    
C50   H28   S    
C14   C15   A    
O9    Zn2   S    
C15   C16   A    
C54   N4    A    
