data_mof_unit_17505.cif
_audit_creation_date              2012-12-10T20:25:42-0500
_audit_creation_method            fapswitch 2.2
_symmetry_space_group_name_H-M    P1
_symmetry_Int_Tables_number       1
_space_group_crystal_system       triclinic
_cell_length_a                    8.565095
_cell_length_b                    10.775818
_cell_length_c                    9.919183
_cell_angle_alpha                 89.347534
_cell_angle_beta                  98.393137
_cell_angle_gamma                 90.758256
_cell_volume                      905.574118053

loop_
_atom_site_label
_atom_site_type_symbol
_atom_type_description
_atom_site_fract_x
_atom_site_fract_y
_atom_site_fract_z
_atom_type_partial_charge
C1    C     C_R   0.495328 0.260498 0.499710 0.890735
C2    C     C_R   0.365068 0.473722 0.912624 0.242229
C3    C     C_3   0.272200 0.355697 0.899771 -0.491995
C4    C     C_R   0.201920 0.508191 0.464775 0.861341
C5    C     C_3   0.269259 0.358524 0.052115 -0.503652
C6    C     C_R   0.495248 0.739637 0.498347 0.880660
C7    C     C_R   0.798279 0.506246 0.535185 1.000602
C8    C     C_2   0.041347 0.541942 0.450173 -0.205954
C9    C     C_2   0.963650 0.506315 0.552267 -0.350393
C10   C     C_R   0.526918 0.062249 0.618483 0.059824
C11   C     C_R   0.491192 0.128712 0.497719 -0.088498
C12   C     C_R   0.449059 0.938946 0.371603 -0.013372
C13   C     C_R   0.455125 0.067075 0.373633 -0.239377
C14   C     C_2   0.982011 0.630485 0.338448 0.398286
C15   C     C_2   0.765077 0.600209 0.894855 0.481257
C16   C     C_1   0.380085 0.881084 0.245564 0.252543
C17   C     C_2   0.583314 0.881359 0.864359 0.410363
C18   C     C_1   0.275138 0.094069 0.707539 0.213268
C19   C     C_R   0.492812 0.872070 0.494881 -0.118045
C20   C     C_R   0.536791 0.935068 0.617100 -0.016848
C21   C     C_3   0.464790 0.921706 0.745841 -0.196579
C22   C     C_3   0.443321 0.061135 0.741145 -0.272277
C23   C     C_R   0.364860 0.474712 0.054678 0.256034
C24   C     C_R   0.628532 0.537594 0.088590 -0.049455
C25   C     C_R   0.628431 0.541167 0.945260 0.023214
H1    H     H_    0.153678 0.366386 0.839006 0.221738
H2    H     H_    0.033070 0.631390 0.244513 0.115516
H3    H     H_    0.747909 0.658635 0.804616 0.111079
H4    H     H_    0.705099 0.913500 0.873610 0.079238
H5    H     H_    0.343500 0.278927 0.869821 0.207491
H6    H     H_    0.149807 0.375045 0.079096 0.228985
H7    H     H_    0.334429 0.280853 0.108380 0.204398
H8    H     H_    0.020123 0.457324 0.642239 0.156943
H9    H     H_    0.422447 0.118424 0.279316 0.160298
H10   H     H_    0.353310 0.865644 0.733398 0.195306
H11   H     H_    0.508556 0.112846 0.828615 0.147996
H12   H     H_    0.731116 0.568392 0.156264 0.193077
N1    N     N_R   0.498950 0.499140 0.142680 -0.141117
N2    N     N_R   0.498950 0.499180 0.857030 -0.166499
N3    N     N_1   0.323085 0.834868 0.145277 -0.130879
N4    N     N_1   0.143340 0.119628 0.680821 -0.211171
O1    O     O_R   0.500020 0.316790 0.614690 -0.619924
O2    O     O_2   0.898168 0.588516 0.956925 -0.631401
O3    O     O_2   0.542615 0.813804 0.952543 -0.578090
O4    O     O_R   0.500000 0.316760 0.385350 -0.629581
O5    O     O_R   0.271760 0.500010 0.587850 -0.604979
O6    O     O_R   0.271740 0.499970 0.358500 -0.636784
O7    O     O_R   0.500000 0.683240 0.614650 -0.643717
O8    O     O_R   0.499980 0.683210 0.385310 -0.585565
O9    O     O_R   0.728260 0.500030 0.641500 -0.658308
O10   O     O_R   0.728240 0.499990 0.412150 -0.592079
O11   O     O_2   0.883295 0.707973 0.353478 -0.553566
Zn1   Zn    Zn3+2 0.500010 0.500020 0.653130 0.953390
Zn2   Zn    Zn3+2 0.499990 0.499980 0.346870 0.984296

loop_
_geom_bond_atom_site_label_1
_geom_bond_atom_site_label_2
_ccdc_geom_bond_type
C3    H5    S    
C24   N1    A    
C24   C25   A    
C21   H10   S    
C14   H2    S    
C17   C21   S    
C23   N1    A    
C17   H4    S    
C5    C23   S    
C19   C20   A    
N1    Zn2   S    
C4    C8    S    
O10   Zn2   S    
C5    H7    S    
C2    C3    S    
C17   O3    D    
C7    O10   A    
C13   H9    S    
O1    Zn1   S    
C4    O5    A    
C21   C22   S    
C25   N2    A    
C9    H8    S    
C6    C19   S    
C11   C13   A    
C1    O4    A    
C15   H3    S    
N2    Zn1   S    
C6    O7    A    
C16   N3    T    
O6    Zn2   S    
C12   C19   A    
O4    Zn2   S    
C24   H12   S    
C6    O8    A    
O7    Zn1   S    
C14   O11   D    
C15   C25   S    
O9    Zn1   S    
C10   C11   A    
C15   O2    D    
O8    Zn2   S    
C1    O1    A    
C22   H11   S    
C12   C13   A    
O5    Zn1   S    
C18   N4    T    
C2    C23   A    
C7    C9    S    
C8    C14   S    
C3    C5    S    
C20   C21   S    
C18   C22   S    
C2    N2    A    
C3    H1    S    
C10   C22   S    
C12   C16   S    
C7    O9    A    
C10   C20   A    
C8    C9    D    
C5    H6    S    
C4    O6    A    
C1    C11   S    
