data_mof_unit_28869.cif
_audit_creation_date              2013-03-05T16:02:40-0500
_audit_creation_method            fapswitch 2.2
_symmetry_space_group_name_H-M    P1
_symmetry_Int_Tables_number       1
_space_group_crystal_system       triclinic
_cell_length_a                    6.948582
_cell_length_b                    17.226409
_cell_length_c                    18.902369
_cell_angle_alpha                 106.092974
_cell_angle_beta                  89.769451
_cell_angle_gamma                 90.558239
_cell_volume                      2173.82756968

loop_
_atom_site_label
_atom_site_type_symbol
_atom_site_description
_atom_site_fract_x
_atom_site_fract_y
_atom_site_fract_z
_atom_type_partial_charge
O1    O     O_R   0.494360 0.415680 0.413760 -0.588877
O2    O     O_R   0.818810 0.432910 0.557230 -0.579650
O3    O     O_R   0.994290 0.584320 0.586240 -0.587944
C1    C     C_R   0.649903 0.415965 0.580638 0.939502
O4    O     O_R   0.823740 0.406440 0.412520 -0.588082
O5    O     O_R   0.999250 0.557660 0.440500 -0.568370
C2    C     C_R   0.654725 0.383771 0.384725 0.932858
O6    O     O_R   0.489400 0.442340 0.559500 -0.569563
O7    O     O_3   0.662500 0.549650 0.509350 -0.250663
V1    V     V_3+5 0.935340 0.490790 0.498270 1.176451
O8    O     O_R   0.329270 0.567090 0.442770 -0.567094
C3    C     C_R   0.161177 0.584449 0.419707 0.967523
O9    O     O_R   0.324340 0.593560 0.587480 -0.597558
C4    C     C_R   0.155319 0.616627 0.615037 0.932577
V2    V     V_3+5 0.435970 0.509210 0.501730 1.181016
O10   O     O_3   0.158940 0.450350 0.490650 -0.266503
C5    C     C_R   0.909790 0.605441 0.737182 -0.174126
C6    C     C_R   0.786483 0.599680 0.793230 -0.188844
C7    C     C_R   0.802711 0.654811 0.861502 -0.094615
C8    C     C_R   0.944006 0.715314 0.873856 0.473613
C9    C     C_R   0.032057 0.735597 0.812861 -0.066723
C10   C     C_R   0.027251 0.675186 0.743770 0.104836
C11   C     C_R   0.116477 0.813054 0.817205 -0.262219
C12   C     C_R   0.202177 0.826592 0.752799 -0.017344
C13   C     C_R   0.236848 0.759677 0.690231 0.070148
C14   C     C_R   0.143396 0.684218 0.684331 -0.209644
C15   C     C_R   0.253243 0.905608 0.747936 0.274247
C16   C     C_R   0.379604 0.914247 0.692717 -0.322729
C17   C     C_R   0.433988 0.847463 0.636275 0.510654
C18   C     C_R   0.354701 0.771929 0.632861 -0.301464
H1    H     H_    0.908035 0.553854 0.689719 0.149961
H2    H     H_    0.691225 0.547895 0.785745 0.158153
H3    H     H_    0.726219 0.642292 0.907268 0.193784
H4    H     H_    0.425472 0.973967 0.691108 0.203777
H5    H     H_    0.386911 0.724034 0.584215 0.185777
C19   C     C_1   0.112419 0.869189 0.137128 -0.153395
C20   C     C_1   0.119695 0.826527 0.180626 0.168692
C21   C     C_1   0.128874 0.775519 0.231830 0.080781
C22   C     C_1   0.136796 0.732344 0.274870 0.060875
C23   C     C_1   0.146064 0.680954 0.325754 0.122823
C24   C     C_1   0.153444 0.637410 0.368486 -0.267813
C25   C     C_1   0.641538 0.364123 0.632759 -0.317205
C26   C     C_1   0.637550 0.321590 0.676386 0.084520
C27   C     C_1   0.634377 0.271382 0.728304 0.037784
C28   C     C_1   0.631986 0.229076 0.772134 0.057652
C29   C     C_1   0.628655 0.178872 0.824041 0.171603
C30   C     C_1   0.624330 0.136308 0.867630 -0.146908
H6    H     H_    0.436506 0.138074 0.442887 0.177300
C31   C     C_R   0.764590 0.403546 0.242624 -0.231287
C32   C     C_R   0.817964 0.415817 0.175426 -0.222564
C33   C     C_R   0.806879 0.352696 0.110404 0.414567
C34   C     C_R   0.741058 0.276541 0.113825 -0.291455
C35   C     C_R   0.687577 0.262236 0.181480 0.071616
C36   C     C_R   0.699346 0.327193 0.247267 0.128531
C37   C     C_R   0.621649 0.184777 0.184092 -0.237443
C38   C     C_R   0.570291 0.172463 0.253029 0.073016
C39   C     C_R   0.579781 0.237777 0.318605 0.129741
C40   C     C_R   0.644039 0.315340 0.315930 -0.284653
C41   C     C_R   0.513819 0.095066 0.258219 -0.324460
C42   C     C_R   0.466570 0.081671 0.326156 0.413489
C43   C     C_R   0.472344 0.146708 0.389775 -0.204796
C44   C     C_R   0.528441 0.223359 0.386260 -0.214889
H7    H     H_    0.774843 0.454883 0.290860 0.136153
H8    H     H_    0.867711 0.475261 0.174435 0.174371
H9    H     H_    0.731549 0.228624 0.062991 0.143733
H10   H     H_    0.507920 0.044141 0.209556 0.156662
H11   H     H_    0.533680 0.270872 0.437533 0.124930
O11   O     O_R   0.775690 0.057750 0.940570 -0.544226
O12   O     O_R   0.441200 0.093570 0.087490 -0.600493
O13   O     O_R   0.265840 0.942320 0.059480 -0.567884
C45   C     C_R   0.610301 0.116367 0.115259 0.913761
O14   O     O_R   0.446270 0.067110 0.942790 -0.553856
O15   O     O_R   0.270950 0.915660 0.913750 -0.573962
C46   C     C_R   0.615341 0.084272 0.919571 0.971967
O16   O     O_R   0.770580 0.084400 0.086300 -0.604500
O17   O     O_3   0.602640 0.950400 0.990690 -0.250609
V3    V     V_3+5 0.329740 0.009200 0.001730 1.252741
O18   O     O_R   0.940900 0.906360 0.912450 -0.574477
C47   C     C_R   0.109289 0.881055 0.886547 1.107891
O19   O     O_R   0.935830 0.932820 0.057160 -0.557778
C48   C     C_R   0.103720 0.919514 0.083526 1.035282
V4    V     V_3+5 0.829130 0.990680 0.998180 1.261595
O20   O     O_3   0.106100 0.049590 0.009310 -0.269953
S1    S     S_3+6 0.590460 0.858838 0.566121 0.023577
O21   O     O_2   0.786198 0.829110 0.579113 -0.241178
O22   O     O_2   0.518203 0.809320 0.492373 -0.267808
O23   O     O_3   0.608783 0.956369 0.566415 -0.476310
H12   H     H_    0.481182 0.969727 0.549969 0.365206
N1    N     N_R   0.861891 0.365871 0.041034 0.242251
O24   O     O_R   0.920640 0.436774 0.037753 -0.366938
O25   O     O_R   0.854615 0.307082 0.980507 -0.407572
N2    N     N_R   0.415831 0.001912 0.330595 0.240452
O26   O     O_R   0.351637 0.990776 0.391863 -0.363919
O27   O     O_R   0.440577 0.939281 0.274249 -0.418713
S2    S     S_3+6 0.057456 0.728975 0.959337 -0.075168
O28   O     O_2   0.238472 0.778810 0.967258 -0.346171
O29   O     O_2   0.913101 0.765856 0.017938 -0.342067
O30   O     O_3   0.114710 0.637311 0.967781 -0.492231
H13   H     H_    0.157546 0.647210 0.019476 0.381625
N3    N     N_R   0.152692 0.976315 0.789263 0.231327
O31   O     O_R   0.965569 0.974399 0.791867 -0.401853
O32   O     O_R   0.239333 0.046288 0.806823 -0.414846

loop_
_geom_bond_atom_site_label_1
_geom_bond_atom_site_label_2
_geom_bond_distance
_ccdc_geom_bond_type
O23   H12   0.990743 S    
C31   H7    1.082015 S    
C32   H8    1.082645 S    
O12   V3    2.005503 S    
C7    C8    1.397027 A    
S1    O23   1.682154 S    
C1    O6    1.313017 A    
H6    C43   1.082647 S    
S2    O30   1.682150 S    
C39   C44   1.412457 A    
C35   C36   1.425749 A    
C34   C35   1.415401 A    
C3    C24   1.504562 S    
C18   H5    1.075951 S    
C19   C20   1.246893 T    
S1    O22   1.503686 D    
C41   H10   1.081496 S    
O5    C3    1.311613 A    
C21   C22   1.246873 T    
V3    O20   1.698086 S    
O11   C46   1.312151 A    
C31   C36   1.412542 A    
C38   C39   1.425747 A    
C6    C7    1.378280 A    
O12   C45   1.300807 A    
O13   C48   1.310045 A    
N3    O31   1.301417 A    
O14   V3    1.866870 S    
O8    V2    1.850139 S    
S1    O21   1.502803 D    
S2    O28   1.500230 D    
C11   C12   1.428278 A    
C12   C15   1.430676 A    
O1    V2    2.011862 S    
N1    O25   1.301631 A    
C17   C18   1.393037 A    
O7    V1    2.140732 S    
C2    C40   1.495117 S    
C42   N2    1.439909 S    
C16   H4    1.082470 S    
C41   C42   1.403401 A    
O9    C4    1.303074 A    
O13   V3    1.843763 S    
N3    O32   1.300474 A    
C5    C6    1.384094 A    
C35   C37   1.420291 A    
C15   N3    1.437592 S    
C33   C34   1.403377 A    
C12   C13   1.425776 A    
C17   S1    1.762757 S    
O14   C46   1.311945 A    
C7    H3    1.083932 S    
O17   V4    1.704220 S    
C22   C23   1.478709 S    
O4    C2    1.300022 A    
O18   C47   1.298389 A    
C13   C14   1.423933 A    
C28   C29   1.476820 S    
V4    O20   2.150539 S    
C4    C14   1.494557 S    
C42   C43   1.398388 A    
O2    C1    1.311194 A    
C26   C27   1.477044 S    
C20   C21   1.478521 S    
O18   V4    2.011454 S    
C19   C48   1.506731 S    
C37   C38   1.420693 A    
N2    O27   1.301180 A    
C32   C33   1.398965 A    
O15   C47   1.305090 A    
O17   V3    2.140661 S    
O3    C4    1.297242 A    
C44   H11   1.081881 S    
O19   V4    1.850179 S    
C23   C24   1.246883 T    
C8    S2    1.755958 S    
O30   H13   0.990711 S    
O6    V2    1.834717 S    
C9    C11   1.433742 A    
C5    H1    1.073594 S    
C6    H2    1.083153 S    
C25   C26   1.245807 T    
O2    V1    1.866792 S    
C27   C28   1.245868 T    
C36   C40   1.419607 A    
C13   C18   1.416873 A    
C29   C30   1.245677 T    
C16   C17   1.388998 A    
O1    C2    1.298005 A    
C30   C46   1.502565 S    
O19   C48   1.317232 A    
O5    V1    1.843934 S    
O8    C3    1.314111 A    
S2    O29   1.500032 D    
O16   V4    2.015679 S    
C5    C10   1.422658 A    
C38   C41   1.415344 A    
O11   V4    1.835147 S    
O9    V2    2.011562 S    
O7    V2    1.705447 S    
O4    V1    2.005586 S    
O3    V1    2.008999 S    
V1    O10   1.698146 S    
C33   N1    1.440942 S    
C45   O16   1.297369 A    
C39   C40   1.418738 A    
C1    C25   1.502619 S    
N2    O26   1.301677 A    
C43   C44   1.392215 A    
C8    C9    1.428017 A    
C31   C32   1.392541 A    
C10   C14   1.423023 A    
C15   C16   1.399547 A    
O15   V3    2.008986 S    
C11   C47   1.497368 S    
N1    O24   1.301695 A    
C9    C10   1.426850 A    
C37   C45   1.495595 S    
C34   H9    1.081087 S    
V2    O10   2.150564 S    
