data_mof_unit_12747.cif
_audit_creation_date              2013-03-05T15:52:29-0500
_audit_creation_method            fapswitch 2.2
_symmetry_space_group_name_H-M    P1
_symmetry_Int_Tables_number       1
_space_group_crystal_system       triclinic
_cell_length_a                    27.81462
_cell_length_b                    10.823336
_cell_length_c                    9.573419
_cell_angle_alpha                 90.042397
_cell_angle_beta                  89.903351
_cell_angle_gamma                 92.261152
_cell_volume                      2879.80007473

loop_
_atom_site_label
_atom_site_type_symbol
_atom_site_description
_atom_site_fract_x
_atom_site_fract_y
_atom_site_fract_z
_atom_type_partial_charge
O1    O     O_R   0.500000 0.319640 0.618810 -0.592533
O2    O     O_R   0.500000 0.319660 0.381240 -0.580824
C1    C     C_R   0.503427 0.262531 0.500554 0.802971
O3    O     O_R   0.430260 0.500010 0.618770 -0.562339
O4    O     O_R   0.430270 0.500030 0.381200 -0.584280
C2    C     C_R   0.407503 0.499737 0.500078 0.820053
Cu1   Cu    Cu3+1 0.500000 0.499990 0.640660 0.953765
Cu2   Cu    Cu3+1 0.500000 0.500010 0.359340 0.951144
O5    O     O_R   0.500000 0.680340 0.618760 -0.584036
O6    O     O_R   0.500000 0.680360 0.381190 -0.600508
O7    O     O_R   0.569730 0.499970 0.618800 -0.608752
O8    O     O_R   0.569740 0.499990 0.381230 -0.596876
C3    C     C_R   0.495621 0.736963 0.500864 0.830127
C4    C     C_R   0.592498 0.501163 0.499925 0.796746
C5    C     C_R   0.176272 0.395532 0.523497 0.535395
O9    O     O_2   0.199298 0.289675 0.544471 -0.529118
N1    N     N_R   0.202220 0.503650 0.501146 -0.470089
C6    C     C_R   0.180020 0.612334 0.478670 0.540151
C7    C     C_R   0.279168 0.516145 0.375201 -0.097960
C8    C     C_R   0.329274 0.514693 0.374694 -0.207891
C9    C     C_R   0.328791 0.487576 0.626310 -0.182850
C10   C     C_R   0.278675 0.488538 0.626412 -0.094141
C11   C     C_R   0.253741 0.502931 0.500951 0.352854
C12   C     C_R   0.102032 0.504793 0.500788 -0.043474
C13   C     C_R   0.125773 0.394092 0.523799 -0.020541
C14   C     C_R   0.098772 0.284366 0.545441 -0.143843
C15   C     C_R   0.129582 0.614925 0.478006 -0.023831
C16   C     C_R   0.354565 0.500545 0.500348 -0.039432
H1    H     H_    0.347286 0.476324 0.724671 0.170015
H2    H     H_    0.259157 0.478395 0.723956 0.142679
H3    H     H_    0.116157 0.197663 0.561447 0.187902
C17   C     C_R   0.645460 0.504000 0.499788 -0.035970
C18   C     C_R   0.972645 0.395325 0.531588 0.042086
C19   C     C_R   0.976459 0.616961 0.468670 0.042918
C20   C     C_R   0.949308 0.506401 0.499997 0.069294
C21   C     C_R   0.943804 0.289421 0.567939 -0.203740
C22   C     C_R   0.893930 0.291497 0.568753 -0.136275
C23   C     C_R   0.870670 0.399131 0.534048 -0.023512
C24   C     C_R   0.898163 0.506913 0.499755 -0.042729
C25   C     C_R   0.874366 0.615191 0.465232 -0.024610
C26   C     C_R   0.823850 0.613686 0.465625 0.541893
N2    N     N_R   0.797945 0.507882 0.499486 -0.471421
C27   C     C_R   0.820244 0.401595 0.533315 0.541139
C28   C     C_R   0.721020 0.498590 0.625889 -0.086591
C29   C     C_R   0.670877 0.496753 0.626147 -0.209946
C30   C     C_R   0.671142 0.514488 0.373434 -0.164147
C31   C     C_R   0.721303 0.516660 0.373548 -0.078021
C32   C     C_R   0.746388 0.508205 0.499659 0.342594
O10   O     O_2   0.793664 0.298362 0.565081 -0.516904
C33   C     C_R   0.023722 0.393759 0.526802 0.043806
C34   C     C_R   0.050890 0.505344 0.500525 0.068551
C35   C     C_R   0.027569 0.617459 0.473964 0.042924
C36   C     C_R   0.048849 0.283845 0.546571 -0.203959
H4    H     H_    0.652082 0.489100 0.725128 0.165518
H5    H     H_    0.740236 0.492417 0.723758 0.147709
H6    H     H_    0.873614 0.207745 0.597118 0.193265
H7    H     H_    0.958498 0.203131 0.598829 0.140483
H8    H     H_    0.031133 0.194593 0.561087 0.137621
O11   O     O_2   0.206698 0.717605 0.457823 -0.522261
C37   C     C_R   0.106361 0.725189 0.456075 -0.140831
H9    H     H_    0.348151 0.525106 0.276111 0.166163
H10   H     H_    0.260023 0.527079 0.277870 0.143469
H11   H     H_    0.126724 0.811471 0.440196 0.190316
C38   C     C_R   0.951273 0.723418 0.432098 -0.203971
C39   C     C_R   0.901332 0.722330 0.430775 -0.139231
O12   O     O_2   0.800781 0.717311 0.433568 -0.508645
C40   C     C_R   0.056468 0.726782 0.454415 -0.203240
H12   H     H_    0.968953 0.809402 0.401459 0.139579
H13   H     H_    0.652549 0.520979 0.274556 0.164053
H14   H     H_    0.883905 0.806459 0.402279 0.191291
H15   H     H_    0.740731 0.524009 0.275601 0.147514
H16   H     H_    0.041811 0.816358 0.439630 0.138027
H17   H     H_    0.498867 0.110687 0.277848 0.159047
C41   C     C_R   0.526476 0.113468 0.756329 -0.143703
H18   H     H_    0.547621 0.199406 0.757748 0.170606
C42   C     C_R   0.518875 0.052784 0.883271 -0.178228
H19   H     H_    0.532165 0.094398 0.979310 0.160867
C43   C     C_R   0.490763 0.943786 0.887381 -0.157901
H20   H     H_    0.480008 0.904884 0.987341 0.153628
C44   C     C_R   0.475046 0.887636 0.763213 0.183366
C45   C     C_R   0.490604 0.937653 0.632591 0.043724
C46   C     C_R   0.508205 0.061337 0.630583 0.074131
C47   C     C_R   0.506126 0.127639 0.502966 -0.101122
C48   C     C_R   0.499414 0.063009 0.377270 -0.173999
H21   H     H_    0.492972 0.887547 0.278341 0.163401
C49   C     C_R   0.494176 0.935528 0.377727 -0.160001
C50   C     C_R   0.490479 0.871071 0.504390 -0.096229
H22   H     H_    0.446610 0.358091 0.129516 0.136304
C51   C     C_R   0.562955 0.666546 0.143805 -0.266823
H23   H     H_    0.566038 0.670619 0.253588 0.237984
C52   C     C_R   0.593318 0.750831 0.072136 0.310462
C53   C     C_R   0.593008 0.749295 0.927327 -0.268755
H24   H     H_    0.616352 0.812566 0.868396 0.207978
C54   C     C_R   0.562957 0.666096 0.855646 -0.218432
H25   H     H_    0.566606 0.672498 0.745683 0.223301
C55   C     C_R   0.530924 0.581867 0.925056 0.226103
C56   C     C_R   0.530921 0.581951 0.074570 0.159504
N3    N     N_R   0.500460 0.501210 0.147910 -0.186559
C57   C     C_R   0.470646 0.421991 0.074046 -0.053639
H26   H     H_    0.446649 0.358128 0.870538 0.142167
C58   C     C_R   0.470663 0.422019 0.925973 -0.046234
N4    N     N_R   0.500480 0.501290 0.852040 -0.186648
I1    I     I_    0.414465 0.762689 0.784140 -0.361037
N5    N     N_R   0.624599 0.837336 0.146714 0.135663
O13   O     O_R   0.624945 0.839729 0.282674 -0.362321
O14   O     O_R   0.652710 0.915647 0.079194 -0.331298

loop_
_geom_bond_atom_site_label_1
_geom_bond_atom_site_label_2
_geom_bond_distance
_ccdc_geom_bond_type
C58   N4    1.366627 A    
C55   N4    1.381687 A    
C26   N2    1.367570 A    
C20   C24   1.422794 A    
C7    C8    1.394413 A    
C12   C15   1.408327 A    
C52   N5    1.442289 S    
N5    O14   1.301698 A    
C56   N3    1.383819 A    
Cu1   Cu2   2.693194 S    
H21   C49   1.083553 S    
Cu1   O7    1.950429 S    
N1    C11   1.433350 S    
C41   C42   1.393678 A    
C37   H11   1.083589 S    
C38   H12   1.075983 S    
C21   C22   1.388317 A    
C42   C43   1.389903 A    
C40   H16   1.075997 S    
C15   C37   1.395399 A    
C23   C24   1.408097 A    
O7    C4    1.301257 A    
C43   C44   1.397581 A    
C5    C13   1.404077 A    
C7    H10   1.082867 S    
C39   H14   1.083577 S    
C18   C21   1.416193 A    
Cu1   O5    1.963370 S    
C19   C20   1.421505 A    
C17   C29   1.405957 A    
C8    H9    1.083000 S    
Cu2   N3    2.024175 S    
C53   H24   1.083099 S    
C30   H13   1.083073 S    
O5    C3    1.292936 A    
C22   H6    1.083590 S    
C2    C16   1.472816 S    
C47   C48   1.400497 A    
C37   C40   1.388677 A    
Cu1   N4    2.023732 S    
C51   C52   1.397992 A    
H17   C48   1.083451 S    
C12   C34   1.422764 A    
C14   H3    1.083599 S    
C9    C10   1.394414 A    
C41   C46   1.415720 A    
O3    Cu1   1.951441 S    
C19   C38   1.416349 A    
N5    O13   1.301880 A    
C45   C46   1.407271 A    
C33   C36   1.416305 A    
C41   H18   1.080767 S    
C44   I1    2.127851 S    
C34   C35   1.421618 A    
C12   C13   1.408349 A    
O3    C2    1.301574 A    
C21   H7    1.075950 S    
C52   C53   1.386437 A    
C49   C50   1.401013 A    
C27   O10   1.349835 S    
C8    C16   1.406056 A    
C33   C34   1.421511 A    
C18   C33   1.422104 A    
C9    H1    1.083017 S    
C51   C56   1.417141 A    
O1    C1    1.294638 A    
C7    C11   1.399749 A    
C22   C23   1.395300 A    
C31   C32   1.400306 A    
Cu2   O8    1.951436 S    
C55   C56   1.431363 A    
C3    C50   1.464491 S    
C53   C54   1.386402 A    
N1    C6    1.367287 A    
N2    C32   1.434179 S    
C42   H19   1.082697 S    
C54   C55   1.414673 A    
C31   H15   1.082861 S    
C45   C50   1.422728 A    
C35   C40   1.416313 A    
C25   C26   1.404534 A    
C57   C58   1.417565 A    
C9    C16   1.406126 A    
O8    C4    1.301478 A    
C29   H4    1.083109 S    
N3    C57   1.366701 A    
C25   C39   1.395417 A    
C1    C47   1.465068 S    
N2    C27   1.367659 A    
C14   C36   1.388408 A    
C24   C25   1.408307 A    
C28   C29   1.394044 A    
C5    N1    1.367216 A    
C30   C31   1.394490 A    
C10   H2    1.082851 S    
O1    Cu1   1.963011 S    
C17   C30   1.406157 A    
O2    Cu2   1.963370 S    
C6    C15   1.404328 A    
C4    C17   1.472233 S    
C44   C45   1.422934 A    
O6    C3    1.306571 A    
O4    Cu2   1.950432 S    
C36   H8    1.075975 S    
C26   O12   1.349727 S    
C19   C35   1.422403 A    
C38   C39   1.388751 A    
O2    C1    1.304681 A    
C13   C14   1.395272 A    
C23   C27   1.403903 A    
C43   H20   1.082706 S    
C28   H5    1.082879 S    
O4    C2    1.301396 A    
H26   C58   1.081756 S    
C18   C20   1.421589 A    
C54   H25   1.059488 S    
H22   C57   1.081729 S    
C28   C32   1.400213 A    
C6    O11   1.349732 S    
Cu2   O6    1.963011 S    
C46   C47   1.419766 A    
C10   C11   1.399809 A    
C48   C49   1.381723 A    
C51   H23   1.055382 S    
C5    O9    1.349769 S    
