data_mof_unit_17619.cif
_audit_creation_date              2013-03-05T15:58:29-0500
_audit_creation_method            fapswitch 2.2
_symmetry_space_group_name_H-M    P1
_symmetry_Int_Tables_number       1
_space_group_crystal_system       triclinic
_cell_length_a                    11.482364
_cell_length_b                    12.809957
_cell_length_c                    13.073951
_cell_angle_alpha                 82.736429
_cell_angle_beta                  93.886799
_cell_angle_gamma                 102.518379
_cell_volume                      1860.62685114

loop_
_atom_site_label
_atom_site_type_symbol
_atom_site_description
_atom_site_fract_x
_atom_site_fract_y
_atom_site_fract_z
_atom_type_partial_charge
O1    O     O_R   0.471500 0.366730 0.627160 -0.597417
O2    O     O_R   0.509620 0.544830 0.662520 -0.657095
C1    C     C_R   0.469124 0.441101 0.688309 0.896512
O3    O     O_R   0.646490 0.410960 0.482310 -0.650418
O4    O     O_R   0.684610 0.589050 0.517670 -0.578608
C2    C     C_R   0.717612 0.501186 0.501376 0.892781
Zn1   Zn    Zn3+2 0.474550 0.381080 0.476390 0.915320
Zn2   Zn    Zn3+2 0.525450 0.618920 0.523610 0.998410
O5    O     O_R   0.490380 0.455170 0.337480 -0.634794
O6    O     O_R   0.528500 0.633270 0.372840 -0.555597
O7    O     O_R   0.315390 0.410950 0.482330 -0.651361
O8    O     O_R   0.353510 0.589040 0.517690 -0.524037
C3    C     C_R   0.512028 0.559268 0.309030 0.851925
C4    C     C_R   0.282331 0.498214 0.500077 0.866034
C5    C     C_1   0.839053 0.502652 0.504825 -0.150156
C6    C     C_1   0.941067 0.499903 0.506710 0.010509
C7    C     C_1   0.058885 0.495263 0.506573 -0.003793
C8    C     C_1   0.160913 0.494031 0.504004 -0.194376
C9    C     C_R   0.577021 0.720339 0.050331 0.004245
H1    H     H_    0.643200 0.737565 0.207638 0.198465
C10   C     C_R   0.509176 0.592373 0.198770 -0.255519
C11   C     C_R   0.375972 0.299511 0.829044 0.343357
C12   C     C_R   0.377024 0.269213 0.936306 0.373492
C13   C     C_R   0.417724 0.347896 0.003368 0.370293
C14   C     C_R   0.428689 0.458817 0.965560 -0.058504
C15   C     C_R   0.420708 0.488115 0.858792 -0.147210
C16   C     C_R   0.454791 0.542875 0.029260 0.129566
C17   C     C_R   0.502749 0.649258 0.985808 -0.024507
C18   C     C_R   0.465057 0.679069 0.882835 -0.131584
C19   C     C_R   0.410122 0.595406 0.822897 -0.016002
C20   C     C_R   0.432600 0.526418 0.134015 -0.014087
C21   C     C_R   0.582897 0.688006 0.156960 -0.199191
C22   C     C_R   0.419309 0.408837 0.792021 -0.356739
C23   C     C_R   0.321104 0.093243 0.347301 -0.046726
H2    H     H_    0.319127 0.261691 0.326447 0.181487
H3    H     H_    0.255577 0.887078 0.347916 0.144687
N1    N     N_R   0.440320 0.222190 0.444690 -0.184989
C24   C     C_R   0.654541 0.806050 0.621683 -0.059849
C25   C     C_R   0.707440 0.915662 0.626375 -0.160577
C26   C     C_R   0.659234 0.993202 0.562204 0.415754
C27   C     C_R   0.544554 0.964552 0.513802 -0.118006
C28   C     C_R   0.502281 0.853989 0.498890 0.068894
C29   C     C_R   0.476926 0.043465 0.471644 0.029681
C30   C     C_R   0.380128 0.015199 0.401096 -0.029767
C31   C     C_R   0.339791 0.908918 0.388169 -0.366834
C32   C     C_R   0.404305 0.829998 0.423907 0.567640
C33   C     C_R   0.493828 0.148018 0.502149 0.051732
C34   C     C_R   0.359290 0.198633 0.367303 -0.013464
N2    N     N_R   0.559060 0.776980 0.554780 -0.150298
C35   C     C_2   0.221295 0.067878 0.270301 0.383843
H4    H     H_    0.219459 0.006769 0.219531 0.061061
O9    O     O_2   0.138712 0.114659 0.264031 -0.605789
C36   C     C_2   0.546922 0.173501 0.604529 0.597798
H5    H     H_    0.607785 0.249438 0.612680 0.100382
O10   O     O_2   0.523360 0.108880 0.681143 -0.552408
C37   C     C_2   0.707969 0.722086 0.682420 0.621776
H6    H     H_    0.660176 0.670506 0.744795 0.028408
O11   O     O_2   0.808547 0.713103 0.665923 -0.535821
O12   O     O_3   0.724660 0.097871 0.547592 -0.687978
C38   C     C_3   0.804607 0.107163 0.468005 0.035658
H7    H     H_    0.755399 0.084728 0.394837 0.159535
H8    H     H_    0.869998 0.054527 0.490008 0.154983
C39   C     C_3   0.872521 0.224180 0.450523 -0.376531
H9    H     H_    0.809235 0.276298 0.420214 0.231210
H10   H     H_    0.912558 0.250565 0.525249 0.229967
C40   C     C_3   0.971872 0.238334 0.375005 -0.842472
H11   H     H_    0.935591 0.209300 0.300429 0.289226
H12   H     H_    0.040019 0.192676 0.408076 0.287016
H13   H     H_    0.015526 0.324781 0.360473 0.258339
C41   C     C_2   0.811727 0.953618 0.697174 0.447816
H14   H     H_    0.858970 0.037022 0.687654 0.094355
O13   O     O_2   0.843714 0.894644 0.769344 -0.580556
O14   O     O_3   0.371399 0.730912 0.385889 -0.583968
C42   C     C_3   0.310549 0.729292 0.286758 0.089549
H15   H     H_    0.335276 0.666058 0.248653 0.168123
H16   H     H_    0.341569 0.804114 0.233857 0.119573
C43   C     C_3   0.173152 0.702701 0.294615 -0.414458
H17   H     H_    0.148906 0.694172 0.376509 0.261579
H18   H     H_    0.135809 0.769994 0.252755 0.197547
C44   C     C_3   0.112591 0.600659 0.246935 -0.845538
H19   H     H_    0.132485 0.609036 0.163963 0.278918
H20   H     H_    0.014404 0.586921 0.253655 0.258470
H21   H     H_    0.143748 0.529904 0.287785 0.250374
C45   C     C_2   0.465614 0.793218 0.843750 0.459107
H22   H     H_    0.485864 0.823166 0.764271 0.107088
O15   O     O_2   0.440015 0.853959 0.899354 -0.520568
C46   C     C_2   0.660458 0.819541 0.008010 0.492538
H23   H     H_    0.681760 0.831756 0.927287 0.081763
O16   O     O_2   0.707988 0.888156 0.063290 -0.573477
C47   C     C_2   0.316335 0.458987 0.170922 0.457292
H24   H     H_    0.298173 0.443188 0.252148 0.067089
O17   O     O_2   0.235745 0.425492 0.109895 -0.594569
O18   O     O_3   0.328301 0.223316 0.762564 -0.546734
C48   C     C_3   0.217956 0.245306 0.719183 0.116341
H25   H     H_    0.233960 0.313399 0.656894 0.147082
H26   H     H_    0.164072 0.267572 0.777677 0.060806
C49   C     C_3   0.140493 0.146679 0.674889 -0.374922
H27   H     H_    0.122857 0.076707 0.735119 0.232175
H28   H     H_    0.053099 0.165953 0.647295 0.163796
C50   C     C_3   0.197212 0.115323 0.584897 -0.693654
H29   H     H_    0.215556 0.184976 0.524522 0.245229
H30   H     H_    0.135109 0.047791 0.551480 0.231742
H31   H     H_    0.281135 0.088988 0.611461 0.299465
O19   O     O_3   0.436808 0.314069 0.106729 -0.626270
C51   C     C_3   0.559858 0.317673 0.128803 0.056961
H32   H     H_    0.581297 0.343639 0.207039 0.188956
H33   H     H_    0.619838 0.377343 0.075314 0.117914
C52   C     C_3   0.586240 0.205363 0.129922 -0.277255
H34   H     H_    0.523787 0.146433 0.181269 0.239831
H35   H     H_    0.573148 0.180856 0.050746 0.262172
C53   C     C_3   0.714099 0.203434 0.168398 -0.968868
H36   H     H_    0.778343 0.259405 0.116486 0.271937
H37   H     H_    0.730187 0.120783 0.170200 0.295644
H38   H     H_    0.728934 0.227652 0.247529 0.260940
O20   O     O_3   0.349818 0.162306 0.978193 -0.598851
C54   C     C_3   0.225128 0.119029 0.973525 0.126082
H39   H     H_    0.210423 0.039792 0.021660 0.172173
H40   H     H_    0.194596 0.101284 0.894677 0.173834
C55   C     C_3   0.148055 0.188446 0.014277 -0.414125
H41   H     H_    0.185952 0.212804 0.089901 0.313329
H42   H     H_    0.148355 0.262874 0.960468 0.211079
C56   C     C_3   0.018817 0.127516 0.025292 -0.796883
H43   H     H_    0.978832 0.105808 0.949038 0.254848
H44   H     H_    0.966100 0.179219 0.055503 0.275024
H45   H     H_    0.014209 0.053009 0.079856 0.284062
C57   C     C_2   0.321669 0.611130 0.736235 0.512776
H46   H     H_    0.264876 0.540887 0.707342 0.023463
O21   O     O_2   0.308160 0.699869 0.697981 -0.575632

loop_
_geom_bond_atom_site_label_1
_geom_bond_atom_site_label_2
_geom_bond_distance
_ccdc_geom_bond_type
C40   H12   1.109005 S    
C46   H23   1.083868 S    
C39   H10   1.111436 S    
C27   C28   1.427762 A    
O18   C48   1.422418 S    
O14   C42   1.430405 S    
C4    C8    1.387752 S    
C53   H36   1.111037 S    
C19   C57   1.493594 S    
C49   H27   1.108580 S    
C24   N2    1.371534 A    
C43   H17   1.110604 S    
C52   H34   1.112300 S    
Zn1   O7    1.955046 S    
C10   C20   1.400572 A    
C57   H46   1.084336 S    
C42   H16   1.114293 S    
C38   C39   1.529079 S    
C17   C18   1.417109 A    
C45   O15   1.221257 D    
C9    C46   1.484972 S    
C44   H21   1.107694 S    
C24   C25   1.411124 A    
O7    C4    1.307287 A    
C55   C56   1.526602 S    
C40   H13   1.110271 S    
C9    C21   1.404584 A    
C5    C6    1.178001 T    
C54   H39   1.110588 S    
C38   H8    1.114571 S    
C28   C32   1.448408 A    
O5    C3    1.312154 A    
C2    C5    1.388223 S    
C54   H40   1.101336 S    
C6    C7    1.367080 S    
C42   C43   1.547812 S    
C35   O9    1.219998 D    
C12   C13   1.402403 A    
C41   H14   1.084213 S    
N1    C33   1.361833 A    
C33   C36   1.477637 S    
C55   H42   1.110502 S    
C40   H11   1.109950 S    
C39   C40   1.525398 S    
O12   C38   1.410789 S    
C26   O12   1.384428 S    
C27   C29   1.438764 A    
O3    Zn1   1.925994 S    
H2    C34   1.081423 S    
O19   C51   1.414752 S    
C49   H28   1.110807 S    
C35   H4    1.084506 S    
C36   O10   1.221363 D    
C10   C21   1.399986 A    
C23   C35   1.482328 S    
C42   H15   1.098115 S    
C16   C20   1.391423 A    
C23   C30   1.415893 A    
C13   C14   1.425631 A    
C18   C45   1.485521 S    
C44   H20   1.110524 S    
C25   C26   1.400544 A    
C48   C49   1.533200 S    
C14   C15   1.401003 A    
C31   C32   1.395485 A    
C50   H31   1.108577 S    
C38   H7    1.114794 S    
O1    C1    1.324501 A    
C29   C30   1.410037 A    
C18   C19   1.418738 A    
C51   H33   1.117826 S    
C15   C22   1.417350 A    
C47   O17   1.221205 D    
Zn2   O8    1.925995 S    
C20   C47   1.497736 S    
C50   H30   1.110697 S    
C7    C8    1.177839 T    
Zn1   N1    2.076877 S    
C43   H18   1.111560 S    
C3    C10   1.450503 S    
H3    C31   1.068285 S    
C53   H37   1.110644 S    
C51   C52   1.531273 S    
C45   H22   1.083624 S    
N1    C34   1.344712 A    
C48   H26   1.115708 S    
C9    C17   1.424110 A    
O3    C2    1.304217 A    
C26   C27   1.416102 A    
O8    C4    1.305630 A    
C15   C19   1.423228 A    
C46   O16   1.221467 D    
C11   O18   1.387850 S    
C23   C34   1.378534 A    
C37   H6    1.081657 S    
C56   H44   1.110597 S    
C49   C50   1.518725 S    
C30   C31   1.367795 A    
H1    C21   1.084009 S    
C43   C44   1.527753 S    
Zn1   O5    1.940658 S    
C11   C22   1.415036 A    
C57   O21   1.220058 D    
O1    Zn1   1.958427 S    
O2    Zn2   1.940658 S    
C44   H19   1.110837 S    
O6    C3    1.315767 A    
O4    Zn2   1.955047 S    
C55   H41   1.106837 S    
C52   C53   1.523647 S    
C36   H5    1.080470 S    
C14   C16   1.412748 A    
C51   H32   1.110798 S    
C54   C55   1.543591 S    
C56   H45   1.110716 S    
O2    C1    1.317435 A    
C47   H24   1.081458 S    
O4    C2    1.308533 A    
C52   H35   1.110543 S    
C50   H29   1.107478 S    
C25   C41   1.496070 S    
C37   O11   1.221131 D    
C53   H38   1.109016 S    
C48   H25   1.108599 S    
C28   N2    1.401455 A    
C12   O20   1.386010 S    
C39   H9    1.111384 S    
C24   C37   1.472349 S    
Zn2   O6    1.958425 S    
C16   C17   1.415782 A    
C1    C22   1.482392 S    
C11   C12   1.406934 A    
C41   O13   1.220227 D    
C13   O19   1.383780 S    
C56   H43   1.111180 S    
C29   C33   1.415063 A    
Zn2   N2    2.064745 S    
C32   O14   1.388193 S    
O20   C54   1.418996 S    
