data_mof_unit_52974.cif
_audit_creation_date              2012-12-11T17:15:57-0500
_audit_creation_method            fapswitch 2.2
_symmetry_space_group_name_H-M    P1
_symmetry_Int_Tables_number       1
_space_group_crystal_system       triclinic
_cell_length_a                    14.668557
_cell_length_b                    7.302443
_cell_length_c                    13.43294
_cell_angle_alpha                 90.000216
_cell_angle_beta                  99.764368
_cell_angle_gamma                 90.000089
_cell_volume                      1418.04250219

loop_
_atom_site_label
_atom_site_type_symbol
_atom_type_description
_atom_site_fract_x
_atom_site_fract_y
_atom_site_fract_z
_atom_type_partial_charge
O1    O     O_R   0.398210 0.494340 0.401550 -0.537818
O2    O     O_R   0.601790 0.994340 0.598450 -0.537817
O3    O     O_R   0.586310 0.821730 0.403360 -0.501094
O4    O     O_R   0.413690 0.321730 0.596640 -0.501090
C1    C     C_R   0.613273 0.655735 0.380061 0.727512
C2    C     C_R   0.386725 0.155735 0.619937 0.727415
O5    O     O_R   0.397970 0.823900 0.389580 -0.534791
O6    O     O_R   0.602030 0.323900 0.610420 -0.534782
O7    O     O_R   0.412100 0.996500 0.584560 -0.545995
O8    O     O_R   0.587900 0.496500 0.415440 -0.545947
C3    C     C_R   0.365300 0.655323 0.363156 0.720913
C4    C     C_R   0.634700 0.155324 0.636844 0.720946
O9    O     O_3   0.504860 0.661550 0.563990 -0.374968
O10   O     O_3   0.495140 0.161550 0.436010 -0.374950
V1    V     V_3+5 0.499100 0.935510 0.488130 1.491417
V2    V     V_3+5 0.500900 0.435510 0.511870 1.491437
C5    C     C_1   0.715824 0.144733 0.716977 -0.168660
C6    C     C_1   0.284176 0.644733 0.283023 -0.168634
C7    C     C_1   0.783842 0.133996 0.783466 -0.160620
C8    C     C_1   0.216158 0.633997 0.216534 -0.160610
C9    C     C_3   0.250087 0.315039 0.835250 -0.115283
C10   C     C_3   0.749907 0.815034 0.164743 -0.115336
H1    H     H_    0.196851 0.422997 0.819227 0.182496
H2    H     H_    0.803142 0.922994 0.180766 0.182503
C11   C     C_3   0.317640 0.333434 0.755036 0.601974
C12   C     C_3   0.682350 0.833431 0.244954 0.601967
H3    H     H_    0.201762 0.216499 0.575677 0.118361
H4    H     H_    0.798227 0.716541 0.424311 0.118298
C13   C     C_3   0.146374 0.118191 0.707602 0.051428
C14   C     C_3   0.853621 0.618199 0.292396 0.051365
C15   C     C_3   0.268208 0.966481 0.844334 0.433906
C16   C     C_3   0.731791 0.466476 0.155665 0.433895
C17   C     C_3   0.194816 0.128688 0.820887 -0.033451
C18   C     C_3   0.805181 0.628687 0.179110 -0.033414
C19   C     C_3   0.319220 0.147657 0.695270 -0.070833
C20   C     C_3   0.680775 0.647660 0.304726 -0.070765
C21   C     C_3   0.219349 0.110109 0.635554 0.030624
C22   C     C_3   0.780645 0.610129 0.364443 0.030643
C23   C     C_3   0.344281 0.986800 0.773217 -0.061400
C24   C     C_3   0.655719 0.486792 0.226782 -0.061423
H5    H     H_    0.343254 0.861444 0.725870 0.212260
H6    H     H_    0.656750 0.361439 0.274132 0.212300
H7    H     H_    0.101788 0.994058 0.696709 0.150428
H8    H     H_    0.898206 0.494065 0.303294 0.150440
O11   O     O_R   0.912140 0.786650 0.084610 -0.533658
O12   O     O_R   0.087860 0.286650 0.915390 -0.533662
O13   O     O_R   0.102040 0.454810 0.110430 -0.541795
O14   O     O_R   0.897960 0.954810 0.889570 -0.541798
C25   C     C_R   0.134855 0.623451 0.136630 0.725065
C26   C     C_R   0.865145 0.123451 0.863370 0.725059
O15   O     O_R   0.913690 0.457060 0.096650 -0.548442
O16   O     O_R   0.086310 0.957060 0.903350 -0.548442
O17   O     O_R   0.898200 0.284560 0.901540 -0.524037
O18   O     O_R   0.101800 0.784560 0.098460 -0.524035
C27   C     C_R   0.881268 0.623930 0.113064 0.769428
C28   C     C_R   0.118731 0.123930 0.886935 0.769407
O19   O     O_3   0.995160 0.617270 0.936040 -0.380050
O20   O     O_3   0.004840 0.117270 0.063960 -0.380045
V3    V     V_3+5 0.000900 0.343280 0.011870 1.439930
V4    V     V_3+5 0.999100 0.843280 0.988130 1.439929
O21   O     O_3   0.214435 0.937202 0.588348 -0.647183
H9    H     H_    0.231198 0.953861 0.520356 0.295171
O22   O     O_3   0.785556 0.437229 0.411659 -0.647180
H10   H     H_    0.768917 0.453937 0.479705 0.295142
C29   C     C_3   0.297829 0.353185 0.946253 -0.684384
H11   H     H_    0.364801 0.281588 0.966437 0.258228
H12   H     H_    0.313101 0.500366 0.959080 0.165823
H13   H     H_    0.253528 0.312606 0.001628 0.219186
C30   C     C_3   0.702168 0.853174 0.053739 -0.684450
H14   H     H_    0.635198 0.781570 0.033552 0.258226
H15   H     H_    0.686894 0.000357 0.040911 0.165815
H16   H     H_    0.746473 0.812597 0.998366 0.219203
O23   O     O_3   0.408618 0.372816 0.803191 -0.641260
H17   H     H_    0.411828 0.504316 0.821983 0.301311
O24   O     O_3   0.591371 0.872798 0.196801 -0.641242
H18   H     H_    0.588173 0.004267 0.177939 0.301285
O25   O     O_3   0.289265 0.477619 0.685960 -0.655188
H19   H     H_    0.221351 0.474946 0.664598 0.294890
O26   O     O_3   0.710718 0.977627 0.314026 -0.655159
H20   H     H_    0.778634 0.974970 0.335384 0.294871
O27   O     O_3   0.087388 0.269745 0.683568 -0.670721
H21   H     H_    0.046571 0.241458 0.618556 0.299757
O28   O     O_3   0.912609 0.769752 0.316426 -0.670727
H22   H     H_    0.953405 0.741505 0.381448 0.299783
C31   C     C_3   0.224594 0.774495 0.826101 -0.788411
H23   H     H_    0.179198 0.757147 0.752294 0.228285
H24   H     H_    0.282342 0.678956 0.827683 0.195877
H25   H     H_    0.189355 0.727896 0.888190 0.232925
C32   C     C_3   0.775407 0.274493 0.173899 -0.788406
H26   H     H_    0.820802 0.257150 0.247707 0.228269
H27   H     H_    0.717660 0.178953 0.172313 0.195877
H28   H     H_    0.810648 0.227895 0.111810 0.232931
O29   O     O_3   0.308133 0.974939 0.947684 -0.649523
H29   H     H_    0.347109 0.864835 0.966135 0.297791
O30   O     O_3   0.691865 0.474926 0.052315 -0.649521
H30   H     H_    0.652885 0.364827 0.033868 0.297789
C33   C     C_3   0.445230 0.988557 0.830905 -0.713192
H31   H     H_    0.456159 0.089774 0.892985 0.255453
H32   H     H_    0.463110 0.851554 0.864588 0.179419
H33   H     H_    0.495255 0.017392 0.779599 0.202929
C34   C     C_3   0.554769 0.488534 0.169094 -0.713201
H34   H     H_    0.543838 0.589743 0.107010 0.255451
H35   H     H_    0.536892 0.351525 0.135417 0.179428
H36   H     H_    0.504745 0.517374 0.220400 0.202931

loop_
_geom_bond_atom_site_label_1
_geom_bond_atom_site_label_2
_ccdc_geom_bond_type
O11   V4    S    
O29   H29   S    
C15   C31   S    
C3    C6    S    
O12   V3    S    
O23   H17   S    
O30   H30   S    
O1    C3    A    
O2    C4    A    
C2    O7    A    
C33   H31   S    
O17   V3    S    
C23   H5    S    
O18   V4    S    
O25   H19   S    
O5    C3    A    
C34   H34   S    
C11   O25   S    
C19   C21   S    
O14   C26   A    
C31   H23   S    
C23   C33   S    
C9    C17   S    
C25   O18   A    
C1    C20   S    
C13   C17   S    
C2    C19   S    
C14   C22   S    
C14   O28   S    
C30   H15   S    
O16   V4    S    
C24   C34   S    
O28   H22   S    
C29   H12   S    
C4    C5    S    
C15   C17   S    
C32   H27   S    
C10   C30   S    
C6    C8    T    
C17   C28   S    
C24   H6    S    
C18   C27   S    
C34   H35   S    
C13   H7    S    
C14   H8    S    
O21   H9    S    
C33   H32   S    
O14   V4    S    
C31   H24   S    
C10   C18   S    
C26   O17   A    
C14   C18   S    
C20   C24   S    
O4    C2    A    
O19   V4    S    
O15   C27   A    
O20   V3    S    
C15   O29   S    
O27   H21   S    
O26   H20   S    
C16   C18   S    
O4    V2    S    
C30   H16   S    
C19   C23   S    
O24   H18   S    
C13   O27   S    
C8    C25   S    
C16   C32   S    
H4    C22   S    
O6    C4    A    
C29   H13   S    
C12   O24   S    
O1    V2    S    
C32   H28   S    
O2    V1    S    
C11   C19   S    
C12   C20   S    
C34   H36   S    
C9    H1    S    
C10   H2    S    
O15   V3    S    
C13   C21   S    
C33   H33   S    
O3    V1    S    
C22   O22   S    
C31   H25   S    
C9    C11   S    
C9    C29   S    
O3    C1    A    
C21   O21   S    
O13   C25   A    
C12   O26   S    
C20   C22   S    
O7    V1    S    
C1    O8    A    
O8    V2    S    
C7    C26   S    
H3    C21   S    
O5    V1    S    
C5    C7    T    
C15   C23   S    
C11   O23   S    
C16   C24   S    
C30   H14   S    
O13   V3    S    
O22   H10   S    
C16   O30   S    
O11   C27   A    
O6    V2    S    
C29   H11   S    
C10   C12   S    
O9    V2    S    
O12   C28   A    
O10   V1    S    
C32   H26   S    
O16   C28   A    
