data_mof_unit_48459.cif
_audit_creation_date              2012-12-10T18:04:02-0500
_audit_creation_method            fapswitch 2.2
_symmetry_space_group_name_H-M    P1
_symmetry_Int_Tables_number       1
_space_group_crystal_system       triclinic
_cell_length_a                    10.791251
_cell_length_b                    9.522647
_cell_length_c                    10.86126
_cell_angle_alpha                 89.964275
_cell_angle_beta                  90.187072
_cell_angle_gamma                 90.057282
_cell_volume                      1116.11019284

loop_
_atom_site_label
_atom_site_type_symbol
_atom_type_description
_atom_site_fract_x
_atom_site_fract_y
_atom_site_fract_z
_atom_type_partial_charge
C1    C     C_R   0.262321 0.499991 0.503226 0.860669
C2    C     C_R   0.737721 0.500070 0.503504 0.862635
C3    C     C_R   0.428502 0.074373 0.418258 -0.011505
C4    C     C_R   0.571247 0.074437 0.581926 -0.011487
C5    C     C_R   0.428528 0.925566 0.418244 0.005657
C6    C     C_R   0.571079 0.925675 0.582030 0.010124
C7    C     C_R   0.499838 0.499902 0.262623 0.794536
C8    C     C_R   0.500167 0.499841 0.737357 0.846568
C9    C     C_R   0.499701 0.621393 0.061823 0.133228
C10   C     C_R   0.500052 0.621315 0.937873 0.161493
C11   C     C_R   0.499799 0.498221 0.130020 -0.096526
C12   C     C_R   0.500238 0.498113 0.869910 -0.083558
C13   C     C_R   0.500065 0.370082 0.064620 -0.207755
C14   C     C_R   0.500291 0.370030 0.935489 -0.201975
C15   C     C_3   0.499901 0.777392 0.928675 -0.439981
C16   C     C_3   0.499381 0.777536 0.070509 -0.475986
C17   C     C_R   0.063701 0.405086 0.434946 -0.219552
C18   C     C_R   0.935685 0.405234 0.434934 -0.216733
C19   C     C_R   0.871564 0.500192 0.509125 -0.163316
C20   C     C_R   0.128583 0.500106 0.508953 -0.165600
C21   C     C_R   0.935764 0.592687 0.587990 0.336273
C22   C     C_R   0.065263 0.592930 0.587676 0.342012
Cu1   Cu    Cu3+1 0.500000 0.640660 0.500000 1.002944
Cu2   Cu    Cu3+1 0.500000 0.359340 0.500000 0.961250
H1    H     H_    0.500112 0.270234 0.112441 0.167642
H2    H     H_    0.500489 0.270161 0.887811 0.170223
H3    H     H_    0.587138 0.818810 0.888318 0.212881
H4    H     H_    0.412037 0.818574 0.110722 0.198667
H5    H     H_    0.412926 0.818374 0.887003 0.230163
H6    H     H_    0.586219 0.819207 0.112022 0.211889
H7    H     H_    0.112291 0.332752 0.375126 0.168241
H8    H     H_    0.886489 0.333029 0.375072 0.174570
H9    H     H_    0.371104 0.130378 0.352842 0.118673
H10   H     H_    0.628420 0.130461 0.647542 0.134261
H11   H     H_    0.371123 0.869504 0.352869 0.119959
H12   H     H_    0.627775 0.869788 0.647943 0.168456
N1    N     N_R   0.500000 0.852070 0.500000 -0.163616
N2    N     N_R   0.500000 0.147940 0.500000 -0.165818
O1    O     O_R   0.319640 0.618740 0.499990 -0.546016
O2    O     O_R   0.680360 0.618740 0.500010 -0.548813
O3    O     O_R   0.319620 0.381170 0.499990 -0.585730
O4    O     O_R   0.680380 0.381170 0.500010 -0.589674
O5    O     O_R   0.499990 0.618810 0.319660 -0.591697
O6    O     O_R   0.500010 0.618810 0.680340 -0.562714
O7    O     O_R   0.499960 0.381240 0.319650 -0.598073
O8    O     O_R   0.500040 0.381240 0.680350 -0.598108
Cl1   Cl    Cl    0.855562 0.701717 0.692816 -0.595051
Cl2   Cl    Cl    0.146737 0.703578 0.691086 -0.553728

loop_
_geom_bond_atom_site_label_1
_geom_bond_atom_site_label_2
_ccdc_geom_bond_type
C16   H4    S    
Cu2   N2    S    
Cu1   Cu2   S    
C2    O2    A    
C7    O5    A    
Cu2   O4    S    
C9    C10   A    
C15   H3    S    
C8    C12   S    
Cu2   O8    S    
C17   C18   A    
C12   C14   A    
C6    N1    A    
C21   C22   A    
C14   H2    S    
C7    C11   S    
Cu2   O3    S    
C11   C13   A    
C13   H1    S    
C10   C12   A    
C2    O4    A    
Cu1   O1    S    
Cu2   O7    S    
C7    O7    A    
C1    O3    A    
C19   C21   A    
C9    C16   S    
C6    H12   S    
C22   Cl2   S    
C15   H5    S    
C4    H10   S    
C10   C15   S    
C9    C11   A    
C8    O6    A    
C17   H7    S    
C8    O8    A    
C18   H8    S    
C5    N1    A    
C3    H9    S    
C16   H6    S    
Cu1   O2    S    
C5    H11   S    
C17   C20   A    
Cu1   O5    S    
C4    C6    A    
C18   C19   A    
C4    N2    A    
C1    O1    A    
C1    C20   S    
C13   C14   A    
C3    C5    A    
C2    C19   S    
Cu1   N1    S    
Cu1   O6    S    
C15   C16   S    
C3    N2    A    
C20   C22   A    
C21   Cl1   S    
