data_mof_unit_27855.cif
_audit_creation_date              2012-12-11T14:07:41-0500
_audit_creation_method            fapswitch 2.2
_symmetry_space_group_name_H-M    P1
_symmetry_Int_Tables_number       1
_space_group_crystal_system       triclinic
_cell_length_a                    19.703243
_cell_length_b                    16.976644
_cell_length_c                    15.352176
_cell_angle_alpha                 89.990926
_cell_angle_beta                  53.230001
_cell_angle_gamma                 89.796171
_cell_volume                      4113.50759084

loop_
_atom_site_label
_atom_site_type_symbol
_atom_type_description
_atom_site_fract_x
_atom_site_fract_y
_atom_site_fract_z
_atom_type_partial_charge
C1    C     C_R   0.338338 0.172657 0.054639 -0.142058
C2    C     C_R   0.650397 0.815604 0.073931 0.198524
C3    C     C_R   0.210156 0.647268 0.982590 0.217650
C4    C     C_R   0.150403 0.315610 0.073927 0.199964
C5    C     C_R   0.693024 0.862755 0.678001 0.003223
C6    C     C_R   0.611483 0.184221 0.695754 -0.022114
C7    C     C_R   0.193045 0.362757 0.678023 -0.005367
C8    C     C_R   0.111498 0.684219 0.695743 -0.021157
C9    C     C_3   0.251459 0.216480 0.458331 -0.385978
C10   C     C_3   0.195966 0.872743 0.523777 -0.382997
C11   C     C_3   0.751456 0.716303 0.458494 -0.374282
C12   C     C_R   0.377362 0.801622 0.993064 -0.160917
C13   C     C_3   0.695959 0.372733 0.523772 -0.382392
C14   C     C_3   0.196662 0.264254 0.562404 -0.360171
C15   C     C_3   0.140938 0.823215 0.627837 -0.393906
C16   C     C_3   0.696656 0.764088 0.562555 -0.361175
C17   C     C_3   0.640897 0.323212 0.627835 -0.394935
C18   C     C_3   0.370889 0.218819 0.476787 -0.402493
C19   C     C_3   0.305995 0.763376 0.435965 -0.366355
C20   C     C_3   0.871058 0.719022 0.476615 -0.401336
C21   C     C_3   0.806014 0.263387 0.436027 -0.373158
C22   C     C_3   0.860317 0.825233 0.371301 -0.385549
C23   C     C_R   0.838337 0.672656 0.054637 -0.141138
C24   C     C_3   0.686324 0.266625 0.417938 -0.398694
C25   C     C_3   0.360543 0.325225 0.371353 -0.385422
C26   C     C_3   0.186265 0.766670 0.417961 -0.398197
C27   C     C_3   0.346070 0.236203 0.399553 0.368382
C28   C     C_3   0.249151 0.817690 0.422835 0.352973
C29   C     C_3   0.846050 0.736212 0.399537 0.362562
C30   C     C_3   0.749178 0.317671 0.422847 0.357936
C31   C     C_3   0.752309 0.819017 0.576449 0.346653
C32   C     C_3   0.657351 0.234222 0.598723 0.357979
C33   C     C_3   0.252333 0.319007 0.576473 0.348703
C34   C     C_R   0.877108 0.301686 0.993304 -0.179229
C35   C     C_3   0.157347 0.734226 0.598710 0.351551
C36   C     C_3   0.816156 0.768766 0.580877 -0.393519
C37   C     C_3   0.752292 0.215621 0.539994 -0.356183
C38   C     C_3   0.316005 0.268568 0.581038 -0.392962
C39   C     C_3   0.252287 0.715584 0.539910 -0.348183
C40   C     C_R   0.349508 0.828669 0.218961 -0.087278
C41   C     C_R   0.400175 0.199911 0.208189 -0.146607
C42   C     C_R   0.849532 0.328642 0.218976 -0.087062
C43   C     C_R   0.900173 0.699911 0.208178 -0.145208
C44   C     C_3   0.804523 0.874403 0.476037 -0.378584
C45   C     C_R   0.633236 0.894500 0.105533 -0.152412
C46   C     C_3   0.633127 0.216024 0.521123 -0.399126
C47   C     C_3   0.304743 0.374397 0.476100 -0.379557
C48   C     C_3   0.133063 0.716075 0.521159 -0.398186
C49   C     C_2   0.281581 0.686911 0.966372 -0.389645
C50   C     C_2   0.196206 0.261404 0.094573 -0.385681
C51   C     C_2   0.782044 0.186672 0.965356 -0.414146
C52   C     C_2   0.696198 0.761397 0.094579 -0.377181
C53   C     C_2   0.822256 0.246749 0.895105 0.561129
C54   C     C_2   0.703621 0.683173 0.073172 0.500967
C55   C     C_2   0.322490 0.746352 0.895194 0.516488
C56   C     C_R   0.669340 0.082541 0.050716 -0.159547
C57   C     C_2   0.203624 0.183179 0.073175 0.501664
C58   C     C_R   0.368576 0.887395 0.893113 -0.102210
C59   C     C_R   0.327068 0.085309 0.957057 -0.112379
C60   C     C_R   0.868663 0.387433 0.893012 -0.057525
C61   C     C_R   0.827067 0.585304 0.957059 -0.116240
C62   C     C_R   0.408601 0.107710 0.303263 -0.145773
C63   C     C_R   0.357774 0.921938 0.314895 -0.125176
C64   C     C_R   0.908582 0.607714 0.303273 -0.144763
C65   C     C_R   0.857791 0.421922 0.314905 -0.126918
C66   C     C_R   0.284255 0.145734 0.033178 -0.033242
C67   C     C_R   0.133245 0.394506 0.105524 -0.154573
C68   C     C_R   0.351868 0.810272 0.927996 -0.039056
C69   C     C_R   0.784253 0.645730 0.033178 -0.032206
C70   C     C_R   0.851593 0.310427 0.928249 -0.031700
C71   C     C_R   0.307284 0.862000 0.321913 -0.017046
C72   C     C_R   0.392728 0.186209 0.302156 0.000179
C73   C     C_R   0.807315 0.361972 0.321925 -0.016457
C74   C     C_R   0.892712 0.686213 0.302151 0.000002
C75   C     C_R   0.659041 0.179599 0.957480 -0.063855
C76   C     C_R   0.625322 0.800135 0.009474 -0.088729
C77   C     C_R   0.159006 0.679693 0.957712 -0.063562
C78   C     C_R   0.169133 0.582653 0.051163 -0.159640
C79   C     C_R   0.125321 0.300136 0.009479 -0.087220
C80   C     C_R   0.650940 0.828939 0.780617 -0.126732
C81   C     C_R   0.603239 0.198719 0.790137 -0.074508
C82   C     C_R   0.150943 0.328945 0.780639 -0.125096
C83   C     C_R   0.103257 0.698716 0.790129 -0.074673
C84   C     C_R   0.593116 0.106133 0.695800 -0.140397
C85   C     C_R   0.642241 0.922886 0.685087 -0.121650
C86   C     C_R   0.093125 0.606132 0.695793 -0.142031
C87   C     C_R   0.142267 0.422892 0.685095 -0.101064
C88   C     C_R   0.710377 0.147135 0.982007 0.222933
H1    H     H_    0.326969 0.218698 0.110169 0.100546
H2    H     H_    0.572727 0.337317 0.669810 0.162300
H3    H     H_    0.150216 0.299413 0.559470 0.179161
H4    H     H_    0.072764 0.837344 0.669880 0.161908
H5    H     H_    0.159698 0.223293 0.632705 0.175473
H6    H     H_    0.157190 0.839620 0.683366 0.176636
H7    H     H_    0.659828 0.723130 0.632883 0.175316
H8    H     H_    0.657089 0.339648 0.683416 0.177017
H9    H     H_    0.360578 0.155874 0.501151 0.154053
H10   H     H_    0.352187 0.798862 0.438603 0.181513
H11   H     H_    0.860932 0.656080 0.500975 0.154241
H12   H     H_    0.388347 0.746487 0.018114 0.111572
H13   H     H_    0.852196 0.298890 0.438669 0.174211
H14   H     H_    0.782997 0.728060 0.651396 0.157819
H15   H     H_    0.771117 0.229750 0.593706 0.216882
H16   H     H_    0.282703 0.227845 0.651534 0.157576
H17   H     H_    0.271153 0.729654 0.593592 0.222896
H18   H     H_    0.928220 0.840254 0.328870 0.174902
H19   H     H_    0.720159 0.226408 0.346631 0.150446
H20   H     H_    0.428461 0.340110 0.329060 0.174850
H21   H     H_    0.220081 0.726454 0.346651 0.150448
H22   H     H_    0.843242 0.840949 0.316362 0.152855
H23   H     H_    0.826967 0.718698 0.110167 0.101115
H24   H     H_    0.644143 0.305042 0.410526 0.164825
H25   H     H_    0.343621 0.341075 0.316292 0.152685
H26   H     H_    0.144087 0.805105 0.410564 0.164648
H27   H     H_    0.762661 0.911964 0.467426 0.148396
H28   H     H_    0.564480 0.227647 0.563065 0.158357
H29   H     H_    0.263012 0.412101 0.467411 0.148689
H30   H     H_    0.064419 0.727742 0.563143 0.158763
H31   H     H_    0.844765 0.914181 0.485005 0.177369
H32   H     H_    0.645653 0.153228 0.495492 0.150906
H33   H     H_    0.345004 0.414038 0.485198 0.178549
H34   H     H_    0.887999 0.246533 0.018409 0.115339
H35   H     H_    0.145535 0.653278 0.495535 0.151075
H36   H     H_    0.439128 0.231920 0.435051 0.157479
H37   H     H_    0.343249 0.722427 0.365354 0.192575
H38   H     H_    0.939282 0.732281 0.434750 0.157692
H39   H     H_    0.843280 0.222421 0.365437 0.193136
H40   H     H_    0.331957 0.777144 0.195824 0.092090
H41   H     H_    0.398887 0.256370 0.176781 0.092360
H42   H     H_    0.832001 0.277095 0.195855 0.092450
H43   H     H_    0.898913 0.756366 0.176739 0.092237
H44   H     H_    0.857111 0.807700 0.589557 0.163468
H45   H     H_    0.232295 0.229640 0.404703 0.166260
H46   H     H_    0.765107 0.151720 0.519668 0.168152
H47   H     H_    0.356980 0.307365 0.589838 0.163852
H48   H     H_    0.265069 0.651686 0.519544 0.167662
H49   H     H_    0.283294 0.680729 0.035391 0.114818
H50   H     H_    0.242207 0.291897 0.099092 0.115630
H51   H     H_    0.784549 0.179725 0.033645 0.117044
H52   H     H_    0.742192 0.791890 0.099112 0.114286
H53   H     H_    0.366370 0.913142 0.830427 0.128858
H54   H     H_    0.304394 0.049938 0.920838 0.134482
H55   H     H_    0.867124 0.412918 0.829644 0.151787
H56   H     H_    0.155097 0.912224 0.515194 0.167192
H57   H     H_    0.804395 0.549923 0.920845 0.133255
H58   H     H_    0.415021 0.077142 0.359655 0.088763
H59   H     H_    0.348357 0.957410 0.379549 0.094327
H60   H     H_    0.914965 0.577150 0.359701 0.088365
H61   H     H_    0.848380 0.457387 0.379560 0.094138
H62   H     H_    0.667243 0.233489 0.915277 0.155697
H63   H     H_    0.624938 0.744645 0.976033 0.168108
H64   H     H_    0.167537 0.733550 0.915155 0.153326
H65   H     H_    0.124930 0.244643 0.976050 0.168191
H66   H     H_    0.669009 0.777364 0.803308 0.099121
H67   H     H_    0.732164 0.729309 0.404967 0.169440
H68   H     H_    0.607306 0.254692 0.820098 0.103506
H69   H     H_    0.169003 0.277381 0.803357 0.099046
H70   H     H_    0.107345 0.754683 0.820084 0.102495
H71   H     H_    0.586004 0.076411 0.639561 0.086263
H72   H     H_    0.651607 0.958013 0.620322 0.089137
H73   H     H_    0.086024 0.576408 0.639546 0.089469
H74   H     H_    0.151655 0.458008 0.620305 0.087570
H75   H     H_    0.638073 0.921916 0.165191 0.101078
H76   H     H_    0.690413 0.048578 0.090012 0.106583
H77   H     H_    0.138082 0.421920 0.165181 0.099851
H78   H     H_    0.655111 0.412207 0.515142 0.168551
H79   H     H_    0.190039 0.548761 0.090707 0.106504
H80   H     H_    0.239967 0.152579 0.478541 0.165908
H81   H     H_    0.237254 0.910613 0.532738 0.158184
H82   H     H_    0.740107 0.652401 0.478750 0.165617
H83   H     H_    0.737228 0.410610 0.532762 0.157795
H84   H     H_    0.952352 0.279769 0.603210 0.369614
H85   H     H_    0.659922 0.506513 0.107345 0.340692
H86   H     H_    0.452613 0.826275 0.667378 0.334817
H87   H     H_    0.159921 0.006528 0.107387 0.341912
H88   H     H_    0.650088 0.799118 0.559724 0.174526
N1    N     N_R   0.408680 0.130160 0.995800 -0.037479
N2    N     N_R   0.403730 0.078230 0.935950 -0.046249
N3    N     N_R   0.903730 0.421770 0.935950 -0.055745
N4    N     N_R   0.903730 0.578230 0.935950 -0.046908
N5    N     N_R   0.426630 0.075970 0.212960 -0.032745
N6    N     N_R   0.426630 0.924030 0.212960 -0.037315
N7    N     N_R   0.926630 0.575970 0.212960 -0.032662
N8    N     N_R   0.926630 0.424030 0.212960 -0.037771
N9    N     N_R   0.591320 0.134600 0.004200 -0.064644
N10   N     N_R   0.591320 0.865400 0.004200 -0.058863
N11   N     N_R   0.091320 0.634600 0.004200 -0.064428
N12   N     N_R   0.408680 0.869840 0.995800 -0.034156
N13   N     N_R   0.091320 0.365400 0.004200 -0.059525
N14   N     N_R   0.578320 0.867660 0.846880 -0.036384
N15   N     N_R   0.578320 0.132340 0.846880 -0.036144
N16   N     N_R   0.078320 0.367660 0.846880 -0.035963
N17   N     N_R   0.078320 0.632340 0.846880 -0.036892
N18   N     N_R   0.573370 0.074390 0.787040 -0.033146
N19   N     N_R   0.573370 0.925610 0.787040 -0.039669
N20   N     N_R   0.073370 0.574390 0.787040 -0.034727
N21   N     N_R   0.073370 0.425610 0.787040 -0.036807
N22   N     N_R   0.596270 0.927870 0.064040 -0.044439
N23   N     N_R   0.908680 0.630160 0.995800 -0.037988
N24   N     N_R   0.596270 0.072130 0.064040 -0.047043
N25   N     N_R   0.096270 0.427870 0.064040 -0.044332
N26   N     N_R   0.096270 0.572130 0.064040 -0.046818
N27   N     N_R   0.908680 0.369840 0.995800 -0.035201
N28   N     N_R   0.421680 0.867580 0.153120 -0.033044
N29   N     N_R   0.421680 0.132420 0.153120 -0.033873
N30   N     N_R   0.921680 0.367580 0.153120 -0.032850
N31   N     N_R   0.921680 0.632420 0.153120 -0.034007
N32   N     N_R   0.403730 0.921770 0.935950 -0.047855
Ni1   Ni    Ni4+2 0.500000 0.131190 0.000000 0.219658
Ni2   Ni    Ni4+2 0.500000 0.868810 0.000000 0.249810
Ni3   Ni    Ni4+2 0.000000 0.631190 0.000000 0.218832
Ni4   Ni    Ni4+2 0.000000 0.368810 0.000000 0.251053
Ni5   Ni    Ni4+2 0.488650 0.000000 0.862740 0.211991
Ni6   Ni    Ni4+2 0.988650 0.500000 0.862740 0.223809
Ni7   Ni    Ni4+2 0.511350 0.000000 0.137260 0.218451
Ni8   Ni    Ni4+2 0.011350 0.500000 0.137260 0.216751
O1    O     O_2   0.826123 0.173119 0.735582 -0.296689
O2    O     O_2   0.036824 0.166059 0.165596 -0.276222
O3    O     O_2   0.138153 0.099469 0.990986 -0.344717
O4    O     O_3   0.114000 0.041580 0.163808 -0.503360
O5    O     O_2   0.788476 0.313885 0.766211 -0.363379
O6    O     O_3   0.945203 0.275054 0.672590 -0.549876
O7    O     O_2   0.536827 0.666046 0.165559 -0.273054
O8    O     O_2   0.638176 0.599472 0.990941 -0.345193
O9    O     O_3   0.614002 0.541564 0.163767 -0.500646
O10   O     O_2   0.324530 0.671435 0.737648 -0.263683
O11   O     O_2   0.292734 0.812937 0.761707 -0.366875
O12   O     O_3   0.447904 0.768135 0.670697 -0.514376
S1    S     S_3+6 0.842847 0.251174 0.765546 -0.078657
S2    S     S_3+6 0.620324 0.623256 0.097216 -0.045193
S3    S     S_3+6 0.344300 0.749040 0.764811 -0.058259
S4    S     S_3+6 0.120317 0.123263 0.097249 -0.048151

loop_
_geom_bond_atom_site_label_1
_geom_bond_atom_site_label_2
_ccdc_geom_bond_type
O11   S3    D    
N32   Ni5   S    
C40   C71   A    
C49   H49   S    
C8    C83   A    
N7    N31   A    
H87   O4    S    
C23   C69   A    
C13   H83   S    
C6    C32   S    
C24   H24   S    
O3    S4    D    
N18   Ni5   S    
C53   S1    S    
C55   C68   S    
C3    C49   S    
C65   C73   A    
C16   C31   S    
C20   H38   S    
C12   C68   A    
N11   N26   A    
C20   H11   S    
C78   H79   S    
C81   H68   S    
C65   H61   S    
N6    N28   A    
C19   C39   S    
C22   C29   S    
O8    S2    D    
C10   C15   S    
C36   H44   S    
C59   C66   A    
C56   C88   A    
C83   H70   S    
N22   Ni7   S    
C75   H62   S    
C61   C69   A    
O10   S3    D    
C12   N12   A    
C23   N23   A    
N24   Ni7   S    
N8    N30   A    
C36   H14   S    
N1    Ni1   S    
N16   Ni4   S    
N21   Ni6   S    
H86   O12   S    
C81   N15   A    
C38   H16   S    
O1    S1    D    
C15   H4    S    
C64   N7    A    
N12   Ni2   S    
C19   H10   S    
N5    N29   A    
C7    C87   A    
C40   N28   A    
C44   H27   S    
C84   N18   A    
C22   H22   S    
C25   H20   S    
C63   H59   S    
C85   H72   S    
C58   N32   A    
C21   H39   S    
C6    C81   A    
C57   C66   S    
C14   H5    S    
C8    C86   A    
O7    S2    D    
C11   H67   S    
C20   C29   S    
C21   H13   S    
C67   H77   S    
C43   C74   A    
C31   C36   S    
C34   H34   S    
C63   N6    A    
C64   H60   S    
N26   Ni8   S    
N31   Ni3   S    
C7    C33   S    
N29   Ni1   S    
C75   N9    A    
C80   N14   A    
C48   H35   S    
C53   C70   S    
C77   H64   S    
C15   C35   S    
C17   H8    S    
C84   H71   S    
C52   C54   D    
C39   H48   S    
C59   N2    A    
C2    C45   A    
C22   C44   S    
C6    C84   A    
C31   C44   S    
O4    S4    S    
C43   N31   A    
C55   S3    S    
C13   C30   S    
C22   H18   S    
C86   N20   A    
C59   H54   S    
C4    C79   A    
N5    Ni7   S    
C86   H73   S    
C57   S4    S    
C85   N19   A    
C76   N10   A    
C48   H30   S    
C29   C74   S    
C44   H31   S    
N13   N25   A    
C45   N22   A    
C32   C37   S    
C19   H37   S    
C11   H82   S    
C4    C50   S    
C10   H81   S    
C8    C35   S    
C83   N17   A    
C35   C39   S    
C9    C14   S    
C26   H26   S    
N25   Ni8   S    
C14   C33   S    
C67   N25   A    
C25   H25   S    
C79   H65   S    
N20   Ni6   S    
C11   C16   S    
C18   C27   S    
C61   H57   S    
C18   C38   S    
C60   C70   A    
C34   N27   A    
N17   N20   A    
C7    C82   A    
C1    C66   A    
C46   H32   S    
C42   H42   S    
C24   H19   S    
C10   H56   S    
C38   H47   S    
C5    C80   A    
C19   C28   S    
C26   H21   S    
O2    S4    D    
C35   C48   S    
N8    Ni8   S    
C2    C52   S    
N14   N19   A    
N15   Ni1   S    
C41   C72   A    
C15   H6    S    
C58   C68   A    
C18   H9    S    
C63   C71   A    
N10   Ni2   S    
C79   N13   A    
N6    Ni7   S    
C77   N11   A    
N9    Ni1   S    
N27   Ni4   S    
C28   C71   S    
C87   N21   A    
N28   Ni2   S    
O6    S1    S    
C60   N3    A    
C2    C76   A    
C9    C27   S    
C37   H15   S    
N11   Ni3   S    
C10   C28   S    
N7    Ni8   S    
C30   C73   S    
C34   C70   A    
C25   C47   S    
N12   N32   A    
C42   C73   A    
C1    H1    S    
N2    Ni5   S    
C82   N16   A    
C45   H75   S    
C50   C57   D    
C32   C46   S    
C9    H80   S    
C9    H45   S    
C17   H2    S    
C78   N26   A    
N3    N27   A    
N13   Ni4   S    
C51   C88   S    
C39   H17   S    
C50   H50   S    
C80   H66   S    
C26   C48   S    
C25   C27   S    
C23   H23   S    
C21   C30   S    
C56   H76   S    
C26   C28   S    
O9    S2    S    
C76   H63   S    
C46   H28   S    
C62   C72   A    
C24   C46   S    
N4    Ni6   S    
N14   Ni2   S    
N15   N18   A    
C5    C85   A    
C60   H55   S    
N4    N23   A    
C49   C55   D    
N16   N21   A    
C62   N5    A    
C41   H41   S    
C16   H7    S    
C58   H53   S    
C16   H88   S    
C13   H78   S    
C82   H69   S    
C54   C69   S    
C5    C31   S    
C33   C47   S    
N3    Ni6   S    
C43   H43   S    
C52   H52   S    
C42   N30   A    
N23   Ni3   S    
N9    N24   A    
C41   N29   A    
C24   C30   S    
C14   H3    S    
C12   H12   S    
N17   Ni3   S    
C47   H33   S    
C27   C72   S    
C13   C17   S    
C20   C36   S    
N30   Ni4   S    
C75   C88   A    
C47   H29   S    
C87   H74   S    
C21   C37   S    
C11   C29   S    
C61   N4    A    
C18   H36   S    
N1    N2    A    
C62   H58   S    
O5    S1    D    
H84   O6    S    
C17   C32   S    
C64   C74   A    
C37   H46   S    
N10   N22   A    
C33   C38   S    
H85   O9    S    
C51   C53   D    
C3    C77   A    
C3    C78   A    
C1    N1    A    
C54   S2    S    
O12   S3    S    
C4    C67   A    
N19   Ni5   S    
C51   H51   S    
C56   N24   A    
C65   N8    A    
C40   H40   S    
