data_mof_unit_15181.cif
_audit_creation_date              2012-12-10T18:43:46-0500
_audit_creation_method            fapswitch 2.2
_symmetry_space_group_name_H-M    P1
_symmetry_Int_Tables_number       1
_space_group_crystal_system       triclinic
_cell_length_a                    10.789056
_cell_length_b                    10.657921
_cell_length_c                    9.84401
_cell_angle_alpha                 89.972425
_cell_angle_beta                  103.99478
_cell_angle_gamma                 90.034302
_cell_volume                      1098.3528166

loop_
_atom_site_label
_atom_site_type_symbol
_atom_type_description
_atom_site_fract_x
_atom_site_fract_y
_atom_site_fract_z
_atom_type_partial_charge
C1    C     C_R   0.504791 0.260212 0.501402 0.878262
C2    C     C_2   0.877431 0.522025 0.591216 -0.381164
C3    C     C_2   0.067965 0.548122 0.512221 -0.155190
C4    C     C_2   0.931880 0.547863 0.486757 -0.153297
C5    C     C_R   0.417520 0.068011 0.395221 -0.252006
C6    C     C_R   0.583837 0.931426 0.604624 -0.248329
C7    C     C_R   0.409463 0.938963 0.391973 0.091767
C8    C     C_R   0.592904 0.060449 0.607436 0.098616
C9    C     C_R   0.494237 0.872037 0.498315 -0.064635
C10   C     C_R   0.506882 0.127658 0.501947 -0.063103
C11   C     C_3   0.308050 0.877103 0.277689 -0.409309
C12   C     C_R   0.496080 0.739697 0.498869 0.863383
C13   C     C_3   0.352504 0.867931 0.141226 -0.303210
C14   C     C_3   0.260488 0.789204 0.032042 -0.873566
C15   C     C_3   0.698857 0.121121 0.718033 -0.429900
C16   C     C_3   0.806611 0.168224 0.654138 -0.319401
C17   C     C_3   0.914721 0.226408 0.765528 -0.894432
C18   C     C_R   0.258900 0.504039 0.441695 0.935762
C19   C     C_R   0.741028 0.505174 0.558244 0.940656
C20   C     C_R   0.577273 0.580002 0.092327 -0.077913
C21   C     C_R   0.422513 0.420194 0.907626 -0.081474
C22   C     C_R   0.577206 0.580007 0.948447 -0.075185
C23   C     C_R   0.422512 0.420259 0.051491 -0.078376
C24   C     C_2   0.122430 0.519813 0.408463 -0.390749
H1    H     H_    0.876531 0.558149 0.379134 0.183670
H2    H     H_    0.649732 0.876194 0.682713 0.142681
H3    H     H_    0.255740 0.691874 0.071008 0.271155
H4    H     H_    0.163460 0.831314 0.007872 0.252008
H5    H     H_    0.294598 0.785421 0.934334 0.250272
H6    H     H_    0.358919 0.963620 0.098408 0.207101
H7    H     H_    0.448850 0.824530 0.161576 0.237620
H8    H     H_    0.282901 0.782724 0.310714 0.207557
H9    H     H_    0.218359 0.932853 0.258727 0.184002
H10   H     H_    0.878442 0.306529 0.816828 0.265109
H11   H     H_    0.957155 0.155430 0.846007 0.256877
H12   H     H_    0.123364 0.561015 0.619446 0.188692
H13   H     H_    0.990420 0.261102 0.716017 0.252588
H14   H     H_    0.845445 0.088463 0.604530 0.221039
H15   H     H_    0.769539 0.239357 0.572061 0.215954
H16   H     H_    0.661221 0.198189 0.772101 0.229654
H17   H     H_    0.740123 0.051943 0.801391 0.191772
H18   H     H_    0.639061 0.643973 0.163133 0.118306
H19   H     H_    0.360565 0.356358 0.836794 0.130451
H20   H     H_    0.933206 0.511684 0.698507 0.151036
H21   H     H_    0.066687 0.506710 0.301540 0.149578
H22   H     H_    0.638948 0.643969 0.910240 0.121682
H23   H     H_    0.360573 0.356486 0.089656 0.123588
H24   H     H_    0.352093 0.122510 0.315906 0.146274
N1    N     N_R   0.499970 0.499970 0.857200 -0.079002
N2    N     N_R   0.500030 0.500030 0.142800 -0.074764
O1    O     O_R   0.499990 0.316750 0.614620 -0.624078
O2    O     O_R   0.500010 0.683250 0.385380 -0.622014
O3    O     O_R   0.499990 0.316780 0.385290 -0.621358
O4    O     O_R   0.500010 0.683220 0.614710 -0.622967
O5    O     O_R   0.317810 0.500000 0.571850 -0.613557
O6    O     O_R   0.682190 0.500000 0.428150 -0.617462
O7    O     O_R   0.317810 0.500030 0.342520 -0.623251
O8    O     O_R   0.682190 0.499970 0.657480 -0.618341
Zn1   Zn    Zn3+2 0.500000 0.499980 0.653120 0.931146
Zn2   Zn    Zn3+2 0.500000 0.500020 0.346880 0.929776

loop_
_geom_bond_atom_site_label_1
_geom_bond_atom_site_label_2
_ccdc_geom_bond_type
C19   O6    A    
C2    C4    D    
C14   H4    S    
O5    Zn1   S    
C14   H3    S    
C11   C13   S    
C18   O7    A    
C20   H18   S    
N1    Zn1   S    
N2    Zn2   S    
C6    C9    A    
C21   N1    A    
C4    H1    S    
C2    C19   S    
C5    C10   A    
C17   H13   S    
C13   C14   S    
C7    C11   S    
C1    O1    A    
C3    C24   D    
C6    H2    S    
C18   O5    A    
C22   N1    A    
C18   C24   S    
C24   H21   S    
C3    H12   S    
C12   O2    A    
O3    Zn2   S    
C20   C22   A    
C11   H8    S    
C8    C15   S    
C5    C7    A    
O4    Zn1   S    
C21   C23   A    
C19   O8    A    
C5    H24   S    
C15   H16   S    
O1    Zn1   S    
C9    C12   S    
C16   H15   S    
C3    C4    S    
C13   H6    S    
C11   H9    S    
C23   H23   S    
C6    C8    A    
C15   H17   S    
C8    C10   A    
C17   H10   S    
C16   H14   S    
C7    C9    A    
C1    O3    A    
C16   C17   S    
O7    Zn2   S    
C20   N2    A    
C17   H11   S    
O2    Zn2   S    
C22   H22   S    
O8    Zn1   S    
C21   H19   S    
C13   H7    S    
C15   C16   S    
C12   O4    A    
C1    C10   S    
O6    Zn2   S    
C2    H20   S    
C14   H5    S    
C23   N2    A    
