data_mof_unit_32143.cif
_audit_creation_date              2012-12-10T19:12:19-0500
_audit_creation_method            fapswitch 2.2
_symmetry_space_group_name_H-M    P1
_symmetry_Int_Tables_number       1
_space_group_crystal_system       triclinic
_cell_length_a                    7.799013
_cell_length_b                    9.085424
_cell_length_c                    17.08756
_cell_angle_alpha                 89.378601
_cell_angle_beta                  93.697441
_cell_angle_gamma                 90.015331
_cell_volume                      1208.18763701

loop_
_atom_site_label
_atom_site_type_symbol
_atom_type_description
_atom_site_fract_x
_atom_site_fract_y
_atom_site_fract_z
_atom_type_partial_charge
C1    C     C_R   0.500000 0.220076 0.500161 0.841394
C2    C     C_R   0.500177 0.779876 0.500851 0.820949
C3    C     C_R   0.521176 0.497590 0.651565 0.855890
C4    C     C_R   0.479186 0.503920 0.348938 0.834575
C5    C     C_R   0.532907 0.487113 0.737934 -0.200621
C6    C     C_R   0.468550 0.512332 0.263373 -0.190980
C7    C     C_R   0.381649 0.490537 0.777711 -0.283101
C8    C     C_R   0.576213 0.421998 0.223006 -0.278577
C9    C     C_R   0.387835 0.480974 0.858827 -0.188683
C10   C     C_R   0.567141 0.423296 0.141875 -0.153435
C11   C     C_R   0.544457 0.454803 0.902023 0.214596
C12   C     C_R   0.449679 0.516120 0.098767 0.212456
C13   C     C_R   0.695216 0.437358 0.862264 0.313891
C14   C     C_R   0.341821 0.610358 0.139133 0.332742
C15   C     C_R   0.692233 0.469030 0.781252 0.345526
C16   C     C_R   0.354523 0.610619 0.221901 0.315825
C17   C     C_1   0.500139 0.065367 0.500615 -0.172918
C18   C     C_1   0.500247 0.934561 0.500878 -0.179423
Cu1   Cu    Cu3+1 0.669080 0.500010 0.500000 1.019794
Cu2   Cu    Cu3+1 0.330920 0.499990 0.500000 1.015646
H1    H     H_    0.665609 0.347730 0.254500 0.189498
H2    H     H_    0.258056 0.503082 0.746197 0.221908
H3    H     H_    0.651233 0.349457 0.113045 0.224467
H4    H     H_    0.269527 0.491400 0.887783 0.248733
N1    N     N_1   0.076820 0.499970 0.500010 -0.044535
N2    N     N_1   0.923180 0.500030 0.499990 -0.039091
N3    N     N_2   0.555097 0.449074 0.985173 -0.148420
N4    N     N_2   0.437637 0.516912 0.015463 -0.144062
O1    O     O_R   0.642760 0.288400 0.500000 -0.573666
O2    O     O_R   0.357240 0.711600 0.500000 -0.579981
O3    O     O_R   0.357190 0.288380 0.500000 -0.577398
O4    O     O_R   0.642810 0.711620 0.500000 -0.590451
O5    O     O_R   0.658410 0.498660 0.613920 -0.536457
O6    O     O_R   0.341590 0.501340 0.386080 -0.545450
O7    O     O_R   0.372840 0.498650 0.613930 -0.601328
O8    O     O_R   0.627160 0.501350 0.386070 -0.585040
S1    S     S_3+6 0.886657 0.375700 0.913556 0.027581
O9    O     O_2   0.973902 0.504479 0.953238 -0.245509
O10   O     O_2   0.844730 0.263120 0.974579 -0.277450
O11   O     O_3   0.018406 0.299251 0.851232 -0.516236
H5    H     H_    0.106517 0.246365 0.885123 0.374324
S2    S     S_3+6 0.187429 0.727066 0.088109 0.081759
O12   O     O_2   0.207592 0.730889 0.001250 -0.245406
O13   O     O_2   0.011145 0.671010 0.103290 -0.222061
O14   O     O_3   0.206662 0.899961 0.121502 -0.538123
H6    H     H_    0.104497 0.952659 0.097996 0.387414
O15   O     O_3   0.844182 0.486869 0.744686 -0.520839
C19   C     C_3   0.909798 0.630202 0.760082 0.111178
H7    H     H_    0.019076 0.621866 0.804817 0.200650
H8    H     H_    0.814769 0.708988 0.782522 0.127760
C20   C     C_3   0.974210 0.697293 0.685364 -0.750471
H9    H     H_    0.863897 0.726164 0.643772 0.250789
H10   H     H_    0.048086 0.799112 0.699552 0.208804
H11   H     H_    0.058429 0.618655 0.656817 0.260424
O16   O     O_3   0.250502 0.703499 0.261787 -0.524058
C21   C     C_3   0.348076 0.826661 0.288312 0.133687
H12   H     H_    0.416038 0.879751 0.240052 0.174956
H13   H     H_    0.445525 0.794577 0.335600 0.100023
C22   C     C_3   0.228757 0.939731 0.321050 -0.690187
H14   H     H_    0.165451 0.892005 0.371897 0.246289
H15   H     H_    0.303422 0.038288 0.340552 0.182049
H16   H     H_    0.128739 0.973828 0.275252 0.268380

loop_
_geom_bond_atom_site_label_1
_geom_bond_atom_site_label_2
_ccdc_geom_bond_type
O16   C21   S    
C4    O8    A    
C9    H4    S    
S1    O9    D    
C11   N3    S    
C10   H3    S    
C2    C18   S    
C7    H2    S    
C11   C13   A    
C3    O7    A    
C1    C17   S    
Cu1   Cu2   S    
C21   C22   S    
C15   O15   S    
C14   S2    S    
C20   H11   S    
Cu2   O6    S    
C19   H8    S    
C17   C18   T    
C16   O16   S    
C5    C7    A    
C22   H14   S    
S1    O10   D    
Cu2   O2    S    
O14   H6    S    
C9    C11   A    
S2    O13   D    
C12   N4    S    
Cu1   O4    S    
C10   C12   A    
C1    O1    A    
O11   H5    S    
C12   C14   A    
C8    H1    S    
S1    O11   S    
C14   C16   A    
Cu1   O8    S    
C13   C15   A    
Cu1   O5    S    
C19   C20   S    
C4    O6    A    
C5    C15   A    
C4    C6    S    
C22   H15   S    
S2    O12   D    
C3    O5    A    
C6    C16   A    
C20   H9    S    
Cu1   O1    S    
C1    O3    A    
C2    O2    A    
C21   H12   S    
C2    O4    A    
Cu2   N1    S    
N3    N4    D    
C7    C9    A    
Cu1   N2    S    
C19   H7    S    
C22   H16   S    
C6    C8    A    
C3    C5    S    
N1    N2    T    
Cu2   O7    S    
C13   S1    S    
Cu2   O3    S    
C8    C10   A    
O15   C19   S    
C21   H13   S    
C20   H10   S    
S2    O14   S    
