data_mof_unit_41526.cif
_audit_creation_date              2012-12-10T19:10:04-0500
_audit_creation_method            fapswitch 2.2
_symmetry_space_group_name_H-M    P1
_symmetry_Int_Tables_number       1
_space_group_crystal_system       triclinic
_cell_length_a                    10.800479
_cell_length_b                    10.842969
_cell_length_c                    9.530253
_cell_angle_alpha                 89.552466
_cell_angle_beta                  90.108988
_cell_angle_gamma                 90.419049
_cell_volume                      1116.01507123

loop_
_atom_site_label
_atom_site_type_symbol
_atom_type_description
_atom_site_fract_x
_atom_site_fract_y
_atom_site_fract_z
_atom_type_partial_charge
C1    C     C_R   0.502834 0.262014 0.499618 0.804505
C2    C     C_R   0.258819 0.825005 0.129227 -0.128610
C3    C     C_R   0.934097 0.573208 0.405532 -0.230698
C4    C     C_R   0.872077 0.495855 0.501140 -0.090455
C5    C     C_R   0.939518 0.420016 0.595085 0.060369
C6    C     C_R   0.067854 0.423930 0.591068 -0.154647
C7    C     C_R   0.129146 0.502998 0.498229 -0.083685
C8    C     C_R   0.062741 0.578016 0.403735 -0.008707
C9    C     C_R   0.881554 0.343121 0.838545 0.064260
C10   C     C_R   0.828581 0.251501 0.924771 -0.217974
C11   C     C_R   0.783068 0.142417 0.868183 -0.161232
C12   C     C_R   0.262615 0.502366 0.499562 0.796261
C13   C     C_R   0.790718 0.122097 0.724653 -0.090702
C14   C     C_R   0.837897 0.213435 0.633617 -0.009093
C15   C     C_R   0.880930 0.327064 0.689962 -0.002101
C16   C     C_R   0.513182 0.061360 0.622123 0.092775
C17   C     C_R   0.515763 0.128419 0.496638 -0.115649
C18   C     C_R   0.537476 0.063479 0.369561 0.190585
C19   C     C_R   0.536705 0.934091 0.372170 -0.223227
C20   C     C_R   0.515555 0.869800 0.498172 -0.129686
C21   C     C_R   0.513870 0.934958 0.622939 0.115245
C22   C     C_3   0.428871 0.925694 0.745649 -0.482849
C23   C     C_R   0.502475 0.737398 0.499454 0.820917
C24   C     C_3   0.428488 0.065685 0.745359 -0.461239
C25   C     C_R   0.553651 0.594905 0.072641 0.244867
C26   C     C_R   0.428687 0.419164 0.076066 -0.120673
C27   C     C_R   0.426789 0.420003 0.926572 0.249434
C28   C     C_R   0.551937 0.595968 0.925603 0.173196
C29   C     C_3   0.680920 0.643515 0.916953 -0.446675
C30   C     C_3   0.684904 0.638278 0.076664 -0.491098
C31   C     C_R   0.737829 0.496848 0.500413 0.784308
C32   C     C_R   0.232048 0.860422 0.266590 -0.120766
C33   C     C_R   0.166293 0.780608 0.355713 -0.135432
C34   C     C_R   0.125966 0.665206 0.307173 0.103271
C35   C     C_R   0.152593 0.630308 0.168996 -0.080336
C36   C     C_R   0.219100 0.710013 0.080443 -0.102933
Cu1   Cu    Cu3+1 0.499990 0.499980 0.640670 0.974261
Cu2   Cu    Cu3+1 0.500010 0.500020 0.359330 0.949673
H1    H     H_    0.310713 0.886452 0.060854 0.124812
H2    H     H_    0.744727 0.071671 0.936501 0.138513
H3    H     H_    0.760503 0.033668 0.684833 0.172041
H4    H     H_    0.547589 0.884222 0.274943 0.153461
H5    H     H_    0.337577 0.884060 0.718484 0.202002
H6    H     H_    0.475088 0.885215 0.839454 0.189755
H7    H     H_    0.336656 0.105290 0.718634 0.203743
H8    H     H_    0.475891 0.104659 0.838816 0.205056
H9    H     H_    0.372507 0.353181 0.133741 0.152269
H10   H     H_    0.263103 0.949315 0.304393 0.138284
H11   H     H_    0.742755 0.577730 0.864858 0.247911
H12   H     H_    0.684797 0.739075 0.873953 0.190962
H13   H     H_    0.748917 0.566926 0.118145 0.207243
H14   H     H_    0.694451 0.730664 0.125385 0.192153
H15   H     H_    0.147847 0.808057 0.462658 0.131469
H16   H     H_    0.124860 0.540344 0.131426 0.116963
H17   H     H_    0.240782 0.682185 0.974483 0.142079
H18   H     H_    0.882187 0.632046 0.334510 0.156320
H19   H     H_    0.120305 0.363320 0.659583 0.140793
H20   H     H_    0.825196 0.263031 0.037570 0.128389
N1    N     N_R   0.500790 0.500930 0.147930 -0.189849
N2    N     N_R   0.500790 0.500890 0.852020 -0.178102
O1    O     O_R   0.500000 0.319640 0.618810 -0.548637
O2    O     O_R   0.500010 0.319680 0.381230 -0.565248
O3    O     O_R   0.319640 0.499990 0.618790 -0.557193
O4    O     O_R   0.319650 0.500030 0.381210 -0.583730
O5    O     O_R   0.499990 0.680320 0.618770 -0.582400
O6    O     O_R   0.500000 0.680360 0.381190 -0.579357
O7    O     O_R   0.680350 0.499970 0.618790 -0.571265
O8    O     O_R   0.680360 0.500010 0.381210 -0.593719
C37   C     C_2   0.847849 0.185907 0.481287 0.283482
H21   H     H_    0.877211 0.256153 0.406781 0.070586
O9    O     O_2   0.824776 0.082936 0.436795 -0.560922
N3    N     N_3   0.555863 0.127374 0.238249 -0.571673
H22   H     H_    0.644156 0.167454 0.240940 0.244279
H23   H     H_    0.555572 0.065688 0.154423 0.191216
N4    N     N_3   0.341599 0.341506 0.854665 -0.534852
H24   H     H_    0.253217 0.377188 0.871204 0.202691
H25   H     H_    0.342181 0.255557 0.904631 0.175544
C38   C     C_2   0.939491 0.450193 0.911031 0.266504
H26   H     H_    0.941508 0.451639 0.024866 0.058592
O10   O     O_2   0.983456 0.538151 0.847363 -0.545626

loop_
_geom_bond_atom_site_label_1
_geom_bond_atom_site_label_2
_ccdc_geom_bond_type
C30   H13   S    
C16   C21   A    
C35   C36   A    
C1    O2    A    
C13   H3    S    
C7    C8    A    
C29   H11   S    
C25   C28   A    
C31   O7    A    
C26   C27   A    
C29   C30   S    
C24   H7    S    
C23   O6    A    
C28   C29   S    
C10   H20   S    
C18   C19   A    
C27   N2    A    
C5    C6    A    
C12   O4    A    
C38   O10   D    
C2    C32   A    
C34   C35   A    
C37   O9    D    
C2    H1    S    
C22   H6    S    
Cu2   O6    S    
C16   C17   A    
Cu1   O5    S    
C26   N1    A    
C19   H4    S    
C16   C24   S    
C21   C22   S    
C35   H16   S    
C18   N3    S    
C32   H10   S    
C6    H19   S    
C7    C12   S    
C27   N4    S    
Cu1   O3    S    
C33   C34   A    
Cu2   O4    S    
C29   H12   S    
C28   N2    A    
C33   H15   S    
C31   O8    A    
C11   H2    S    
Cu1   N2    S    
N3    H23   S    
C3    C8    A    
C12   O3    A    
C38   H26   S    
C4    C5    A    
N4    H24   S    
Cu1   Cu2   S    
C3    H18   S    
C22   H5    S    
C20   C23   S    
C17   C18   A    
C8    C34   S    
N4    H25   S    
C26   H9    S    
Cu2   O8    S    
C14   C37   S    
C22   C24   S    
C3    C4    A    
C9    C10   A    
C2    C36   A    
C25   C30   S    
C30   H14   S    
N3    H22   S    
C1    O1    A    
Cu1   O1    S    
C6    C7    A    
C1    C17   S    
C24   H8    S    
C32   C33   A    
C23   O5    A    
C19   C20   A    
C9    C15   A    
C36   H17   S    
C11   C13   A    
Cu1   O7    S    
C9    C38   S    
C37   H21   S    
C5    C15   S    
C4    C31   S    
C10   C11   A    
Cu2   N1    S    
C20   C21   A    
C14   C15   A    
C25   N1    A    
C13   C14   A    
Cu2   O2    S    
