data_mof_unit_9250.cif
_audit_creation_date              2012-12-10T17:52:21-0500
_audit_creation_method            fapswitch 2.2
_symmetry_space_group_name_H-M    P1
_symmetry_Int_Tables_number       1
_space_group_crystal_system       triclinic
_cell_length_a                    19.034236
_cell_length_b                    10.635442
_cell_length_c                    9.917903
_cell_angle_alpha                 90.090549
_cell_angle_beta                  89.619495
_cell_angle_gamma                 91.670167
_cell_volume                      2006.85647795

loop_
_atom_site_label
_atom_site_type_symbol
_atom_type_description
_atom_site_fract_x
_atom_site_fract_y
_atom_site_fract_z
_atom_type_partial_charge
C1    C     C_R   0.501675 0.260663 0.499828 0.855801
C2    C     C_R   0.851682 0.425237 0.512838 0.097129
C3    C     C_R   0.615581 0.138297 0.635765 -0.317826
C4    C     C_R   0.365248 0.496673 0.500582 0.847068
C5    C     C_R   0.667275 0.076956 0.710299 0.546742
C6    C     C_R   0.667388 0.945786 0.708141 -0.187418
C7    C     C_R   0.615566 0.876697 0.639118 -0.290094
C8    C     C_R   0.561153 0.937928 0.571237 0.102022
C9    C     C_R   0.561131 0.069512 0.569982 0.051324
C10   C     C_R   0.507273 0.128639 0.498874 -0.061474
C11   C     C_R   0.456899 0.061454 0.425194 -0.218699
C12   C     C_R   0.289192 0.476148 0.502895 -0.034428
C13   C     C_R   0.457132 0.933095 0.425598 -0.203617
C14   C     C_R   0.507619 0.872106 0.499960 -0.085243
C15   C     C_R   0.407757 0.335238 0.140760 -0.165655
C16   C     C_R   0.502685 0.739470 0.500083 0.878753
C17   C     C_R   0.362062 0.254585 0.070997 -0.203860
C18   C     C_R   0.361879 0.254945 0.931444 -0.188983
C19   C     C_R   0.407473 0.335818 0.860828 -0.161302
C20   C     C_R   0.454418 0.419085 0.928113 0.163191
C21   C     C_R   0.454494 0.418976 0.072675 0.172429
C22   C     C_R   0.543919 0.576874 0.071030 -0.120567
C23   C     C_R   0.927048 0.404465 0.515655 0.288945
C24   C     C_R   0.543952 0.576767 0.927951 -0.117204
C25   C     C_R   0.634540 0.498671 0.499661 0.829774
C26   C     C_R   0.253509 0.468158 0.626885 -0.199688
C27   C     C_R   0.182085 0.439163 0.630631 -0.162466
C28   C     C_R   0.145169 0.418067 0.510444 0.087300
C29   C     C_R   0.180985 0.424757 0.386380 -0.160198
C30   C     C_R   0.252564 0.453929 0.382616 -0.207428
C31   C     C_3   0.698520 0.249774 0.843349 0.082029
C32   C     C_3   0.753708 0.294037 0.945328 -0.310262
C33   C     C_3   0.733160 0.417229 0.012053 -0.983472
C34   C     C_R   0.068763 0.400653 0.514246 0.288292
C35   C     C_R   0.819796 0.489924 0.619320 -0.146235
C36   C     C_R   0.749345 0.518690 0.612354 -0.219401
C37   C     C_R   0.709840 0.481392 0.500024 -0.025943
C38   C     C_R   0.741385 0.416610 0.393771 -0.190487
C39   C     C_R   0.812099 0.389034 0.399790 -0.156977
H1    H     H_    0.280728 0.483472 0.721332 0.163242
H2    H     H_    0.155773 0.434718 0.727729 0.151440
H3    H     H_    0.579879 0.639524 0.873861 0.144075
H4    H     H_    0.849402 0.520240 0.706998 0.150239
H5    H     H_    0.725490 0.568780 0.695245 0.139222
H6    H     H_    0.710915 0.384209 0.308118 0.160599
H7    H     H_    0.835586 0.338920 0.316544 0.148734
H8    H     H_    0.416300 0.108600 0.370058 0.141477
H9    H     H_    0.619127 0.239106 0.626194 0.152185
H10   H     H_    0.647811 0.231354 0.897959 0.139481
H11   H     H_    0.692387 0.326556 0.769211 0.167603
H12   H     H_    0.708270 0.896724 0.760068 0.157426
H13   H     H_    0.759360 0.220872 0.024119 0.223509
H14   H     H_    0.805220 0.308565 0.893281 0.239095
H15   H     H_    0.729051 0.492582 0.935405 0.262137
H16   H     H_    0.773910 0.446722 0.086109 0.270491
H17   H     H_    0.681867 0.405039 0.065223 0.269356
H18   H     H_    0.153648 0.409661 0.292069 0.151394
H19   H     H_    0.279164 0.458024 0.285777 0.161111
H20   H     H_    0.619352 0.775480 0.638337 0.165442
H21   H     H_    0.416767 0.880912 0.370483 0.157305
H22   H     H_    0.579822 0.639705 0.124339 0.153697
H23   H     H_    0.404847 0.329019 0.247656 0.198006
H24   H     H_    0.326611 0.191349 0.125767 0.149564
H25   H     H_    0.326259 0.192030 0.877358 0.154001
H26   H     H_    0.404347 0.330201 0.753930 0.204161
N1    N     N_R   0.032285 0.379158 0.399143 -0.177569
N2    N     N_R   0.962579 0.380860 0.399873 -0.175819
N3    N     N_R   0.963395 0.421621 0.631513 -0.177801
N4    N     N_R   0.033021 0.419613 0.630816 -0.177275
N5    N     N_R   0.499340 0.498800 0.142780 -0.121884
N6    N     N_R   0.499320 0.498720 0.857170 -0.121558
O1    O     O_R   0.500000 0.316780 0.614690 -0.640553
O2    O     O_R   0.499990 0.316750 0.385360 -0.631014
O3    O     O_R   0.398140 0.500000 0.614700 -0.632527
O4    O     O_R   0.398130 0.499970 0.385370 -0.635264
O5    O     O_R   0.500010 0.683250 0.614640 -0.610175
O6    O     O_R   0.500000 0.683220 0.385310 -0.608255
O7    O     O_R   0.601870 0.500030 0.614630 -0.638386
O8    O     O_R   0.601860 0.500000 0.385300 -0.611281
O9    O     O_3   0.721772 0.140364 0.777279 -0.647239
Zn1   Zn    Zn3+2 0.500000 0.500020 0.653130 0.923701
Zn2   Zn    Zn3+2 0.500000 0.499980 0.346870 0.936036

loop_
_geom_bond_atom_site_label_1
_geom_bond_atom_site_label_2
_ccdc_geom_bond_type
C2    C35   A    
C33   H16   S    
C24   H3    S    
O2    Zn2   S    
C11   H8    S    
C19   C20   A    
C18   H25   S    
C34   N1    A    
C7    C8    A    
C13   H21   S    
C26   C27   A    
C29   C30   A    
C36   C37   A    
C16   O6    A    
C5    C6    A    
C3    H9    S    
C18   C19   A    
C23   N2    A    
C32   H13   S    
C4    O4    A    
C25   C37   S    
C2    C39   A    
C35   C36   A    
C8    C9    A    
C38   H6    S    
C20   N6    A    
C6    H12   S    
C4    C12   S    
C35   H4    S    
C9    C10   A    
C4    O3    A    
O1    Zn1   S    
C33   H17   S    
N1    N2    A    
C28   C34   S    
C16   O5    A    
C13   C14   A    
C31   H10   S    
C7    H20   S    
C1    O1    A    
C25   O7    A    
C31   O9    S    
N3    N4    A    
C12   C26   A    
C23   N3    A    
C37   C38   A    
C3    C9    A    
C27   H2    S    
C31   C32   S    
C17   C18   A    
C5    O9    S    
C34   N4    A    
C39   H7    S    
C29   H18   S    
C14   C16   S    
C36   H5    S    
C31   H11   S    
C32   H14   S    
C2    C23   S    
C33   H15   S    
C15   C17   A    
C28   C29   A    
C8    C14   A    
C12   C30   A    
C25   O8    A    
C1    C10   S    
C3    C5    A    
O5    Zn1   S    
O8    Zn2   S    
O4    Zn2   S    
C6    C7    A    
C21   N5    A    
C1    O2    A    
C32   C33   S    
C17   H24   S    
C22   H22   S    
C11   C13   A    
O7    Zn1   S    
C26   H1    S    
C38   C39   A    
O6    Zn2   S    
C30   H19   S    
C15   H23   S    
C19   H26   S    
C22   C24   A    
N5    Zn2   S    
C10   C11   A    
C15   C21   A    
C20   C21   A    
C27   C28   A    
O3    Zn1   S    
C22   N5    A    
C24   N6    A    
N6    Zn1   S    
