data_mof_unit_6541.cif
_audit_creation_date              2012-12-10T18:15:15-0500
_audit_creation_method            fapswitch 2.2
_symmetry_space_group_name_H-M    P1
_symmetry_Int_Tables_number       1
_space_group_crystal_system       triclinic
_cell_length_a                    12.578782
_cell_length_b                    13.117009
_cell_length_c                    23.409472
_cell_angle_alpha                 90.692129
_cell_angle_beta                  103.149032
_cell_angle_gamma                 82.013857
_cell_volume                      3723.96073703

loop_
_atom_site_label
_atom_site_type_symbol
_atom_type_description
_atom_site_fract_x
_atom_site_fract_y
_atom_site_fract_z
_atom_type_partial_charge
C1    C     C_R   0.438391 0.691377 0.491085 0.889809
C2    C     C_R   0.357285 0.630459 0.012744 -0.258935
C3    C     C_R   0.360590 0.635066 0.953756 0.539234
C4    C     C_R   0.438516 0.565614 0.932633 -0.139789
C5    C     C_R   0.516136 0.495767 0.972169 -0.086699
C6    C     C_R   0.595915 0.428482 0.951771 -0.023246
C7    C     C_R   0.674041 0.361194 0.990882 -0.196828
C8    C     C_R   0.674142 0.357142 0.050635 0.156221
C9    C     C_R   0.441776 0.563349 0.873058 0.542401
C10   C     C_R   0.595934 0.429931 0.892099 0.523975
C11   C     C_R   0.440567 0.441013 0.756130 -0.191309
C12   C     C_R   0.501717 0.498903 0.610642 0.897750
C13   C     C_R   0.435808 0.439936 0.696107 0.505176
C14   C     C_R   0.506818 0.494845 0.673522 -0.166798
C15   C     C_R   0.584909 0.545247 0.711867 -0.275375
C16   C     C_R   0.590191 0.544066 0.771706 -0.098342
C17   C     C_R   0.517465 0.492770 0.793590 0.239273
C18   C     C_R   0.573580 0.540976 0.246820 -0.144567
C19   C     C_R   0.573644 0.544597 0.305908 -0.226814
C20   C     C_R   0.497099 0.496913 0.327145 -0.068108
C21   C     C_R   0.420715 0.445030 0.288811 -0.233318
C22   C     C_R   0.420309 0.440280 0.229082 0.217593
C23   C     C_R   0.561470 0.308566 0.506371 0.854810
C24   C     C_R   0.497839 0.489210 0.208448 0.295949
C25   C     C_R   0.704138 0.061725 0.462013 -0.214860
C26   C     C_R   0.597892 0.199431 0.502648 -0.055567
C27   C     C_R   0.298917 0.839015 0.499575 -0.326478
C28   C     C_R   0.268399 0.945349 0.504293 0.611019
C29   C     C_R   0.344685 0.011010 0.500049 -0.257097
C30   C     C_R   0.446905 0.973521 0.486053 -0.001941
C31   C     C_R   0.466407 0.869771 0.470811 0.080784
C32   C     C_R   0.530444 0.035612 0.486503 0.118341
C33   C     C_R   0.623319 0.998546 0.463347 0.168681
C34   C     C_R   0.498903 0.499392 0.389493 0.861148
C35   C     C_R   0.632715 0.900037 0.440651 -0.275163
C36   C     C_R   0.554943 0.836444 0.444021 -0.169396
C37   C     C_R   0.524679 0.133493 0.510025 -0.259429
C38   C     C_R   0.690260 0.163049 0.480545 -0.186662
C39   C     C_R   0.398396 0.801301 0.484243 -0.175429
C40   C     C_R   0.088172 0.344967 0.418554 0.447018
C41   C     C_R   0.797290 0.635754 0.565382 -0.111208
C42   C     C_R   0.899125 0.671702 0.574952 0.502440
C43   C     C_R   0.981799 0.618863 0.550656 -0.281339
C44   C     C_R   0.961156 0.533755 0.514112 -0.027012
C45   C     C_R   0.579536 0.420182 0.130452 0.477543
C46   C     C_R   0.854485 0.504220 0.503500 0.218393
C47   C     C_R   0.040886 0.478596 0.486672 -0.042386
C48   C     C_R   0.011147 0.398101 0.447399 0.061096
C49   C     C_R   0.904835 0.372261 0.437192 -0.238012
C50   C     C_R   0.828376 0.424095 0.465122 -0.203265
C51   C     C_R   0.149878 0.499518 0.496903 -0.043528
C52   C     C_R   0.195158 0.369132 0.431613 -0.115342
C53   C     C_R   0.429344 0.557754 0.110692 0.537253
C54   C     C_R   0.432762 0.560618 0.051784 -0.079878
C55   C     C_R   0.513513 0.492791 0.031977 -0.052369
C56   C     C_R   0.590687 0.422089 0.071697 -0.025499
H1    H     H_    0.294500 0.682011 0.027656 0.204949
H2    H     H_    0.633125 0.585159 0.334881 0.164079
H3    H     H_    0.363012 0.406281 0.305534 0.156780
H4    H     H_    0.747977 0.213841 0.474732 0.153733
H5    H     H_    0.701027 0.871550 0.421036 0.145644
H6    H     H_    0.775000 0.034327 0.444178 0.135666
H7    H     H_    0.460478 0.162594 0.532090 0.144298
H8    H     H_    0.247898 0.785392 0.510209 0.163776
H9    H     H_    0.319833 0.091751 0.506068 0.163493
H10   H     H_    0.564426 0.761072 0.424995 0.166458
H11   H     H_    0.257377 0.327477 0.411648 0.154266
H12   H     H_    0.880033 0.311375 0.407536 0.198488
H13   H     H_    0.180699 0.557312 0.526726 0.148883
H14   H     H_    0.732955 0.673901 0.585088 0.158996
H15   H     H_    0.059609 0.648332 0.559811 0.163492
H16   H     H_    0.748720 0.400316 0.455217 0.208963
H17   H     H_    0.736759 0.311596 0.974767 0.188433
H18   H     H_    0.384453 0.401622 0.773724 0.159688
H19   H     H_    0.640650 0.587080 0.695503 0.188398
H20   H     H_    0.649404 0.584325 0.801028 0.154234
H21   H     H_    0.632683 0.578369 0.230540 0.139227
N1    N     N_R   0.501038 0.487828 0.148034 -0.356731
N2    N     N_R   0.519041 0.495843 0.854494 -0.352942
N3    N     N_R   0.222200 0.444670 0.469780 -0.129393
N4    N     N_R   0.776960 0.554790 0.529910 -0.153973
O1    O     O_R   0.366740 0.627150 0.485570 -0.615948
O2    O     O_2   0.355328 0.624592 0.130924 -0.571170
O3    O     O_2   0.368624 0.627339 0.833618 -0.486735
O4    O     O_2   0.671247 0.365364 0.871477 -0.558645
O5    O     O_R   0.544830 0.662520 0.504870 -0.622540
O6    O     O_R   0.410930 0.482340 0.574190 -0.559095
O7    O     O_R   0.589010 0.517710 0.593490 -0.617591
O8    O     O_R   0.455170 0.337480 0.495130 -0.610874
O9    O     O_R   0.633260 0.372850 0.514430 -0.629695
O10   O     O_R   0.410990 0.482290 0.406510 -0.617235
O11   O     O_R   0.589070 0.517660 0.425810 -0.643917
O12   O     O_2   0.644650 0.351611 0.170153 -0.581173
Zn1   Zn    Zn3+2 0.381090 0.476380 0.487110 0.959331
Zn2   Zn    Zn3+2 0.618910 0.523620 0.512890 0.929487
C57   C     C_3   0.340032 0.379959 0.189243 -0.414170
C58   C     C_3   0.221224 0.432215 0.181721 -0.830644
H22   H     H_    0.196719 0.436337 0.224460 0.242700
H23   H     H_    0.211821 0.511218 0.163055 0.299500
H24   H     H_    0.164997 0.387180 0.151296 0.245647
H25   H     H_    0.358454 0.370393 0.145165 0.214071
H26   H     H_    0.347827 0.301316 0.208275 0.204718
O13   O     O_3   0.171785 0.987923 0.520119 -0.593395
C59   C     C_3   0.080963 0.938692 0.492734 -0.292079
H27   H     H_    0.079483 0.867236 0.517357 0.165359
H28   H     H_    0.079756 0.922305 0.445791 0.156563
H29   H     H_    0.004105 0.990889 0.493830 0.191565
O14   O     O_3   0.282426 0.703194 0.916406 -0.552724
C60   C     C_3   0.314127 0.802417 0.923683 -0.213801
H30   H     H_    0.255177 0.855701 0.891146 0.203662
H31   H     H_    0.397772 0.803428 0.915421 0.157000
H32   H     H_    0.310965 0.832041 0.968081 0.134755
O15   O     O_3   0.061103 0.265325 0.381149 -0.603837
C61   C     C_3   0.049037 0.299885 0.322899 -0.328455
H33   H     H_    0.985675 0.369311 0.311964 0.165909
H34   H     H_    0.020611 0.238210 0.292808 0.207136
H35   H     H_    0.128962 0.315764 0.314694 0.153323
O16   O     O_3   0.920831 0.755507 0.609867 -0.586334
C62   C     C_3   0.860230 0.845605 0.580044 -0.287500
H36   H     H_    0.770377 0.848122 0.577002 0.165098
H37   H     H_    0.876282 0.853198 0.535502 0.137979
H38   H     H_    0.886717 0.913369 0.605289 0.211298
C63   C     C_3   0.767180 0.284623 0.088995 -0.337354
C64   C     C_3   0.855284 0.343600 0.125177 -0.796466
H39   H     H_    0.894861 0.383013 0.095523 0.244079
H40   H     H_    0.819865 0.402301 0.152693 0.280183
H41   H     H_    0.919604 0.288957 0.154311 0.236717
H42   H     H_    0.735781 0.233764 0.116834 0.247438
H43   H     H_    0.809013 0.230078 0.061624 0.178145
O17   O     O_3   0.358303 0.388983 0.659766 -0.583275
C65   C     C_3   0.405572 0.286042 0.655402 -0.256437
H44   H     H_    0.426306 0.245115 0.698733 0.158904
H45   H     H_    0.479990 0.281439 0.636741 0.137905
H46   H     H_    0.344469 0.245590 0.625128 0.199794

loop_
_geom_bond_atom_site_label_1
_geom_bond_atom_site_label_2
_ccdc_geom_bond_type
C15   H19   S    
C55   C56   A    
C10   O4    S    
O1    Zn1   S    
C49   H12   S    
C57   H26   S    
C41   C42   A    
C19   C20   A    
C65   H46   S    
C45   O12   S    
C8    C56   A    
C59   H28   S    
C61   H33   S    
C2    H1    S    
C63   C64   S    
C7    H17   S    
C26   C37   A    
C53   C54   A    
C18   C24   A    
C28   C29   A    
C21   H3    S    
C60   H31   S    
C5    C6    A    
N4    Zn2   S    
C36   H10   S    
C15   C16   A    
O6    Zn1   S    
C17   N2    S    
O14   C60   S    
C18   C19   A    
C9    N2    A    
C23   C26   S    
O8    Zn1   S    
C50   H16   S    
C34   O10   A    
C58   H23   S    
O16   C62   S    
C27   H8    S    
C35   C36   A    
C45   C56   A    
C27   C39   A    
C16   C17   A    
C13   O17   S    
C23   O8    A    
C45   N1    A    
C13   C14   A    
C31   C36   A    
C44   C47   A    
C20   C34   S    
O7    Zn2   S    
C21   C22   A    
C63   H43   S    
C59   H27   S    
C37   H7    S    
C44   C46   A    
C58   H22   S    
C62   H37   S    
C19   H2    S    
C12   O7    A    
C7    C8    A    
C2    C54   A    
C60   H32   S    
C26   C38   A    
C47   C51   A    
C1    O1    A    
C40   C52   A    
O11   Zn2   S    
C43   C44   A    
C29   C30   A    
C25   C38   A    
C46   N4    A    
C47   C48   A    
C62   H36   S    
C41   N4    A    
C57   C58   S    
C23   O9    A    
C35   H5    S    
C32   C37   A    
C52   H11   S    
C64   H41   S    
C29   H9    S    
C24   N1    S    
C48   C49   A    
C12   C14   S    
C40   O15   S    
C38   H4    S    
C42   C43   A    
N3    Zn1   S    
C65   H44   S    
O13   C59   S    
C58   H24   S    
C64   H40   S    
O15   C61   S    
C62   H38   S    
C1    O5    A    
C40   C48   A    
C54   C55   A    
C11   C17   A    
C43   H15   S    
C12   O6    A    
C16   H20   S    
C22   C57   S    
C5    C55   A    
C42   O16   S    
C4    C5    A    
C65   H45   S    
C11   H18   S    
O9    Zn2   S    
C6    C10   A    
C61   H34   S    
C10   N2    A    
C8    C63   S    
C6    C7    A    
C3    O14   S    
C46   C50   A    
C53   O2    S    
C32   C33   A    
O17   C65   S    
C52   N3    A    
C60   H30   S    
O10   Zn1   S    
C30   C32   A    
C11   C13   A    
C28   O13   S    
C63   H42   S    
C30   C31   A    
C18   H21   S    
C51   N3    A    
C33   C35   A    
C31   C39   A    
C2    C3    A    
C22   C24   A    
C25   H6    S    
C34   O11   A    
C61   H35   S    
O5    Zn2   S    
C1    C39   S    
C9    O3    S    
C53   N1    A    
C20   C21   A    
C49   C50   A    
C27   C28   A    
C14   C15   A    
C64   H39   S    
C51   H13   S    
C4    C9    A    
C57   H25   S    
C59   H29   S    
C3    C4    A    
C25   C33   A    
C41   H14   S    
