data_mof_unit_39939.cif
_audit_creation_date              2012-12-11T14:17:39-0500
_audit_creation_method            fapswitch 2.2
_symmetry_space_group_name_H-M    P1
_symmetry_Int_Tables_number       1
_space_group_crystal_system       triclinic
_cell_length_a                    6.944403
_cell_length_b                    13.626173
_cell_length_c                    20.435383
_cell_angle_alpha                 102.259319
_cell_angle_beta                  89.613159
_cell_angle_gamma                 90.762519
_cell_volume                      1889.43331866

loop_
_atom_site_label
_atom_site_type_symbol
_atom_type_description
_atom_site_fract_x
_atom_site_fract_y
_atom_site_fract_z
_atom_type_partial_charge
O1    O     O_R   0.506860 0.599390 0.449240 -0.543187
O2    O     O_R   0.180220 0.594600 0.586780 -0.523426
O3    O     O_R   0.004500 0.400610 0.550760 -0.542547
C1    C     C_R   0.348577 0.619001 0.612440 0.782320
O4    O     O_R   0.177490 0.611290 0.451970 -0.529049
O5    O     O_R   0.001750 0.417420 0.414990 -0.543825
C2    C     C_R   0.347384 0.637657 0.434955 0.723827
O6    O     O_R   0.509610 0.582580 0.585010 -0.548065
O7    O     O_3   0.337420 0.436370 0.488020 -0.379430
V1    V     V_3+5 0.064680 0.511800 0.502220 1.486936
O8    O     O_R   0.671710 0.405400 0.413220 -0.548565
C3    C     C_R   0.840048 0.384077 0.386539 0.734111
O9    O     O_R   0.674440 0.388710 0.548030 -0.542083
C4    C     C_R   0.842138 0.361602 0.564242 0.688980
V2    V     V_3+5 0.564010 0.488200 0.497780 1.441082
O10   O     O_3   0.841140 0.563630 0.511980 -0.360663
C5    C     C_R   0.814808 0.109592 0.609509 -0.066708
H1    H     H_    0.807095 0.161650 0.517644 0.119261
H2    H     H_    0.800268 0.983575 0.689707 0.129850
H3    H     H_    0.796180 0.031768 0.584017 0.150122
C6    C     C_R   0.846237 0.283588 0.603177 -0.049826
C7    C     C_R   0.889275 0.311858 0.925484 -0.187259
C8    C     C_R   0.896679 0.387242 0.889592 -0.115575
C9    C     C_R   0.884157 0.363893 0.820190 -0.134452
C10   C     C_R   0.863089 0.263136 0.784257 0.026138
C11   C     C_R   0.852554 0.184918 0.821271 0.031805
C12   C     C_R   0.852377 0.238168 0.712820 0.066104
C13   C     C_R   0.828968 0.136206 0.679616 0.078574
C14   C     C_R   0.818165 0.061033 0.716122 -0.259218
C15   C     C_R   0.829522 0.083317 0.786108 0.305639
C16   C     C_R   0.862822 0.311078 0.672782 -0.196513
C17   C     C_R   0.821684 0.183055 0.571574 -0.127844
C18   C     C_R   0.866912 0.211536 0.892569 -0.081683
H4    H     H_    0.880288 0.390119 0.693685 0.090677
H5    H     H_    0.901940 0.331867 0.979554 0.126105
H6    H     H_    0.891739 0.427133 0.796455 0.102365
H7    H     H_    0.913646 0.464725 0.915803 0.113098
C19   C     C_2   0.005692 0.289221 0.284582 -0.124198
C20   C     C_2   0.842687 0.315652 0.319785 -0.307735
H8    H     H_    0.142899 0.318211 0.306139 0.135285
H9    H     H_    0.704064 0.287132 0.299855 0.127615
C21   C     C_2   0.013551 0.221111 0.216945 -0.101987
C22   C     C_2   0.858142 0.183408 0.180354 -0.292119
H10   H     H_    0.156370 0.202174 0.196533 0.138699
H11   H     H_    0.713965 0.201611 0.199092 0.126841
C23   C     C_2   0.210213 0.803902 0.778793 -0.216733
C24   C     C_2   0.367152 0.822266 0.817671 -0.299129
H12   H     H_    0.073923 0.834875 0.799280 0.145649
H13   H     H_    0.507138 0.797357 0.797393 0.126960
C25   C     C_2   0.214192 0.751871 0.706565 0.018475
C26   C     C_2   0.355357 0.686001 0.680044 -0.323993
H14   H     H_    0.475883 0.674041 0.710705 0.106358
C27   C     C_R   0.434462 0.887759 0.388843 -0.002884
H15   H     H_    0.429255 0.831623 0.480212 0.161075
H16   H     H_    0.451774 0.013034 0.300627 0.109682
C28   C     C_R   0.361354 0.715317 0.395423 -0.080423
C29   C     C_R   0.312401 0.686860 0.072710 -0.265448
C30   C     C_R   0.292115 0.610831 0.108462 0.052646
C31   C     C_R   0.310989 0.634089 0.178409 -0.152345
C32   C     C_R   0.348980 0.733772 0.213998 0.046126
C33   C     C_R   0.370696 0.809973 0.176339 0.069726
C34   C     C_R   0.366201 0.760131 0.285579 0.087763
C35   C     C_R   0.410741 0.861619 0.317929 0.056500
C36   C     C_R   0.426969 0.934630 0.278805 -0.205675
C37   C     C_R   0.407748 0.909393 0.209799 -0.178603
C38   C     C_R   0.339937 0.688780 0.326151 -0.219402
C39   C     C_R   0.408823 0.813558 0.426398 -0.130750
C40   C     C_R   0.352243 0.785565 0.105702 -0.069288
H17   H     H_    0.304001 0.611265 0.305844 0.101022
H18   H     H_    0.296740 0.669280 0.018679 0.095660
H19   H     H_    0.295867 0.572440 0.203358 0.150269
H20   H     H_    0.422196 0.969404 0.182770 0.111982
O11   O     O_R   0.203230 0.917310 0.915020 -0.532892
O12   O     O_R   0.535500 0.888690 0.048040 -0.546181
O13   O     O_R   0.711080 0.082610 0.085000 -0.549086
C41   C     C_R   0.365673 0.862596 0.065310 0.682855
O14   O     O_R   0.532630 0.905370 0.913230 -0.537155
O15   O     O_R   0.708190 0.099410 0.949230 -0.525846
C42   C     C_R   0.365154 0.885104 0.886213 0.769331
O16   O     O_R   0.206120 0.900510 0.050790 -0.543767
O17   O     O_3   0.375360 0.063570 0.011990 -0.373812
V3    V     V_3+5 0.648170 0.988200 0.997780 1.462161
O18   O     O_R   0.038240 0.111390 0.951940 -0.540544
C43   C     C_R   0.870738 0.136928 0.934469 0.807942
O19   O     O_R   0.041120 0.094710 0.086750 -0.542542
C44   C     C_R   0.872241 0.115777 0.113509 0.735118
V4    V     V_3+5 0.148810 0.011930 0.002180 1.469192
O20   O     O_3   0.871750 0.936430 0.988010 -0.371642
C45   C     C_2   0.054232 0.778509 0.665832 0.425576
H21   H     H_    0.914805 0.797883 0.688952 -0.008355
O21   O     O_2   0.079491 0.785569 0.607801 -0.525658
C46   C     C_2   0.492279 0.990448 0.425293 0.348707
H22   H     H_    0.565027 0.042668 0.400027 0.033422
O22   O     O_2   0.461880 0.017732 0.485316 -0.530331
C47   C     C_2   0.249956 0.506961 0.071670 0.355999
H23   H     H_    0.235705 0.490885 0.017544 0.040582
O23   O     O_2   0.230294 0.438210 0.101068 -0.536483
O24   O     O_3   0.817367 0.006099 0.820292 -0.649050
H24   H     H_    0.792901 0.941400 0.788465 0.267766

loop_
_geom_bond_atom_site_label_1
_geom_bond_atom_site_label_2
_ccdc_geom_bond_type
O18   V4    S    
V4    O20   S    
C47   H23   S    
C24   C42   S    
C1    O6    A    
O17   V3    S    
C24   H13   S    
C28   C39   A    
O19   C44   A    
C7    H5    S    
C6    C16   A    
C14   C15   A    
O12   C41   A    
C4    C6    S    
C13   C14   A    
C19   C21   S    
O16   V4    S    
O5    C3    A    
C19   C20   D    
V3    O20   S    
C38   H17   S    
V2    O10   S    
C5    H3    S    
C32   C34   A    
O11   V4    S    
O13   C44   A    
O8    V2    S    
C8    C9    A    
O1    V2    S    
C29   H18   S    
C45   O21   D    
O7    V1    S    
O14   C42   A    
C31   C32   A    
O9    C4    A    
C5    C13   A    
C21   H10   S    
C2    C28   S    
O12   V3    S    
O19   V4    S    
C6    C17   A    
C23   H12   S    
C34   C38   A    
C1    C26   S    
C12   C16   A    
C26   H14   S    
C9    C10   A    
C20   H9    S    
O4    C2    A    
H15   C39   S    
C30   C31   A    
C8    H7    S    
C32   C33   A    
O2    C1    A    
C30   C47   S    
C34   C35   A    
O15   C43   A    
O15   V3    S    
C25   C45   S    
O18   C43   A    
H16   C36   S    
C27   C46   S    
C46   O22   D    
C25   C26   D    
O11   C42   A    
C16   H4    S    
C9    H6    S    
C22   H11   S    
O17   V4    S    
O3    C4    A    
C11   C15   A    
O6    V2    S    
O9    V2    S    
C10   C12   A    
H1    C17   S    
C21   C22   D    
C29   C40   A    
O2    V1    S    
C7    C18   A    
C15   O24   S    
C23   C24   D    
O1    C2    A    
C22   C44   S    
C41   O16   A    
O5    V1    S    
O8    C3    A    
C47   O23   D    
O13   V3    S    
C40   C41   S    
C37   H20   S    
C23   C25   S    
C36   C37   A    
C3    C20   S    
C10   C11   A    
O4    V1    S    
O3    V1    S    
V1    O10   S    
C19   H8    S    
C27   C35   A    
C33   C40   A    
C29   C30   A    
O14   V3    S    
C28   C38   A    
C46   H22   S    
O7    V2    S    
C27   C39   A    
C18   C43   S    
C35   C36   A    
C33   C37   A    
O24   H24   S    
C12   C13   A    
C5    C17   A    
C7    C8    A    
C45   H21   S    
C11   C18   A    
C31   H19   S    
H2    C14   S    
