data_mof_unit_54085.cif
_audit_creation_date              2013-03-05T15:52:12-0500
_audit_creation_method            fapswitch 2.2
_symmetry_space_group_name_H-M    P1
_symmetry_Int_Tables_number       1
_space_group_crystal_system       triclinic
_cell_length_a                    8.258418
_cell_length_b                    17.439829
_cell_length_c                    27.048342
_cell_angle_alpha                 96.052896
_cell_angle_beta                  92.474822
_cell_angle_gamma                 83.651952
_cell_volume                      3848.2184737

loop_
_atom_site_label
_atom_site_type_symbol
_atom_site_description
_atom_site_fract_x
_atom_site_fract_y
_atom_site_fract_z
_atom_type_partial_charge
P1    P     P_3+3 0.078810 0.562990 0.610370 0.491219
O1    O     O_2   0.910880 0.540430 0.617910 -0.361409
O2    O     O_3   0.142880 0.540370 0.557740 -0.400758
O3    O     O_3   0.675650 0.402220 0.588450 -0.330341
O4    O     O_2   0.816293 0.456147 0.672445 -0.417520
O5    O     O_3   0.052770 0.663906 0.623528 -0.523346
O6    O     O_3   0.723375 0.324007 0.676629 -0.555295
C1    C     C_3   0.614969 0.251248 0.734168 -0.871691
H1    H     H_    0.722649 0.206951 0.732587 0.246295
H2    H     H_    0.637114 0.297718 0.764257 0.247373
P2    P     P_3+3 0.645380 0.325580 0.462150 0.498755
P3    P     P_3+3 0.120102 0.261817 0.563037 0.517957
O7    O     O_2   0.823810 0.314230 0.476690 -0.344995
O8    O     O_3   0.086630 0.363340 0.564170 -0.428572
O9    O     O_2   0.980949 0.226080 0.531760 -0.314609
O10   O     O_3   0.637716 0.301306 0.397746 -0.559187
O11   O     O_3   0.098836 0.234519 0.622642 -0.470775
C2    C     C_3   0.115049 0.299285 0.657129 0.527502
H3    H     H_    0.013561 0.344612 0.651825 0.162112
H4    H     H_    0.230959 0.323696 0.652659 -0.009788
C3    C     C_3   0.110277 0.276094 0.709591 -0.843116
H5    H     H_    0.998585 0.247781 0.713937 0.270772
H6    H     H_    0.218480 0.235063 0.717430 0.265772
C4    C     C_3   0.205693 0.300935 0.416707 0.245035
H7    H     H_    0.325227 0.322490 0.425735 0.064815
H8    H     H_    0.127819 0.313383 0.449692 0.114676
C5    C     C_3   0.232277 0.213330 0.402717 -0.106367
H9    H     H_    0.292140 0.200507 0.366297 0.149704
H10   H     H_    0.315002 0.186351 0.430739 0.049974
Ba1   Ba    Ba6+2 0.856110 0.463800 0.523550 1.603672
C6    C     C_3   0.992611 0.698287 0.581129 0.399819
H11   H     H_    0.875505 0.676727 0.568634 0.085046
H12   H     H_    0.080216 0.685700 0.550672 0.126040
C7    C     C_3   0.966302 0.785637 0.594392 -0.837093
H13   H     H_    0.874093 0.799926 0.623579 0.278837
H14   H     H_    0.923101 0.815162 0.561280 0.204066
H15   H     H_    0.082759 0.807575 0.608336 0.282507
C8    C     C_3   0.695693 0.358969 0.373584 0.452287
H16   H     H_    0.822530 0.366006 0.386204 0.114742
H17   H     H_    0.617105 0.414579 0.380956 0.086615
C9    C     C_3   0.692370 0.333570 0.317892 -0.907666
H18   H     H_    0.744044 0.272099 0.310628 0.305667
H19   H     H_    0.766401 0.368987 0.298040 0.216271
H20   H     H_    0.564833 0.339601 0.302833 0.243465
P4    P     P_3+3 0.110900 0.436950 0.389630 0.492931
O12   O     O_2   0.278810 0.459550 0.382060 -0.360825
O13   O     O_3   0.046820 0.459570 0.442260 -0.398274
O14   O     O_3   0.514050 0.597710 0.411540 -0.388240
O15   O     O_3   0.132922 0.336041 0.376019 -0.545113
P5    P     P_3+3 0.076900 0.737401 0.433571 0.455698
O16   O     O_3   0.627090 0.591350 0.524530 -0.382696
O17   O     O_3   0.103080 0.636600 0.435820 -0.367201
O18   O     O_2   0.215316 0.771934 0.465870 -0.383212
O19   O     O_3   0.118106 0.754968 0.373203 -0.496011
Ba2   Ba    Ba6+2 0.333710 0.536130 0.476450 1.574292
P6    P     P_3+3 0.667755 0.413977 0.653761 0.453634
C10   C     C_3   0.587036 0.285684 0.684494 0.816793
H21   H     H_    0.472566 0.324946 0.687023 -0.047085
H22   H     H_    0.506685 0.223657 0.743301 0.248824
O20   O     O_3   0.562610 0.408580 0.475460 -0.401076
C11   C     C_3   0.504455 0.655288 0.627283 0.238035
H23   H     H_    0.375695 0.647839 0.616360 0.108573
H24   H     H_    0.581580 0.599485 0.618542 0.083025
C12   C     C_3   0.517262 0.677501 0.683385 -0.098477
H25   H     H_    0.470251 0.632878 0.703549 0.070046
H26   H     H_    0.647768 0.680208 0.694734 0.143618
P7    P     P_3+3 0.550400 0.688584 0.538532 0.459826
O21   O     O_2   0.365880 0.685750 0.523280 -0.356764
O22   O     O_3   0.558905 0.714236 0.602827 -0.552584
H27   H     H_    0.109369 0.328498 0.736693 0.229129
C13   C     C_3   0.979144 0.743587 0.342849 0.365225
H28   H     H_    0.939441 0.685102 0.345156 0.083990
H29   H     H_    0.879239 0.789489 0.353707 0.057344
C14   C     C_3   0.018543 0.749939 0.289185 -0.825846
H30   H     H_    0.110652 0.701593 0.276025 0.272707
H31   H     H_    0.906051 0.747181 0.265420 0.250369
H32   H     H_    0.067144 0.806065 0.286044 0.246299
P8    P     P_3+3 0.517953 0.587985 0.346551 0.483142
C15   C     C_3   0.536807 0.734788 0.365119 0.512684
H33   H     H_    0.662386 0.721412 0.380285 -0.018042
O23   O     O_2   0.355319 0.557880 0.327271 -0.372971
O24   O     O_3   0.504527 0.679954 0.325155 -0.505360
H34   H     H_    0.447828 0.736013 0.394924 0.159876
H35   H     H_    0.552163 0.858450 0.377878 0.224435
C16   C     C_3   0.521021 0.814933 0.346950 -0.964585
H36   H     H_    0.393862 0.830615 0.333529 0.285791
H37   H     H_    0.604704 0.815770 0.316009 0.256437
C17   C     C_R   0.020343 0.441284 0.179797 0.524813
O25   O     O_2   0.053545 0.383378 0.201616 -0.586210
N1    N     N_R   0.941821 0.507820 0.204519 -0.163890
C18   C     C_R   0.901738 0.572940 0.179330 0.528256
C19   C     C_2   0.741385 0.528474 0.270381 -0.170129
C20   C     C_3   0.696312 0.520983 0.323286 0.140228
C21   C     C_1   0.982890 0.487880 0.343248 0.300495
C22   C     C_2   0.023952 0.485660 0.295900 -0.177455
C23   C     C_2   0.897958 0.508573 0.256449 0.118818
C24   C     C_R   0.018237 0.504730 0.103115 -0.065353
C25   C     C_R   0.059903 0.439077 0.129125 -0.060039
C26   C     C_R   0.139258 0.372169 0.103868 -0.080894
C27   C     C_R   0.938845 0.572097 0.128607 -0.056707
C28   C     C_2   0.843332 0.525121 0.358304 -0.476371
H38   H     H_    0.148503 0.467066 0.285389 0.177919
H39   H     H_    0.173569 0.320739 0.122775 0.170854
C29   C     C_2   0.341093 0.475129 0.642279 -0.465801
C30   C     C_R   0.170868 0.432286 0.974837 0.040878
C31   C     C_R   0.049806 0.568092 0.974543 0.040079
C32   C     C_R   0.128635 0.499294 0.949237 0.084770
C33   C     C_R   0.247745 0.365216 0.947626 -0.200423
C34   C     C_R   0.282934 0.364172 0.897644 -0.084015
C35   C     C_R   0.243509 0.429820 0.872092 -0.045133
C36   C     C_R   0.165892 0.497502 0.897727 -0.066077
C37   C     C_R   0.125943 0.563428 0.871854 -0.070959
C38   C     C_R   0.165656 0.561190 0.821187 0.533187
N2    N     N_R   0.242515 0.494350 0.796349 -0.164965
C39   C     C_R   0.280477 0.428911 0.821368 0.507774
C40   C     C_2   0.442914 0.472824 0.730519 -0.237419
C41   C     C_3   0.486861 0.478728 0.677286 0.128518
C42   C     C_1   0.203094 0.513156 0.657510 0.295160
C43   C     C_2   0.161459 0.516635 0.704902 -0.206280
C44   C     C_2   0.286721 0.493504 0.744455 0.147607
O26   O     O_2   0.345833 0.369494 0.799409 -0.624199
C45   C     C_R   0.134992 0.434275 0.026354 0.041667
C46   C     C_R   0.055473 0.502952 0.051603 0.085132
C47   C     C_R   0.012504 0.569839 0.025939 0.041579
C48   C     C_R   0.176114 0.369707 0.053898 -0.200286
H40   H     H_    0.538525 0.458522 0.757886 0.159273
H41   H     H_    0.342189 0.311075 0.878974 0.170431
H42   H     H_    0.282736 0.311732 0.963662 0.130213
H43   H     H_    0.237664 0.315666 0.038126 0.129462
O27   O     O_2   0.834166 0.631976 0.201120 -0.602552
C49   C     C_R   0.897558 0.637443 0.102889 -0.081830
H44   H     H_    0.645778 0.542337 0.242919 0.163173
H45   H     H_    0.836466 0.690225 0.121396 0.168286
C50   C     C_R   0.011059 0.633056 0.947200 -0.199127
C51   C     C_R   0.048356 0.630648 0.897264 -0.069995
O28   O     O_2   0.134033 0.619298 0.799476 -0.561103
C52   C     C_R   0.933190 0.636492 0.052942 -0.198262
H46   H     H_    0.951772 0.687490 0.963171 0.131321
H47   H     H_    0.015858 0.682373 0.878510 0.177620
H48   H     H_    0.037258 0.536238 0.715319 0.184398
H49   H     H_    0.895877 0.689597 0.036704 0.129423
H50   H     H_    0.836940 0.561032 0.393635 0.164889
H51   H     H_    0.344234 0.435078 0.608675 0.160404
H52   H     H_    0.481973 0.856997 0.528089 0.162577
H53   H     H_    0.301018 0.103987 0.542819 0.155592
C53   C     C_R   0.412354 0.279377 0.521178 -0.504135
C54   C     C_R   0.554026 0.255095 0.495339 0.334450
C55   C     C_R   0.610197 0.175693 0.488478 -0.184843
C56   C     C_R   0.521721 0.120661 0.506602 0.039154
C57   C     C_R   0.373792 0.145778 0.530310 -0.090890
C58   C     C_R   0.318679 0.225277 0.536923 0.238684
C59   C     C_R   0.589373 0.835376 0.507149 -0.221927
C60   C     C_R   0.642173 0.755775 0.502801 0.282561
C61   C     C_R   0.877052 0.778753 0.457920 0.200605
C62   C     C_R   0.825084 0.858741 0.462055 -0.272389
C63   C     C_R   0.679366 0.887289 0.486325 0.058203
C64   C     C_1   0.625958 0.969871 0.492696 0.028282
C65   C     C_1   0.578915 0.038571 0.498860 0.053086
C66   C     C_R   0.781955 0.727914 0.476798 -0.508404
H54   H     H_    0.899218 0.898320 0.447682 0.166166
H55   H     H_    0.719198 0.156760 0.467721 0.189821
H56   H     H_    0.368178 0.340381 0.525542 0.163050
H57   H     H_    0.823277 0.666604 0.474476 0.161986
N3    N     N_R   0.570148 0.223405 0.644567 0.212849
O29   O     O_R   0.453847 0.178995 0.645263 -0.427482
O30   O     O_R   0.676698 0.208644 0.609813 -0.343312
N4    N     N_R   0.078000 0.179436 0.400181 0.276620
O31   O     O_R   0.051985 0.129978 0.430989 -0.392847
O32   O     O_R   0.970663 0.193973 0.364865 -0.356473
N5    N     N_R   0.424059 0.752209 0.697062 0.295763
O33   O     O_R   0.498195 0.811118 0.715915 -0.323217
O34   O     O_R   0.265735 0.759204 0.693002 -0.331508

loop_
_geom_bond_atom_site_label_1
_geom_bond_atom_site_label_2
_geom_bond_distance
_ccdc_geom_bond_type
O14   Ba2   2.726003 S    
C26   H39   1.083659 S    
Ba1   O16   2.754558 S    
C64   C65   1.214382 T    
C39   O26   1.221502 D    
C5    H10   1.105436 S    
C2    C3    1.519254 S    
C9    H18   1.109796 S    
O4    P6    1.539031 D    
C36   C37   1.409386 A    
C4    C5    1.528618 S    
N2    C39   1.387136 Am   
C47   C52   1.416903 A    
C27   C49   1.399886 A    
C46   C47   1.423537 A    
N4    O32   1.300306 A    
C18   O27   1.221556 D    
P4    O12   1.510804 D    
C40   C41   1.516637 S    
C51   H47   1.083651 S    
C30   C32   1.423524 A    
P5    O19   1.747112 S    
C14   H31   1.109216 S    
C43   H48   1.084171 S    
C63   C64   1.453346 S    
C19   H44   1.085634 S    
C4    H8    1.111109 S    
P1    O1    1.510535 D    
C1    H22   1.109752 S    
C8    H16   1.103404 S    
C1    C10   1.527061 S    
C11   C12   1.528145 S    
N5    O33   1.300770 A    
P8    C20   1.864236 S    
C7    H15   1.110496 S    
C19   C23   1.360034 D    
C33   C34   1.392866 A    
C7    H13   1.110711 S    
P6    C41   1.862604 S    
O14   P8    1.749466 S    
C11   H24   1.111797 S    
C35   C36   1.408307 A    
C19   C20   1.516420 S    
C42   C43   1.334977 D    
O2    Ba2   2.750061 S    
C34   H41   1.083732 S    
O19   C13   1.401839 S    
C54   C55   1.406532 A    
C21   C28   1.317276 D    
C1    H1    1.110778 S    
C38   O28   1.222214 D    
Ba1   O20   2.911036 S    
O12   Ba2   2.796846 S    
P5    O17   1.754476 S    
C6    H12   1.108365 S    
C4    H7    1.103321 S    
C18   C27   1.416863 A    
C56   C65   1.453383 S    
C7    H14   1.106173 S    
H53   C57   1.083201 S    
O17   Ba2   2.718983 S    
C16   H37   1.110382 S    
O5    C6    1.396954 S    
C8    H17   1.110296 S    
C40   H40   1.085614 S    
Ba2   O20   2.753955 S    
O3    P6    1.760005 S    
C9    H19   1.106992 S    
P3    C58   1.835315 S    
C11   H23   1.109137 S    
O6    P6    1.753942 S    
O8    Ba1   2.718201 S    
P4    C21   1.842063 S    
C37   C38   1.418438 A    
C24   C25   1.409309 A    
C29   C42   1.313064 D    
P4    O13   1.537088 S    
C30   C33   1.416883 A    
C29   H51   1.085745 S    
P5    O18   1.545201 D    
C14   H30   1.111088 S    
P7    O21   1.566143 D    
C59   C63   1.407742 A    
O7    Ba1   2.812335 S    
H35   C16   1.110244 S    
P2    Ba1   3.381010 S    
C8    C9    1.524657 S    
C26   C48   1.393453 A    
C34   C35   1.399801 A    
C20   C28   1.510696 S    
N4    O31   1.300964 A    
C13   H29   1.110447 S    
Ba2   O21   2.812638 S    
C2    H3    1.102257 S    
O16   Ba2   2.910092 S    
C16   H36   1.110781 S    
C14   H32   1.110757 S    
C33   H42   1.075442 S    
C40   C44   1.358841 D    
C53   C58   1.394489 A    
P1    O2    1.537060 S    
C12   H26   1.112509 S    
C60   C66   1.391897 A    
O2    Ba1   2.914942 S    
C49   C52   1.393019 A    
Ba1   O13   2.749484 S    
C15   O24   1.402664 S    
C53   H56   1.081819 S    
P2    O10   1.748930 S    
P8    O24   1.752334 S    
C6    H11   1.102851 S    
P3    O9    1.545296 D    
P4    O15   1.750431 S    
O11   C2    1.401540 S    
C6    C7    1.521462 S    
O16   P7    1.751545 S    
C55   C56   1.407326 A    
C61   C62   1.407657 A    
C38   N2    1.386034 Am   
C1    H2    1.110587 S    
C17   N1    1.386190 Am   
C3    H6    1.108929 S    
C9    H20   1.110760 S    
C66   H57   1.081980 S    
C55   H55   1.083235 S    
C37   C51   1.399715 A    
N1    C18   1.387127 Am   
P2    O20   1.544236 S    
C15   C16   1.520255 S    
C24   C27   1.408365 A    
C61   C66   1.395590 A    
O13   Ba2   2.915694 S    
C53   C54   1.391159 A    
C11   O22   1.402858 S    
C4    O15   1.396733 S    
C52   H49   1.075451 S    
N3    O29   1.300704 A    
P1    O5    1.749630 S    
C5    N4    1.458718 S    
C62   H54   1.083051 S    
C32   C36   1.436147 A    
P3    O8    1.758766 S    
C49   H45   1.083699 S    
C50   H46   1.075426 S    
C13   C14   1.519101 S    
C43   C44   1.510161 S    
C22   H38   1.084457 S    
N1    C23   1.464027 S    
C50   C51   1.393606 A    
Ba1   Ba2   4.543586 S    
C29   C41   1.501806 S    
O1    Ba1   2.796316 S    
C3    H27   1.109204 S    
P7    C60   1.838492 S    
C12   H25   1.108327 S    
C45   C48   1.417351 A    
N3    O30   1.301742 A    
C22   C23   1.510987 S    
C13   H28   1.113948 S    
C24   C46   1.436202 A    
C56   C57   1.409118 A    
P3    O11   1.749724 S    
C15   H34   1.111040 S    
P2    O7    1.505679 D    
P8    O23   1.545710 D    
P2    C54   1.839132 S    
C10   H21   1.104426 S    
C10   N3    1.462387 S    
N5    O34   1.300638 A    
P5    C61   1.846155 S    
P1    Ba1   3.370965 S    
C30   C45   1.433142 A    
C2    H4    1.105942 S    
P1    C42   1.832481 S    
C12   N5    1.458781 S    
C21   C22   1.334475 D    
O3    Ba1   2.726429 S    
C15   H33   1.108236 S    
C17   C25   1.418297 A    
C48   H43   1.075460 S    
C31   C50   1.417417 A    
C17   O25   1.222201 D    
P4    Ba2   3.371399 S    
H52   C59   1.083538 S    
C25   C26   1.399714 A    
C31   C32   1.422846 A    
C31   C47   1.433300 A    
C62   C63   1.412020 A    
C57   C58   1.405906 A    
C59   C60   1.402598 A    
P7    O22   1.749785 S    
C45   C46   1.422834 A    
C3    H5    1.109402 S    
C35   C39   1.416469 A    
O6    C10   1.405971 S    
N2    C44   1.463700 S    
O10   C8    1.392753 S    
C5    H9    1.111752 S    
C28   H50   1.085861 S    
